@<TRIPOS>MOLECULE
31423_ChemDiv_5436-1056
 23 26 0 0 0
SMALL
GASTEIGER
Energy = 0

@<TRIPOS>ATOM
      1 C           1.7500    0.7880    0.0000 C.ar    1  LIG1       -0.0167
      2 C           0.8880    1.2880    0.0000 C.ar    1  LIG1        0.0308
      3 C           0.8880    2.2790    0.0000 C.ar    1  LIG1        0.1514
      4 O           1.7500    2.7790    0.0000 O.2     1  LIG1       -0.4212
      5 C           2.6250    2.2790    0.0000 C.ar    1  LIG1        0.3414
      6 C           2.6250    1.2880    0.0000 C.ar    1  LIG1        0.0503
      7 C           3.4790    0.7880    0.0000 C.3     1  LIG1        0.0375
      8 O           3.4960    2.7790    0.0000 O.2     1  LIG1       -0.2448
      9 C           0.0210    2.7790    0.0000 C.ar    1  LIG1        0.0750
     10 C          -0.8500    2.2790    0.0000 C.ar    1  LIG1        0.1485
     11 C          -0.8500    1.2880    0.0000 C.ar    1  LIG1        0.0378
     12 C          -1.8000    0.9880    0.0000 C.ar    1  LIG1        0.0406
     13 C          -2.3920    1.7920    0.0000 C.ar    1  LIG1        0.1795
     14 O          -1.8000    2.5830    0.0000 O.2     1  LIG1       -0.4503
     15 C          -2.1630    0.0330    0.0000 C.ar    1  LIG1        0.0032
     16 C          -3.1420   -0.1210    0.0000 C.ar    1  LIG1        0.0006
     17 C          -3.5000   -1.0580    0.0000 C.ar    1  LIG1        0.0067
     18 C          -2.8500   -1.8460    0.0000 C.ar    1  LIG1        0.0346
     19 C          -1.8670   -1.6630    0.0000 C.ar    1  LIG1        0.0067
     20 C          -1.5170   -0.7290    0.0000 C.ar    1  LIG1        0.0006
     21 BR         -3.2000   -2.7750    0.0000 Br      1  LIG1       -0.0490
     22 C           0.0210    0.7880    0.0000 C.ar    1  LIG1        0.0058
     23 C           1.7500   -0.2130    0.0000 C.3     1  LIG1        0.0310
@<TRIPOS>BOND
     1     1     2   ar
     2     1     6   ar
     3     1    23    1
     4     2     3   ar
     5     2    22   ar
     6     3     4   ar
     7     3     9   ar
     8     4     5   ar
     9     5     6   ar
    10     5     8    2
    11     6     7    1
    12     9    10   ar
    13    10    11   ar
    14    10    14   ar
    15    11    12   ar
    16    11    22   ar
    17    12    13   ar
    18    12    15    1
    19    13    14   ar
    20    15    16   ar
    21    15    20   ar
    22    16    17   ar
    23    17    18   ar
    24    18    19   ar
    25    18    21    1
    26    19    20   ar
