@<TRIPOS>MOLECULE
31441_ChemDiv_6486-0001
 22 25 0 0 0
SMALL
GASTEIGER
Energy = 0

@<TRIPOS>ATOM
      1 C           0.8290   -1.3290    0.0000 C.ar    1  LIG1        0.1473
      2 C           0.8330   -0.3210    0.0000 C.ar    1  LIG1        0.0308
      3 C           1.6960    0.1880    0.0000 C.ar    1  LIG1       -0.0125
      4 C           2.5710   -0.3210    0.0000 C.ar    1  LIG1        0.0781
      5 C           2.5710   -1.3290    0.0000 C.ar    1  LIG1        0.3456
      6 O           1.6960   -1.8290    0.0000 O.2     1  LIG1       -0.4213
      7 O           3.4380   -1.8330    0.0000 O.2     1  LIG1       -0.2445
      8 C           1.6960    1.1880    0.0000 C.3     1  LIG1        0.0313
      9 C          -0.0380    0.1750    0.0000 C.ar    1  LIG1        0.0058
     10 C          -0.9000   -0.3290    0.0000 C.ar    1  LIG1        0.0375
     11 C          -0.9000   -1.3250    0.0000 C.ar    1  LIG1        0.1443
     12 C          -0.0380   -1.8250    0.0000 C.ar    1  LIG1        0.0473
     13 C          -0.0380   -2.8210    0.0000 C.3     1  LIG1        0.0375
     14 O          -1.8460   -1.6330    0.0000 O.2     1  LIG1       -0.4506
     15 C          -2.4330   -0.8250    0.0000 C.ar    1  LIG1        0.1795
     16 C          -1.8460   -0.0210    0.0000 C.ar    1  LIG1        0.0406
     17 C          -2.1580    0.9330    0.0000 C.ar    1  LIG1        0.0031
     18 C          -1.4830    1.6670    0.0000 C.ar    1  LIG1        0.0001
     19 C          -1.7920    2.6170    0.0000 C.ar    1  LIG1        0.0000
     20 C          -2.7710    2.8250    0.0000 C.ar    1  LIG1        0.0000
     21 C          -3.4420    2.0830    0.0000 C.ar    1  LIG1        0.0000
     22 C          -3.1290    1.1380    0.0000 C.ar    1  LIG1        0.0001
@<TRIPOS>BOND
     1     1     2   ar
     2     1     6   ar
     3     1    12   ar
     4     2     3   ar
     5     2     9   ar
     6     3     4   ar
     7     3     8    1
     8     4     5   ar
     9     5     6   ar
    10     5     7    2
    11     9    10   ar
    12    10    11   ar
    13    10    16   ar
    14    11    12   ar
    15    11    14   ar
    16    12    13    1
    17    14    15   ar
    18    15    16   ar
    19    16    17    1
    20    17    18   ar
    21    17    22   ar
    22    18    19   ar
    23    19    20   ar
    24    20    21   ar
    25    21    22   ar
