@<TRIPOS>MOLECULE
31446_ChemDiv_6903-0005
 22 24 0 0 0
SMALL
GASTEIGER
Energy = 0

@<TRIPOS>ATOM
      1 N           1.0460    0.0080    0.0000 N.am    1  LIG1       -0.1765
      2 C           2.0420    0.0080    0.0000 C.ar    1  LIG1        0.2314
      3 N           2.5420   -0.8580    0.0000 N.ar    1  LIG1       -0.2174
      4 C           3.5420   -0.8580    0.0000 C.ar    1  LIG1        0.0634
      5 C           4.0420    0.0080    0.0000 C.ar    1  LIG1        0.0296
      6 C           3.5290    0.8750    0.0000 C.ar    1  LIG1        0.0634
      7 N           2.5290    0.8710    0.0000 N.ar    1  LIG1       -0.2174
      8 C           4.0250    1.7500    0.0000 C.3     1  LIG1        0.0522
      9 C           4.0420   -1.7210    0.0000 C.3     1  LIG1        0.0522
     10 C           0.4540   -0.8130    0.0000 C.2     1  LIG1        0.2378
     11 C          -0.5000   -0.5040    0.0000 C.3     1  LIG1        0.0955
     12 C          -0.5000    0.4960    0.0000 C.3     1  LIG1        0.0909
     13 C           0.4540    0.8080    0.0000 C.2     1  LIG1        0.2377
     14 O           0.7580    1.7630    0.0000 O.2     1  LIG1       -0.2740
     15 C          -1.3080    1.0880    0.0000 C.3     1  LIG1        0.0359
     16 C          -2.2250    0.6790    0.0000 C.ar    1  LIG1       -0.0217
     17 C          -3.0290    1.2710    0.0000 C.ar    1  LIG1       -0.0043
     18 C          -3.9380    0.8710    0.0000 C.ar    1  LIG1       -0.0003
     19 C          -4.0460   -0.1290    0.0000 C.ar    1  LIG1       -0.0000
     20 C          -3.2290   -0.7210    0.0000 C.ar    1  LIG1       -0.0003
     21 C          -2.3210   -0.3130    0.0000 C.ar    1  LIG1       -0.0043
     22 O           0.7580   -1.7580    0.0000 O.2     1  LIG1       -0.2740
@<TRIPOS>BOND
     1     1     2    1
     2     1    10   am
     3     1    13   am
     4     2     3   ar
     5     2     7   ar
     6     3     4   ar
     7     4     5   ar
     8     4     9    1
     9     5     6   ar
    10     6     7   ar
    11     6     8    1
    12    10    11    1
    13    10    22    2
    14    11    12    1
    15    12    13    1
    16    12    15    1
    17    13    14    2
    18    15    16    1
    19    16    17   ar
    20    16    21   ar
    21    17    18   ar
    22    18    19   ar
    23    19    20   ar
    24    20    21   ar
