@<TRIPOS>MOLECULE
31443_ChemDiv_6486-0006
 21 24 0 0 0
SMALL
GASTEIGER
Energy = 0

@<TRIPOS>ATOM
      1 C          -1.8460   -0.5170    0.0000 C.ar    1  LIG1        0.0406
      2 C          -0.8960   -0.8250    0.0000 C.ar    1  LIG1        0.0378
      3 C          -0.8960   -1.8210    0.0000 C.ar    1  LIG1        0.1485
      4 O          -1.8460   -2.1290    0.0000 O.2     1  LIG1       -0.4503
      5 C          -2.4290   -1.3210    0.0000 C.ar    1  LIG1        0.1795
      6 C          -0.0380   -2.3210    0.0000 C.ar    1  LIG1        0.0750
      7 C           0.8290   -1.8250    0.0000 C.ar    1  LIG1        0.1514
      8 C           0.8290   -0.8170    0.0000 C.ar    1  LIG1        0.0311
      9 C           1.6960   -0.3080    0.0000 C.ar    1  LIG1       -0.0125
     10 C           2.5710   -0.8170    0.0000 C.ar    1  LIG1        0.0781
     11 C           2.5710   -1.8250    0.0000 C.ar    1  LIG1        0.3456
     12 O           1.6960   -2.3250    0.0000 O.2     1  LIG1       -0.4209
     13 O           3.4380   -2.3290    0.0000 O.2     1  LIG1       -0.2445
     14 C           1.6960    0.6880    0.0000 C.3     1  LIG1        0.0313
     15 C          -0.0380   -0.3210    0.0000 C.ar    1  LIG1        0.0059
     16 C          -2.1500    0.4380    0.0000 C.ar    1  LIG1        0.0031
     17 C          -1.4830    1.1750    0.0000 C.ar    1  LIG1        0.0001
     18 C          -1.7920    2.1250    0.0000 C.ar    1  LIG1        0.0000
     19 C          -2.7670    2.3330    0.0000 C.ar    1  LIG1        0.0000
     20 C          -3.4420    1.5880    0.0000 C.ar    1  LIG1        0.0000
     21 C          -3.1250    0.6380    0.0000 C.ar    1  LIG1        0.0001
@<TRIPOS>BOND
     1     1     2   ar
     2     1     5   ar
     3     1    16    1
     4     2     3   ar
     5     2    15   ar
     6     3     4   ar
     7     3     6   ar
     8     4     5   ar
     9     6     7   ar
    10     7     8   ar
    11     7    12   ar
    12     8     9   ar
    13     8    15   ar
    14     9    10   ar
    15     9    14    1
    16    10    11   ar
    17    11    12   ar
    18    11    13    2
    19    16    17   ar
    20    16    21   ar
    21    17    18   ar
    22    18    19   ar
    23    19    20   ar
    24    20    21   ar
