@<TRIPOS>MOLECULE
31445_ChemDiv_8009-3211
 23 26 0 0 0
SMALL
GASTEIGER
Energy = 0

@<TRIPOS>ATOM
      1 C           0.9080   -1.7710    0.0000 C.ar    1  LIG1        0.1473
      2 C           0.9080   -0.7960    0.0000 C.ar    1  LIG1        0.0308
      3 C           1.7750   -0.2670    0.0000 C.ar    1  LIG1       -0.0125
      4 C           2.6210   -0.7960    0.0000 C.ar    1  LIG1        0.0781
      5 C           2.6210   -1.7710    0.0000 C.ar    1  LIG1        0.3456
      6 O           1.7750   -2.3000    0.0000 O.2     1  LIG1       -0.4213
      7 O           3.4670   -2.3000    0.0000 O.2     1  LIG1       -0.2445
      8 C           1.7750    0.7210    0.0000 C.3     1  LIG1        0.0313
      9 C           0.0750   -0.2670    0.0000 C.ar    1  LIG1        0.0058
     10 C          -0.8290   -0.7960    0.0000 C.ar    1  LIG1        0.0375
     11 C          -0.8290   -1.7710    0.0000 C.ar    1  LIG1        0.1443
     12 C           0.0750   -2.3000    0.0000 C.ar    1  LIG1        0.0473
     13 C           0.1420   -3.2920    0.0000 C.3     1  LIG1        0.0375
     14 O          -1.8040   -2.0580    0.0000 O.2     1  LIG1       -0.4506
     15 C          -2.3670   -1.2750    0.0000 C.ar    1  LIG1        0.1795
     16 C          -1.8040   -0.4580    0.0000 C.ar    1  LIG1        0.0406
     17 C          -2.1420    0.4630    0.0000 C.ar    1  LIG1        0.0031
     18 C          -1.5000    1.2130    0.0000 C.ar    1  LIG1       -0.0002
     19 C          -1.8420    2.1790    0.0000 C.ar    1  LIG1       -0.0043
     20 C          -2.8130    2.3540    0.0000 C.ar    1  LIG1       -0.0218
     21 C          -3.4710    1.5880    0.0000 C.ar    1  LIG1       -0.0043
     22 C          -3.1170    0.6380    0.0000 C.ar    1  LIG1       -0.0002
     23 C          -3.1330    3.2960    0.0000 C.3     1  LIG1        0.0310
@<TRIPOS>BOND
     1     1     2   ar
     2     1     6   ar
     3     1    12   ar
     4     2     3   ar
     5     2     9   ar
     6     3     4   ar
     7     3     8    1
     8     4     5   ar
     9     5     6   ar
    10     5     7    2
    11     9    10   ar
    12    10    11   ar
    13    10    16   ar
    14    11    12   ar
    15    11    14   ar
    16    12    13    1
    17    14    15   ar
    18    15    16   ar
    19    16    17    1
    20    17    18   ar
    21    17    22   ar
    22    18    19   ar
    23    19    20   ar
    24    20    21   ar
    25    20    23    1
    26    21    22   ar
