@<TRIPOS>MOLECULE
31444_ChemDiv_5240-0016
 26 28 0 0 0
SMALL
GASTEIGER
Energy = 0

@<TRIPOS>ATOM
      1 N           1.1000    0.3750    0.0000 N.am    1  LIG1       -0.1764
      2 C           2.1080    0.3880    0.0000 C.ar    1  LIG1        0.2371
      3 N           2.5920    1.2380    0.0000 N.ar    1  LIG1       -0.1779
      4 C           3.5830    1.2630    0.0000 C.ar    1  LIG1        0.2321
      5 C           4.1080    0.4040    0.0000 C.ar    1  LIG1        0.1154
      6 C           3.6170   -0.4460    0.0000 C.ar    1  LIG1        0.2321
      7 N           2.6250   -0.4630    0.0000 N.ar    1  LIG1       -0.1779
      8 O           4.1210   -1.3000    0.0000 O.3     1  LIG1       -0.4560
      9 C           3.6500   -2.1630    0.0000 C.3     1  LIG1        0.2542
     10 O           4.0500    2.1290    0.0000 O.3     1  LIG1       -0.4560
     11 C           5.0250    2.1670    0.0000 C.3     1  LIG1        0.2542
     12 C           0.4920    1.1580    0.0000 C.2     1  LIG1        0.2377
     13 C          -0.4500    0.8170    0.0000 C.3     1  LIG1        0.0904
     14 C          -0.4250   -0.1540    0.0000 C.3     1  LIG1        0.0865
     15 C           0.5290   -0.4380    0.0000 C.2     1  LIG1        0.2373
     16 O           0.8710   -1.4290    0.0000 O.2     1  LIG1       -0.2740
     17 C          -1.2080   -0.7460    0.0000 C.3     1  LIG1        0.0101
     18 C          -1.2210    1.4790    0.0000 C.3     1  LIG1        0.0359
     19 C          -2.1710    1.1290    0.0000 C.ar    1  LIG1       -0.0217
     20 C          -2.3420    0.1580    0.0000 C.ar    1  LIG1       -0.0046
     21 C          -3.3040   -0.2080    0.0000 C.ar    1  LIG1       -0.0046
     22 C          -4.0790    0.4580    0.0000 C.ar    1  LIG1       -0.0219
     23 C          -3.9040    1.4420    0.0000 C.ar    1  LIG1       -0.0046
     24 C          -2.9460    1.7880    0.0000 C.ar    1  LIG1       -0.0046
     25 C          -5.0290    0.1330    0.0000 C.3     1  LIG1        0.0310
     26 O           0.7880    2.1290    0.0000 O.2     1  LIG1       -0.2740
@<TRIPOS>BOND
     1     1     2    1
     2     1    12   am
     3     1    15   am
     4     2     3   ar
     5     2     7   ar
     6     3     4   ar
     7     4     5   ar
     8     4    10    1
     9     5     6   ar
    10     6     7   ar
    11     6     8    1
    12     8     9    1
    13    10    11    1
    14    12    13    1
    15    12    26    2
    16    13    14    1
    17    13    18    1
    18    14    15    1
    19    14    17    1
    20    15    16    2
    21    18    19    1
    22    19    20   ar
    23    19    24   ar
    24    20    21   ar
    25    21    22   ar
    26    22    23   ar
    27    22    25    1
    28    23    24   ar
