@<TRIPOS>MOLECULE
31448_ChemDiv_5135-0030
 20 22 0 0 0
SMALL
GASTEIGER
Energy = 0

@<TRIPOS>ATOM
      1 N           1.2420   -0.3330    0.0000 N.am    1  LIG1       -0.2223
      2 C           0.6460    0.4710    0.0000 C.2     1  LIG1        0.2320
      3 C          -0.3170    0.1420    0.0000 C.3     1  LIG1        0.0905
      4 C          -0.2920   -0.8460    0.0000 C.3     1  LIG1        0.0951
      5 C           0.6790   -1.1710    0.0000 C.2     1  LIG1        0.2322
      6 O           0.9960   -2.1080    0.0000 O.2     1  LIG1       -0.2744
      7 C          -1.0630    0.8130    0.0000 C.3     1  LIG1        0.0359
      8 C          -2.0330    0.4710    0.0000 C.ar    1  LIG1       -0.0217
      9 C          -2.2210   -0.5000    0.0000 C.ar    1  LIG1       -0.0043
     10 C          -3.1580   -0.8460    0.0000 C.ar    1  LIG1       -0.0003
     11 C          -3.9130   -0.2330    0.0000 C.ar    1  LIG1       -0.0000
     12 C          -3.7460    0.7630    0.0000 C.ar    1  LIG1       -0.0003
     13 C          -2.8040    1.1080    0.0000 C.ar    1  LIG1       -0.0043
     14 O           0.9750    1.4080    0.0000 O.2     1  LIG1       -0.2744
     15 C           2.2330   -0.3330    0.0000 C.3     1  LIG1        0.1651
     16 C           2.7170    0.5210    0.0000 C.ar    1  LIG1        0.1435
     17 O           2.3170    1.4330    0.0000 O.2     1  LIG1       -0.4529
     18 C           3.0080    2.1130    0.0000 C.ar    1  LIG1        0.1792
     19 C           3.9080    1.6460    0.0000 C.ar    1  LIG1        0.0435
     20 C           3.6960    0.6330    0.0000 C.ar    1  LIG1        0.0380
@<TRIPOS>BOND
     1     1     2   am
     2     1     5   am
     3     1    15    1
     4     2     3    1
     5     2    14    2
     6     3     4    1
     7     3     7    1
     8     4     5    1
     9     5     6    2
    10     7     8    1
    11     8     9   ar
    12     8    13   ar
    13     9    10   ar
    14    10    11   ar
    15    11    12   ar
    16    12    13   ar
    17    15    16    1
    18    16    17   ar
    19    16    20   ar
    20    17    18   ar
    21    18    19   ar
    22    19    20   ar
