@<TRIPOS>MOLECULE
31447_ChemDiv_8009-4342
 22 25 0 0 0
SMALL
GASTEIGER
Energy = 0

@<TRIPOS>ATOM
      1 C          -1.8080   -0.9630    0.0000 C.ar    1  LIG1        0.0406
      2 C          -0.8380   -1.2960    0.0000 C.ar    1  LIG1        0.0378
      3 C          -0.8380   -2.2750    0.0000 C.ar    1  LIG1        0.1485
      4 O          -1.8080   -2.5580    0.0000 O.2     1  LIG1       -0.4503
      5 C          -2.3710   -1.7790    0.0000 C.ar    1  LIG1        0.1795
      6 C           0.0750   -2.8000    0.0000 C.ar    1  LIG1        0.0750
      7 C           0.9130   -2.2750    0.0000 C.ar    1  LIG1        0.1514
      8 C           0.9130   -1.2960    0.0000 C.ar    1  LIG1        0.0311
      9 C           1.7750   -0.7710    0.0000 C.ar    1  LIG1       -0.0125
     10 C           2.6210   -1.2960    0.0000 C.ar    1  LIG1        0.0781
     11 C           2.6210   -2.2750    0.0000 C.ar    1  LIG1        0.3456
     12 O           1.7750   -2.8000    0.0000 O.2     1  LIG1       -0.4209
     13 O           3.4710   -2.8000    0.0000 O.2     1  LIG1       -0.2445
     14 C           1.7750    0.2210    0.0000 C.3     1  LIG1        0.0313
     15 C           0.0750   -0.7710    0.0000 C.ar    1  LIG1        0.0059
     16 C          -2.1460   -0.0330    0.0000 C.ar    1  LIG1        0.0031
     17 C          -3.1210    0.1420    0.0000 C.ar    1  LIG1       -0.0002
     18 C          -3.4750    1.0880    0.0000 C.ar    1  LIG1       -0.0043
     19 C          -2.8170    1.8580    0.0000 C.ar    1  LIG1       -0.0218
     20 C          -1.8420    1.6790    0.0000 C.ar    1  LIG1       -0.0043
     21 C          -1.5080    0.7170    0.0000 C.ar    1  LIG1       -0.0002
     22 C          -3.1380    2.8040    0.0000 C.3     1  LIG1        0.0310
@<TRIPOS>BOND
     1     1     2   ar
     2     1     5   ar
     3     1    16    1
     4     2     3   ar
     5     2    15   ar
     6     3     4   ar
     7     3     6   ar
     8     4     5   ar
     9     6     7   ar
    10     7     8   ar
    11     7    12   ar
    12     8     9   ar
    13     8    15   ar
    14     9    10   ar
    15     9    14    1
    16    10    11   ar
    17    11    12   ar
    18    11    13    2
    19    16    17   ar
    20    16    21   ar
    21    17    18   ar
    22    18    19   ar
    23    19    20   ar
    24    19    22    1
    25    20    21   ar
