@<TRIPOS>MOLECULE
31442_ChemDiv_5135-0026
 20 22 0 0 0
SMALL
GASTEIGER
Energy = 0

@<TRIPOS>ATOM
      1 N           1.0500    0.0130    0.0000 N.am    1  LIG1       -0.1765
      2 C           0.5130   -0.8330    0.0000 C.2     1  LIG1        0.2378
      3 C          -0.4670   -0.5500    0.0000 C.3     1  LIG1        0.0955
      4 C          -0.5000    0.4790    0.0000 C.3     1  LIG1        0.0909
      5 C           0.4630    0.8130    0.0000 C.2     1  LIG1        0.2377
      6 O           0.7710    1.8000    0.0000 O.2     1  LIG1       -0.2740
      7 C          -1.2420    1.1250    0.0000 C.3     1  LIG1        0.0359
      8 C          -2.2000    0.7880    0.0000 C.ar    1  LIG1       -0.0217
      9 C          -2.9540    1.4330    0.0000 C.ar    1  LIG1       -0.0043
     10 C          -3.8790    1.1040    0.0000 C.ar    1  LIG1       -0.0003
     11 C          -4.0540    0.1210    0.0000 C.ar    1  LIG1       -0.0000
     12 C          -3.3080   -0.5250    0.0000 C.ar    1  LIG1       -0.0003
     13 C          -2.3790   -0.1880    0.0000 C.ar    1  LIG1       -0.0043
     14 O           0.8500   -1.7960    0.0000 O.2     1  LIG1       -0.2740
     15 C           2.0500    0.0540    0.0000 C.ar    1  LIG1        0.2321
     16 N           2.6000   -0.7670    0.0000 N.ar    1  LIG1       -0.2114
     17 C           3.5830   -0.7210    0.0000 C.ar    1  LIG1        0.1035
     18 C           4.0500    0.1710    0.0000 C.ar    1  LIG1        0.0414
     19 C           3.4960    0.9790    0.0000 C.ar    1  LIG1        0.1035
     20 N           2.5130    0.9330    0.0000 N.ar    1  LIG1       -0.2114
@<TRIPOS>BOND
     1     1     2   am
     2     1     5   am
     3     1    15    1
     4     2     3    1
     5     2    14    2
     6     3     4    1
     7     4     5    1
     8     4     7    1
     9     5     6    2
    10     7     8    1
    11     8     9   ar
    12     8    13   ar
    13     9    10   ar
    14    10    11   ar
    15    11    12   ar
    16    12    13   ar
    17    15    16   ar
    18    15    20   ar
    19    16    17   ar
    20    17    18   ar
    21    18    19   ar
    22    19    20   ar
