@<TRIPOS>MOLECULE
31450_ChemDiv_5137-3629
 32 36 0 0 0
SMALL
GASTEIGER
Energy = 0

@<TRIPOS>ATOM
      1 N          -0.8420   -0.7880    0.0000 N.ar    1  LIG1       -0.3053
      2 C           0.0040   -0.2790    0.0000 C.ar    1  LIG1        0.1486
      3 C          -0.0080    0.6830    0.0000 C.ar    1  LIG1        0.0686
      4 C          -1.6960    0.6830    0.0000 C.ar    1  LIG1        0.0215
      5 C          -1.6960   -0.2920    0.0000 C.ar    1  LIG1        0.0615
      6 C          -2.5540   -0.7750    0.0000 C.ar    1  LIG1        0.0158
      7 C          -3.3880   -0.2920    0.0000 C.ar    1  LIG1        0.0014
      8 C          -4.2380   -0.7750    0.0000 C.ar    1  LIG1        0.0000
      9 C          -4.2380   -1.7580    0.0000 C.ar    1  LIG1        0.0000
     10 C          -3.3880   -2.2580    0.0000 C.ar    1  LIG1        0.0000
     11 C          -2.5420   -1.7670    0.0000 C.ar    1  LIG1        0.0014
     12 C          -2.3920    1.3750    0.0000 C.ar    1  LIG1        0.0016
     13 C          -3.3130    1.1170    0.0000 C.ar    1  LIG1        0.0000
     14 C          -4.0040    1.8040    0.0000 C.ar    1  LIG1        0.0000
     15 C          -3.7580    2.7580    0.0000 C.ar    1  LIG1        0.0000
     16 C          -2.8130    3.0210    0.0000 C.ar    1  LIG1        0.0000
     17 C          -2.1210    2.3250    0.0000 C.ar    1  LIG1        0.0000
     18 C           0.8380    1.1920    0.0000 C.ar    1  LIG1        0.1522
     19 N           1.6880    0.6830    0.0000 N.ar    1  LIG1       -0.2074
     20 C           1.6960   -0.2790    0.0000 C.ar    1  LIG1        0.2014
     21 N           0.8540   -0.7710    0.0000 N.ar    1  LIG1       -0.2064
     22 N           0.8380    2.1710    0.0000 N.pl3   1  LIG1       -0.2201
     23 C           1.6880    2.6630    0.0000 C.3     1  LIG1        0.1165
     24 C           2.5460    2.1880    0.0000 C.3     1  LIG1        0.0589
     25 C           3.3830    2.6790    0.0000 C.3     1  LIG1        0.1839
     26 O           4.2330    2.1880    0.0000 O.3     1  LIG1       -0.2204
     27 C          -0.8290   -1.7670    0.0000 C.3     1  LIG1        0.1719
     28 C           0.0290   -2.2580    0.0000 C.ar    1  LIG1        0.1458
     29 O           0.6460   -3.0170    0.0000 O.2     1  LIG1       -0.4527
     30 C           1.5670   -2.6750    0.0000 C.ar    1  LIG1        0.1792
     31 C           1.5170   -1.6830    0.0000 C.ar    1  LIG1        0.0435
     32 C           0.5670   -1.4250    0.0000 C.ar    1  LIG1        0.0382
@<TRIPOS>BOND
     1     1     2   ar
     2     1     5   ar
     3     1    27    1
     4     2     3   ar
     5     2    21   ar
     6     3     4   ar
     7     3    18   ar
     8     4     5   ar
     9     4    12    1
    10     5     6    1
    11     6     7   ar
    12     6    11   ar
    13     7     8   ar
    14     8     9   ar
    15     9    10   ar
    16    10    11   ar
    17    12    13   ar
    18    12    17   ar
    19    13    14   ar
    20    14    15   ar
    21    15    16   ar
    22    16    17   ar
    23    18    19   ar
    24    18    22    1
    25    19    20   ar
    26    20    21   ar
    27    22    23    1
    28    23    24    1
    29    24    25    1
    30    25    26    1
    31    27    28    1
    32    28    29   ar
    33    28    32   ar
    34    29    30   ar
    35    30    31   ar
    36    31    32   ar
