@<TRIPOS>MOLECULE
31452_ChemDiv_5137-3631
 34 39 0 0 0
SMALL
GASTEIGER
Energy = 0

@<TRIPOS>ATOM
      1 N          -0.7540   -0.7920    0.0000 N.ar    1  LIG1       -0.3053
      2 C           0.0920   -0.2790    0.0000 C.ar    1  LIG1        0.1486
      3 C           0.0830    0.6830    0.0000 C.ar    1  LIG1        0.0686
      4 C          -1.6170    0.6830    0.0000 C.ar    1  LIG1        0.0215
      5 C          -1.6170   -0.2920    0.0000 C.ar    1  LIG1        0.0615
      6 C          -2.4710   -0.7750    0.0000 C.ar    1  LIG1        0.0158
      7 C          -3.3040   -0.2920    0.0000 C.ar    1  LIG1        0.0014
      8 C          -4.1500   -0.7750    0.0000 C.ar    1  LIG1        0.0000
      9 C          -4.1500   -1.7580    0.0000 C.ar    1  LIG1        0.0000
     10 C          -3.3040   -2.2630    0.0000 C.ar    1  LIG1        0.0000
     11 C          -2.4540   -1.7670    0.0000 C.ar    1  LIG1        0.0014
     12 C          -2.3000    1.3750    0.0000 C.ar    1  LIG1        0.0016
     13 C          -3.2290    1.1170    0.0000 C.ar    1  LIG1        0.0000
     14 C          -3.9250    1.8080    0.0000 C.ar    1  LIG1        0.0000
     15 C          -3.6710    2.7630    0.0000 C.ar    1  LIG1        0.0000
     16 C          -2.7330    3.0250    0.0000 C.ar    1  LIG1        0.0000
     17 C          -2.0380    2.3290    0.0000 C.ar    1  LIG1        0.0000
     18 C           0.9250    1.1920    0.0000 C.ar    1  LIG1        0.1526
     19 N           1.7750    0.6830    0.0000 N.ar    1  LIG1       -0.2074
     20 C           1.7790   -0.2790    0.0000 C.ar    1  LIG1        0.2014
     21 N           0.9420   -0.7710    0.0000 N.ar    1  LIG1       -0.2064
     22 N           0.9250    2.1750    0.0000 N.pl3   1  LIG1       -0.2119
     23 C           1.7750    2.6670    0.0000 C.3     1  LIG1        0.1778
     24 C           2.6170    2.1750    0.0000 C.ar    1  LIG1        0.1448
     25 O           3.2080    1.3920    0.0000 O.2     1  LIG1       -0.4529
     26 C           4.1460    1.6880    0.0000 C.ar    1  LIG1        0.1792
     27 C           4.1460    2.6670    0.0000 C.ar    1  LIG1        0.0435
     28 C           3.2080    2.9790    0.0000 C.ar    1  LIG1        0.0380
     29 C          -0.7420   -1.7670    0.0000 C.3     1  LIG1        0.1719
     30 C           0.1130   -2.2630    0.0000 C.ar    1  LIG1        0.1458
     31 O           0.7380   -3.0210    0.0000 O.2     1  LIG1       -0.4527
     32 C           1.6580   -2.6790    0.0000 C.ar    1  LIG1        0.1792
     33 C           1.6040   -1.6830    0.0000 C.ar    1  LIG1        0.0435
     34 C           0.6500   -1.4250    0.0000 C.ar    1  LIG1        0.0382
@<TRIPOS>BOND
     1     1     2   ar
     2     1     5   ar
     3     1    29    1
     4     2     3   ar
     5     2    21   ar
     6     3     4   ar
     7     3    18   ar
     8     4     5   ar
     9     4    12    1
    10     5     6    1
    11     6     7   ar
    12     6    11   ar
    13     7     8   ar
    14     8     9   ar
    15     9    10   ar
    16    10    11   ar
    17    12    13   ar
    18    12    17   ar
    19    13    14   ar
    20    14    15   ar
    21    15    16   ar
    22    16    17   ar
    23    18    19   ar
    24    18    22    1
    25    19    20   ar
    26    20    21   ar
    27    22    23    1
    28    23    24    1
    29    24    25   ar
    30    24    28   ar
    31    25    26   ar
    32    26    27   ar
    33    27    28   ar
    34    29    30    1
    35    30    31   ar
    36    30    34   ar
    37    31    32   ar
    38    32    33   ar
    39    33    34   ar
