@<TRIPOS>MOLECULE
31453_ChemDiv_5003-0070
 25 28 0 0 0
SMALL
GASTEIGER
Energy = 0

@<TRIPOS>ATOM
      1 C          -1.2670   -0.2750    0.0000 C.ar    1  LIG1        0.1408
      2 C          -1.2670    0.7380    0.0000 C.ar    1  LIG1        0.1408
      3 N          -0.4080    1.2460    0.0000 N.ar    1  LIG1       -0.2390
      4 C           0.4540    0.7380    0.0000 C.ar    1  LIG1        0.0991
      5 C           0.4540   -0.2580    0.0000 C.ar    1  LIG1        0.1002
      6 N          -0.4080   -0.7580    0.0000 N.ar    1  LIG1       -0.2389
      7 C           1.3130   -0.7580    0.0000 C.ar    1  LIG1        0.0351
      8 C           2.1710   -0.2580    0.0000 C.ar    1  LIG1        0.0495
      9 N           3.0290   -0.7670    0.0000 N.pl3   1  LIG1       -0.3075
     10 C           3.0290   -1.7500    0.0000 C.3     1  LIG1        0.0908
     11 C           3.8750   -2.2460    0.0000 C.3     1  LIG1        0.0232
     12 C           3.8920   -0.2750    0.0000 C.3     1  LIG1        0.0908
     13 C           4.7500   -0.7670    0.0000 C.3     1  LIG1        0.0232
     14 C           2.1710    0.7380    0.0000 C.ar    1  LIG1        0.0162
     15 C           1.3130    1.2460    0.0000 C.ar    1  LIG1        0.0219
     16 C          -2.1420    1.2460    0.0000 C.2     1  LIG1        0.2147
     17 C          -3.0080    0.7380    0.0000 C.ar    1  LIG1        0.0437
     18 C          -3.0080   -0.2750    0.0000 C.ar    1  LIG1        0.0437
     19 C          -2.1420   -0.7790    0.0000 C.2     1  LIG1        0.2147
     20 O          -2.1420   -1.7790    0.0000 O.2     1  LIG1       -0.2849
     21 C          -3.8790   -0.7790    0.0000 C.ar    1  LIG1        0.0033
     22 C          -4.7540   -0.2750    0.0000 C.ar    1  LIG1        0.0001
     23 C          -4.7540    0.7380    0.0000 C.ar    1  LIG1        0.0001
     24 C          -3.8790    1.2460    0.0000 C.ar    1  LIG1        0.0033
     25 O          -2.1420    2.2500    0.0000 O.2     1  LIG1       -0.2849
@<TRIPOS>BOND
     1     1     2   ar
     2     1     6   ar
     3     1    19    1
     4     2     3   ar
     5     2    16    1
     6     3     4   ar
     7     4     5   ar
     8     4    15   ar
     9     5     6   ar
    10     5     7   ar
    11     7     8   ar
    12     8     9    1
    13     8    14   ar
    14     9    10    1
    15     9    12    1
    16    10    11    1
    17    12    13    1
    18    14    15   ar
    19    16    17    1
    20    16    25    2
    21    17    18   ar
    22    17    24   ar
    23    18    19    1
    24    18    21   ar
    25    19    20    2
    26    21    22   ar
    27    22    23   ar
    28    23    24   ar
