@<TRIPOS>MOLECULE
31455_ChemDiv_5008-0045
 22 24 0 0 0
SMALL
GASTEIGER
Energy = 0

@<TRIPOS>ATOM
      1 C           0.5630   -1.4380    0.0000 C.ar    1  LIG1        0.1232
      2 C          -0.0250   -0.6290    0.0000 C.ar    1  LIG1        0.0333
      3 C          -0.9920   -0.9210    0.0000 C.ar    1  LIG1        0.0368
      4 C          -0.9920   -1.9460    0.0000 C.ar    1  LIG1        0.1448
      5 O          -0.0250   -2.2380    0.0000 O.2     1  LIG1       -0.4578
      6 C          -1.8460   -2.4250    0.0000 C.ar    1  LIG1        0.0372
      7 C          -2.7130   -1.9460    0.0000 C.ar    1  LIG1       -0.0011
      8 C          -2.7130   -0.9210    0.0000 C.ar    1  LIG1       -0.0217
      9 C          -1.8460   -0.4420    0.0000 C.ar    1  LIG1       -0.0011
     10 C          -3.5750   -0.4420    0.0000 C.3     1  LIG1        0.0310
     11 C           0.2960    0.3330    0.0000 C.ar    1  LIG1        0.0027
     12 C          -0.3790    1.0880    0.0000 C.ar    1  LIG1        0.0006
     13 C          -0.0710    2.0290    0.0000 C.ar    1  LIG1        0.0067
     14 C           0.9170    2.2330    0.0000 C.ar    1  LIG1        0.0346
     15 C           1.5750    1.4790    0.0000 C.ar    1  LIG1        0.0067
     16 C           1.2670    0.5380    0.0000 C.ar    1  LIG1        0.0006
     17 BR          1.2380    3.1710    0.0000 Br      1  LIG1       -0.0490
     18 C           1.5750   -1.4380    0.0000 C.3     1  LIG1        0.0723
     19 C           2.0670   -2.3000    0.0000 C.3     1  LIG1        0.0725
     20 C           3.0790   -2.3000    0.0000 C.2     1  LIG1        0.1515
     21 O           3.5710   -1.4380    0.0000 O.2     1  LIG1       -0.2960
     22 C           3.5710   -3.1670    0.0000 C.3     1  LIG1        0.0723
@<TRIPOS>BOND
     1     1     2   ar
     2     1     5   ar
     3     1    18    1
     4     2     3   ar
     5     2    11    1
     6     3     4   ar
     7     3     9   ar
     8     4     5   ar
     9     4     6   ar
    10     6     7   ar
    11     7     8   ar
    12     8     9   ar
    13     8    10    1
    14    11    12   ar
    15    11    16   ar
    16    12    13   ar
    17    13    14   ar
    18    14    15   ar
    19    14    17    1
    20    15    16   ar
    21    18    19    1
    22    19    20    1
    23    20    21    2
    24    20    22    1
