@<TRIPOS>MOLECULE
31456_ChemDiv_8017-2687
 37 42 0 0 0
SMALL
GASTEIGER
Energy = 0

@<TRIPOS>ATOM
      1 N          -1.3750   -1.3170    0.0000 N.ar    1  LIG1       -0.3053
      2 C          -0.4000   -1.0960    0.0000 C.ar    1  LIG1        0.1486
      3 C          -0.3080   -0.0960    0.0000 C.ar    1  LIG1        0.0686
      4 C          -1.2250    0.2960    0.0000 C.ar    1  LIG1        0.0215
      5 C          -1.8830   -0.4580    0.0000 C.ar    1  LIG1        0.0615
      6 C          -2.8830   -0.3670    0.0000 C.ar    1  LIG1        0.0158
      7 C          -3.3000    0.5420    0.0000 C.ar    1  LIG1        0.0014
      8 C          -4.2960    0.6330    0.0000 C.ar    1  LIG1        0.0000
      9 C          -4.8710   -0.1790    0.0000 C.ar    1  LIG1        0.0000
     10 C          -4.4580   -1.0920    0.0000 C.ar    1  LIG1        0.0000
     11 C          -3.4580   -1.1830    0.0000 C.ar    1  LIG1        0.0014
     12 C          -1.4460    1.2710    0.0000 C.ar    1  LIG1        0.0016
     13 C          -0.7130    1.9540    0.0000 C.ar    1  LIG1        0.0000
     14 C          -0.9330    2.9290    0.0000 C.ar    1  LIG1        0.0000
     15 C          -1.8880    3.2250    0.0000 C.ar    1  LIG1        0.0000
     16 C          -2.6210    2.5420    0.0000 C.ar    1  LIG1        0.0000
     17 C          -2.4000    1.5670    0.0000 C.ar    1  LIG1        0.0000
     18 C           0.6000    0.3170    0.0000 C.ar    1  LIG1        0.1522
     19 N           1.4170   -0.2580    0.0000 N.ar    1  LIG1       -0.2074
     20 C           1.3250   -1.2540    0.0000 C.ar    1  LIG1        0.2014
     21 N           0.4170   -1.6710    0.0000 N.ar    1  LIG1       -0.2064
     22 N           0.6920    1.3170    0.0000 N.pl3   1  LIG1       -0.2200
     23 C           1.6040    1.7290    0.0000 C.3     1  LIG1        0.1200
     24 C           2.4170    1.1540    0.0000 C.3     1  LIG1        0.0860
     25 C           2.3210    0.1580    0.0000 C.3     1  LIG1        0.1406
     26 N           3.1420   -0.4210    0.0000 N.4     1  LIG1        0.3813
     27 C           3.0500   -1.4170    0.0000 C.3     1  LIG1        0.1713
     28 C           3.8670   -1.9920    0.0000 C.3     1  LIG1        0.2047
     29 O           4.7750   -1.5710    0.0000 O.3     1  LIG1       -0.3411
     30 C           4.8670   -0.5790    0.0000 C.3     1  LIG1        0.2047
     31 C           4.0500    0.0040    0.0000 C.3     1  LIG1        0.1713
     32 C          -1.7710   -2.2330    0.0000 C.3     1  LIG1        0.1719
     33 C          -2.7630   -2.3540    0.0000 C.ar    1  LIG1        0.1458
     34 O          -3.4460   -1.6170    0.0000 O.2     1  LIG1       -0.4527
     35 C          -4.3500   -2.0330    0.0000 C.ar    1  LIG1        0.1792
     36 C          -4.2330   -3.0290    0.0000 C.ar    1  LIG1        0.0435
     37 C          -3.2500   -3.2210    0.0000 C.ar    1  LIG1        0.0382
@<TRIPOS>BOND
     1     1     2   ar
     2     1     5   ar
     3     1    32    1
     4     2     3   ar
     5     2    21   ar
     6     3     4   ar
     7     3    18   ar
     8     4     5   ar
     9     4    12    1
    10     5     6    1
    11     6     7   ar
    12     6    11   ar
    13     7     8   ar
    14     8     9   ar
    15     9    10   ar
    16    10    11   ar
    17    12    13   ar
    18    12    17   ar
    19    13    14   ar
    20    14    15   ar
    21    15    16   ar
    22    16    17   ar
    23    18    19   ar
    24    18    22    1
    25    19    20   ar
    26    20    21   ar
    27    22    23    1
    28    23    24    1
    29    24    25    1
    30    25    26    1
    31    26    27    1
    32    26    31    1
    33    27    28    1
    34    28    29    1
    35    29    30    1
    36    30    31    1
    37    32    33    1
    38    33    34   ar
    39    33    37   ar
    40    34    35   ar
    41    35    36   ar
    42    36    37   ar
