@<TRIPOS>MOLECULE
31454_ChemDiv_5137-3633
 36 41 0 0 0
SMALL
GASTEIGER
Energy = 0

@<TRIPOS>ATOM
      1 N          -1.6170   -0.7920    0.0000 N.ar    1  LIG1       -0.3053
      2 C          -0.7750   -0.2790    0.0000 C.ar    1  LIG1        0.1486
      3 C          -0.7790    0.6830    0.0000 C.ar    1  LIG1        0.0686
      4 C          -2.4670    0.6830    0.0000 C.ar    1  LIG1        0.0215
      5 C          -2.4750   -0.2920    0.0000 C.ar    1  LIG1        0.0615
      6 C          -3.3080   -0.7750    0.0000 C.ar    1  LIG1        0.0158
      7 C          -4.1750   -0.2920    0.0000 C.ar    1  LIG1        0.0014
      8 C          -5.0130   -0.7750    0.0000 C.ar    1  LIG1        0.0000
      9 C          -5.0130   -1.7580    0.0000 C.ar    1  LIG1        0.0000
     10 C          -4.1580   -2.2630    0.0000 C.ar    1  LIG1        0.0000
     11 C          -3.3080   -1.7710    0.0000 C.ar    1  LIG1        0.0014
     12 C          -3.1580    1.3750    0.0000 C.ar    1  LIG1        0.0016
     13 C          -4.1000    1.1170    0.0000 C.ar    1  LIG1        0.0000
     14 C          -4.7920    1.8080    0.0000 C.ar    1  LIG1        0.0000
     15 C          -4.5380    2.7630    0.0000 C.ar    1  LIG1        0.0000
     16 C          -3.5830    3.0250    0.0000 C.ar    1  LIG1        0.0000
     17 C          -2.9080    2.3290    0.0000 C.ar    1  LIG1        0.0000
     18 C           0.0580    1.1920    0.0000 C.ar    1  LIG1        0.1522
     19 N           0.9080    0.6830    0.0000 N.ar    1  LIG1       -0.2074
     20 C           0.9250   -0.2790    0.0000 C.ar    1  LIG1        0.2014
     21 N           0.0750   -0.7710    0.0000 N.ar    1  LIG1       -0.2064
     22 N           0.0580    2.1750    0.0000 N.pl3   1  LIG1       -0.2201
     23 C           0.9080    2.6670    0.0000 C.3     1  LIG1        0.1158
     24 C           1.7710    2.1750    0.0000 C.3     1  LIG1        0.0479
     25 C           2.6210    2.6830    0.0000 C.3     1  LIG1        0.1095
     26 N           3.4580    2.1750    0.0000 N.ar    1  LIG1       -0.3078
     27 C           4.0960    2.9250    0.0000 C.ar    1  LIG1        0.1786
     28 N           5.0080    2.5630    0.0000 N.ar    1  LIG1       -0.2223
     29 C           4.9460    1.5790    0.0000 C.ar    1  LIG1        0.1193
     30 C           3.9920    1.3420    0.0000 C.ar    1  LIG1        0.0980
     31 C          -1.6080   -1.7710    0.0000 C.3     1  LIG1        0.1719
     32 C          -0.7460   -2.2630    0.0000 C.ar    1  LIG1        0.1458
     33 O          -0.1250   -3.0210    0.0000 O.2     1  LIG1       -0.4527
     34 C           0.7920   -2.6790    0.0000 C.ar    1  LIG1        0.1792
     35 C           0.7460   -1.6830    0.0000 C.ar    1  LIG1        0.0435
     36 C          -0.2000   -1.4250    0.0000 C.ar    1  LIG1        0.0382
@<TRIPOS>BOND
     1     1     2   ar
     2     1     5   ar
     3     1    31    1
     4     2     3   ar
     5     2    21   ar
     6     3     4   ar
     7     3    18   ar
     8     4     5   ar
     9     4    12    1
    10     5     6    1
    11     6     7   ar
    12     6    11   ar
    13     7     8   ar
    14     8     9   ar
    15     9    10   ar
    16    10    11   ar
    17    12    13   ar
    18    12    17   ar
    19    13    14   ar
    20    14    15   ar
    21    15    16   ar
    22    16    17   ar
    23    18    19   ar
    24    18    22    1
    25    19    20   ar
    26    20    21   ar
    27    22    23    1
    28    23    24    1
    29    24    25    1
    30    25    26    1
    31    26    27   ar
    32    26    30   ar
    33    27    28   ar
    34    28    29   ar
    35    29    30   ar
    36    31    32    1
    37    32    33   ar
    38    32    36   ar
    39    33    34   ar
    40    34    35   ar
    41    35    36   ar
