@<TRIPOS>MOLECULE
31467_ChemDiv_4885-2112
 24 27 0 0 0
SMALL
GASTEIGER
Energy = 0

@<TRIPOS>ATOM
      1 C           1.5380    1.6830    0.0000 C.ar    1  LIG1        0.2080
      2 S           2.3250    1.0540    0.0000 S.2     1  LIG1       -0.0330
      3 C           3.1580    1.6000    0.0000 C.ar    1  LIG1        0.1124
      4 N           2.8960    2.5540    0.0000 N.ar    1  LIG1       -0.1440
      5 N           1.9040    2.6080    0.0000 N.ar    1  LIG1       -0.1239
      6 C           4.1580    1.6000    0.0000 C.3     1  LIG1        0.0545
      7 C           4.8580    2.3040    0.0000 C.3     1  LIG1        0.0073
      8 N           0.5830    1.4170    0.0000 N.am    1  LIG1       -0.1477
      9 C          -0.3750    1.1540    0.0000 C.2     1  LIG1        0.2885
     10 C          -0.7790    0.2290    0.0000 C.ar    1  LIG1        0.1362
     11 N          -0.1790   -0.5830    0.0000 N.ar    1  LIG1       -0.2435
     12 C          -0.6000   -1.4920    0.0000 C.ar    1  LIG1        0.0770
     13 C          -1.5880   -1.6040    0.0000 C.ar    1  LIG1        0.0948
     14 C          -2.1790   -0.7880    0.0000 C.ar    1  LIG1        0.0219
     15 C          -3.1290   -1.1040    0.0000 C.ar    1  LIG1        0.0192
     16 C          -3.1290   -2.1000    0.0000 C.ar    1  LIG1        0.0813
     17 N          -2.1790   -2.4170    0.0000 N.ar    1  LIG1       -0.2442
     18 C          -3.9960   -2.6040    0.0000 C.ar    1  LIG1        0.0191
     19 C          -4.8630   -2.1130    0.0000 C.ar    1  LIG1        0.0015
     20 C          -4.8630   -1.1040    0.0000 C.ar    1  LIG1        0.0001
     21 C          -3.9960   -0.6000    0.0000 C.ar    1  LIG1        0.0015
     22 C          -1.7710    0.1290    0.0000 C.ar    1  LIG1        0.0254
     23 C           0.0040   -2.3000    0.0000 C.3     1  LIG1        0.0537
     24 O          -0.9670    1.9460    0.0000 O.2     1  LIG1       -0.2663
@<TRIPOS>BOND
     1     1     2   ar
     2     1     5   ar
     3     1     8    1
     4     2     3   ar
     5     3     4   ar
     6     3     6    1
     7     4     5   ar
     8     6     7    1
     9     8     9   am
    10     9    10    1
    11     9    24    2
    12    10    11   ar
    13    10    22   ar
    14    11    12   ar
    15    12    13   ar
    16    12    23    1
    17    13    14   ar
    18    13    17   ar
    19    14    15   ar
    20    14    22   ar
    21    15    16   ar
    22    15    21   ar
    23    16    17   ar
    24    16    18   ar
    25    18    19   ar
    26    19    20   ar
    27    20    21   ar
