@<TRIPOS>MOLECULE
31469_ChemDiv_4896-3319
 20 21 0 0 0
SMALL
GASTEIGER
Energy = 0

@<TRIPOS>ATOM
      1 C           1.7000   -0.0460    0.0000 C.ar    1  LIG1        0.1618
      2 C           2.1000   -0.9460    0.0000 C.ar    1  LIG1        0.3005
      3 N           1.5040   -1.7630    0.0000 N.ar    1  LIG1       -0.1799
      4 C           0.5040   -1.6710    0.0000 C.ar    1  LIG1        0.2131
      5 N           0.1080   -0.7380    0.0000 N.ar    1  LIG1       -0.1216
      6 N           0.7000    0.0710    0.0000 N.ar    1  LIG1       -0.1411
      7 S          -0.0750   -2.4710    0.0000 S.3     1  LIG1       -0.0740
      8 C          -1.0750   -2.3630    0.0000 C.3     1  LIG1        0.0652
      9 C          -1.4750   -1.4540    0.0000 C.3     1  LIG1        0.0121
     10 C          -2.4750   -1.3460    0.0000 C.3     1  LIG1        0.0009
     11 C          -2.8750   -0.4290    0.0000 C.3     1  LIG1        0.0000
     12 C          -3.8750   -0.3380    0.0000 C.3     1  LIG1        0.0000
     13 O           3.1000   -1.0710    0.0000 O.3     1  LIG1       -0.2634
     14 C           2.2830    0.7710    0.0000 C.ar    1  LIG1        0.0409
     15 C           1.8830    1.6580    0.0000 C.ar    1  LIG1        0.0907
     16 N           0.9000    1.7880    0.0000 N.pl3   1  LIG1       -0.1280
     17 C           2.4540    2.4750    0.0000 C.ar    1  LIG1        0.0181
     18 C           3.4540    2.3710    0.0000 C.ar    1  LIG1        0.0014
     19 C           3.8710    1.4540    0.0000 C.ar    1  LIG1        0.0001
     20 C           3.2830    0.6540    0.0000 C.ar    1  LIG1        0.0031
@<TRIPOS>BOND
     1     1     2   ar
     2     1     6   ar
     3     1    14    1
     4     2     3   ar
     5     2    13    1
     6     3     4   ar
     7     4     5   ar
     8     4     7    1
     9     5     6   ar
    10     7     8    1
    11     8     9    1
    12     9    10    1
    13    10    11    1
    14    11    12    1
    15    14    15   ar
    16    14    20   ar
    17    15    16    1
    18    15    17   ar
    19    17    18   ar
    20    18    19   ar
    21    19    20   ar
