@<TRIPOS>MOLECULE
31465_ChemDiv_4879-0627
 20 23 0 0 0
SMALL
GASTEIGER
Energy = 0

@<TRIPOS>ATOM
      1 C           0.2790   -0.7500    0.0000 C.2     1  LIG1        0.0732
      2 C           0.2790    0.2540    0.0000 C.2     1  LIG1        0.0165
      3 C           1.2250    0.5580    0.0000 C.2     1  LIG1       -0.0071
      4 C           1.8040   -0.2380    0.0000 C.2     1  LIG1        0.0550
      5 N           1.2250   -1.0540    0.0000 N.2     1  LIG1       -0.2506
      6 C           2.7920   -0.1460    0.0000 C.3     1  LIG1        0.0455
      7 C           3.2000    0.7670    0.0000 C.3     1  LIG1        0.0066
      8 C           2.6250    1.5830    0.0000 C.3     1  LIG1        0.0051
      9 C           1.6210    1.4710    0.0000 C.3     1  LIG1        0.0276
     10 C          -0.6080    0.7670    0.0000 C.ar    1  LIG1        0.0282
     11 C          -0.6080    1.7670    0.0000 C.ar    1  LIG1       -0.0127
     12 C          -1.4750    2.2580    0.0000 C.ar    1  LIG1        0.0781
     13 C          -2.3290    1.7670    0.0000 C.ar    1  LIG1        0.3453
     14 O          -2.3250    0.7540    0.0000 O.2     1  LIG1       -0.4252
     15 C          -1.4580    0.2540    0.0000 C.ar    1  LIG1        0.1300
     16 C          -1.4580   -0.7500    0.0000 C.3     1  LIG1        0.0881
     17 C          -0.5960   -1.2460    0.0000 C.2     1  LIG1       -0.0188
     18 C          -0.5960   -2.2540    0.0000 C.3     1  LIG1        0.0284
     19 O          -3.2040    2.2580    0.0000 O.2     1  LIG1       -0.2445
     20 C           0.2670    2.2580    0.0000 C.3     1  LIG1        0.0313
@<TRIPOS>BOND
     1     1     2    1
     2     1     5    1
     3     1    17    2
     4     2     3    2
     5     2    10    1
     6     3     4    1
     7     3     9    1
     8     4     5    2
     9     4     6    1
    10     6     7    1
    11     7     8    1
    12     8     9    1
    13    10    11   ar
    14    10    15   ar
    15    11    12   ar
    16    11    20    1
    17    12    13   ar
    18    13    14   ar
    19    13    19    2
    20    14    15   ar
    21    15    16    1
    22    16    17    1
    23    17    18    1
