@<TRIPOS>MOLECULE
31478_ChemDiv_5137-4226
 23 25 0 0 0
SMALL
GASTEIGER
Energy = 0

@<TRIPOS>ATOM
      1 N           1.5670    0.0380    0.0000 N.am    1  LIG1       -0.2781
      2 C           2.5290    0.0500    0.0000 C.3     1  LIG1        0.0755
      3 C           3.0330   -0.7710    0.0000 C.3     1  LIG1        0.0215
      4 C           2.5630   -1.6130    0.0000 C.3     1  LIG1        0.0199
      5 C           1.5920   -1.6250    0.0000 C.3     1  LIG1        0.0934
      6 C           3.5290   -1.6040    0.0000 C.3     1  LIG1        0.0018
      7 C           4.0130   -0.7460    0.0000 C.3     1  LIG1        0.0016
      8 C           3.5040    0.0750    0.0000 C.3     1  LIG1        0.0198
      9 C           4.4880    0.1210    0.0000 C.3     1  LIG1        0.0001
     10 C           4.4080   -1.5330    0.0000 C.3     1  LIG1        0.0001
     11 C           2.6630   -2.4040    0.0000 C.3     1  LIG1        0.0018
     12 C           0.8790    0.7040    0.0000 C.2     1  LIG1        0.2701
     13 C          -0.0630    0.4460    0.0000 C.3     1  LIG1        0.2896
     14 O          -0.8710    1.2500    0.0000 O.3     1  LIG1       -0.4659
     15 C          -1.9710    0.9540    0.0000 C.ar    1  LIG1        0.1349
     16 C          -2.8170    1.4380    0.0000 C.ar    1  LIG1        0.0082
     17 C          -3.6540    0.9540    0.0000 C.ar    1  LIG1       -0.0229
     18 C          -3.6540   -0.0080    0.0000 C.ar    1  LIG1       -0.0044
     19 C          -2.8170   -0.4920    0.0000 C.ar    1  LIG1        0.0028
     20 C          -1.9710   -0.0080    0.0000 C.ar    1  LIG1        0.0366
     21 C          -4.4880    1.4380    0.0000 C.3     1  LIG1        0.0308
     22 C          -2.8170    2.4080    0.0000 C.3     1  LIG1        0.0339
     23 O           1.1130    1.6460    0.0000 O.2     1  LIG1       -0.2708
@<TRIPOS>BOND
     1     1     2    1
     2     1     5    1
     3     1    12   am
     4     2     3    1
     5     2     8    1
     6     3     4    1
     7     4     5    1
     8     4     6    1
     9     4    11    1
    10     6     7    1
    11     7     8    1
    12     7     9    1
    13     7    10    1
    14    12    13    1
    15    12    23    2
    16    13    14    1
    17    14    15    1
    18    15    16   ar
    19    15    20   ar
    20    16    17   ar
    21    16    22    1
    22    17    18   ar
    23    17    21    1
    24    18    19   ar
    25    19    20   ar
