@<TRIPOS>MOLECULE
31477_ChemDiv_5015-0017
 27 31 0 0 0
SMALL
GASTEIGER
Energy = 0

@<TRIPOS>ATOM
      1 N           0.4330   -0.2500    0.0000 N.ar    1  LIG1       -0.2417
      2 C           1.2880    0.2500    0.0000 C.ar    1  LIG1        0.2669
      3 C           1.2880    1.2500    0.0000 C.ar    1  LIG1        0.0568
      4 C           0.4330    1.7460    0.0000 C.ar    1  LIG1        0.0105
      5 C          -0.4460    1.2500    0.0000 C.ar    1  LIG1        0.0568
      6 C          -0.4460    0.2500    0.0000 C.ar    1  LIG1        0.2669
      7 O          -1.3130   -0.2580    0.0000 O.2     1  LIG1       -0.2665
      8 C          -1.3130    1.7460    0.0000 C.ar    1  LIG1        0.0048
      9 C          -1.3130    2.7500    0.0000 C.ar    1  LIG1        0.0002
     10 C          -0.4460    3.2460    0.0000 C.ar    1  LIG1        0.0013
     11 C           0.4330    2.7500    0.0000 C.ar    1  LIG1        0.0171
     12 C           1.2880    3.2460    0.0000 C.ar    1  LIG1        0.0891
     13 C           2.1540    2.7500    0.0000 C.ar    1  LIG1        0.0182
     14 C           2.1540    1.7460    0.0000 C.ar    1  LIG1        0.0061
     15 N           1.2880    4.2500    0.0000 N.pl3   1  LIG1       -0.1281
     16 O           2.1540   -0.2580    0.0000 O.2     1  LIG1       -0.2665
     17 C           0.4330   -1.2500    0.0000 C.ar    1  LIG1        0.0711
     18 C          -0.4290   -1.7460    0.0000 C.ar    1  LIG1        0.0337
     19 C          -0.4460   -2.7540    0.0000 C.ar    1  LIG1        0.0787
     20 N          -1.2960   -3.2420    0.0000 N.ar    1  LIG1       -0.2441
     21 C          -2.1580   -2.7540    0.0000 C.ar    1  LIG1        0.0988
     22 C          -2.1580   -1.7460    0.0000 C.ar    1  LIG1        0.0207
     23 C          -1.2960   -1.2500    0.0000 C.ar    1  LIG1        0.0045
     24 C           0.4330   -3.2420    0.0000 C.ar    1  LIG1       -0.0041
     25 C           1.2880   -2.7540    0.0000 C.ar    1  LIG1       -0.0013
     26 C           1.2880   -1.7460    0.0000 C.ar    1  LIG1        0.0175
     27 C           0.4330   -4.2500    0.0000 C.3     1  LIG1        0.0326
@<TRIPOS>BOND
     1     1     2   ar
     2     1     6   ar
     3     1    17    1
     4     2     3   ar
     5     2    16    2
     6     3     4   ar
     7     3    14   ar
     8     4     5   ar
     9     4    11   ar
    10     5     6   ar
    11     5     8   ar
    12     6     7    2
    13     8     9   ar
    14     9    10   ar
    15    10    11   ar
    16    11    12   ar
    17    12    13   ar
    18    12    15    1
    19    13    14   ar
    20    17    18   ar
    21    17    26   ar
    22    18    19   ar
    23    18    23   ar
    24    19    20   ar
    25    19    24   ar
    26    20    21   ar
    27    21    22   ar
    28    22    23   ar
    29    24    25   ar
    30    24    27    1
    31    25    26   ar
