@<TRIPOS>MOLECULE
31471_ChemDiv_6692-0638
 23 25 0 0 0
SMALL
GASTEIGER
Energy = 0

@<TRIPOS>ATOM
      1 C           1.4540    0.0880    0.0000 C.ar    1  LIG1        0.1618
      2 C           2.1000   -0.6630    0.0000 C.ar    1  LIG1        0.3005
      3 N           1.7670   -1.6080    0.0000 N.ar    1  LIG1       -0.1799
      4 C           0.7920   -1.7920    0.0000 C.ar    1  LIG1        0.2135
      5 N           0.1380   -1.0290    0.0000 N.ar    1  LIG1       -0.1216
      6 N           0.4750   -0.0790    0.0000 N.ar    1  LIG1       -0.1411
      7 S           0.4580   -2.7330    0.0000 S.3     1  LIG1       -0.0692
      8 C          -0.5210   -2.9210    0.0000 C.3     1  LIG1        0.0914
      9 C          -1.1710   -2.1540    0.0000 C.ar    1  LIG1       -0.0109
     10 C          -2.1500   -2.3500    0.0000 C.ar    1  LIG1       -0.0037
     11 C          -2.8000   -1.5920    0.0000 C.ar    1  LIG1       -0.0046
     12 C          -2.4670   -0.6460    0.0000 C.ar    1  LIG1       -0.0219
     13 C          -1.4830   -0.4630    0.0000 C.ar    1  LIG1       -0.0046
     14 C          -0.8380   -1.2210    0.0000 C.ar    1  LIG1       -0.0037
     15 C          -3.1170    0.1040    0.0000 C.3     1  LIG1        0.0310
     16 O           3.0960   -0.4790    0.0000 O.3     1  LIG1       -0.2634
     17 C           1.7830    1.0330    0.0000 C.ar    1  LIG1        0.0409
     18 C           1.1420    1.7960    0.0000 C.ar    1  LIG1        0.0907
     19 N           0.1580    1.6130    0.0000 N.pl3   1  LIG1       -0.1280
     20 C           1.4670    2.7420    0.0000 C.ar    1  LIG1        0.0181
     21 C           2.4630    2.9250    0.0000 C.ar    1  LIG1        0.0014
     22 C           3.1130    2.1630    0.0000 C.ar    1  LIG1        0.0001
     23 C           2.7630    1.2170    0.0000 C.ar    1  LIG1        0.0031
@<TRIPOS>BOND
     1     1     2   ar
     2     1     6   ar
     3     1    17    1
     4     2     3   ar
     5     2    16    1
     6     3     4   ar
     7     4     5   ar
     8     4     7    1
     9     5     6   ar
    10     7     8    1
    11     8     9    1
    12     9    10   ar
    13     9    14   ar
    14    10    11   ar
    15    11    12   ar
    16    12    13   ar
    17    12    15    1
    18    13    14   ar
    19    17    18   ar
    20    17    23   ar
    21    18    19    1
    22    18    20   ar
    23    20    21   ar
    24    21    22   ar
    25    22    23   ar
