@<TRIPOS>MOLECULE
31480_ChemDiv_5140-0370
 23 25 0 0 0
SMALL
GASTEIGER
Energy = 0

@<TRIPOS>ATOM
      1 C           0.9500   -0.4500    0.0000 C.2     1  LIG1        0.2261
      2 N           1.5130   -1.3040    0.0000 N.am    1  LIG1       -0.2744
      3 C           0.9500   -2.1500    0.0000 C.3     1  LIG1        0.1255
      4 C           1.5130   -2.9960    0.0000 C.3     1  LIG1        0.1636
      5 O           2.5000   -2.9960    0.0000 O.3     1  LIG1       -0.3501
      6 C           2.9960   -2.1500    0.0000 C.3     1  LIG1        0.1636
      7 C           2.5000   -1.3040    0.0000 C.3     1  LIG1        0.1255
      8 C          -0.0380   -0.4500    0.0000 C.3     1  LIG1        0.0895
      9 C          -0.5290    0.4580    0.0000 C.3     1  LIG1        0.0322
     10 C          -1.0250   -0.4500    0.0000 C.3     1  LIG1        0.0318
     11 C          -2.0130   -0.4500    0.0000 C.3     1  LIG1        0.0932
     12 O          -2.5040    0.4580    0.0000 O.3     1  LIG1       -0.3585
     13 C          -2.0130    1.3000    0.0000 C.3     1  LIG1        0.1423
     14 C          -1.0250    1.3000    0.0000 C.3     1  LIG1        0.0367
     15 C          -1.5170   -1.3040    0.0000 C.3     1  LIG1        0.0296
     16 C          -3.0000   -0.4500    0.0000 C.3     1  LIG1        0.0296
     17 C          -0.0380    1.3000    0.0000 C.ar    1  LIG1       -0.0222
     18 C           0.9500    1.3000    0.0000 C.ar    1  LIG1       -0.0043
     19 C           1.5130    2.1540    0.0000 C.ar    1  LIG1       -0.0003
     20 C           0.9500    3.0000    0.0000 C.ar    1  LIG1       -0.0000
     21 C          -0.0380    3.0000    0.0000 C.ar    1  LIG1       -0.0003
     22 C          -0.5290    2.1540    0.0000 C.ar    1  LIG1       -0.0043
     23 O           1.5130    0.4580    0.0000 O.2     1  LIG1       -0.2749
@<TRIPOS>BOND
     1     1     2   am
     2     1     8    1
     3     1    23    2
     4     2     3    1
     5     2     7    1
     6     3     4    1
     7     4     5    1
     8     5     6    1
     9     6     7    1
    10     8     9    1
    11     9    10    1
    12     9    14    1
    13     9    17    1
    14    10    11    1
    15    11    12    1
    16    11    15    1
    17    11    16    1
    18    12    13    1
    19    13    14    1
    20    17    18   ar
    21    17    22   ar
    22    18    19   ar
    23    19    20   ar
    24    20    21   ar
    25    21    22   ar
