@<TRIPOS>MOLECULE
31489_ChemDiv_4896-3529
 29 33 0 0 0
SMALL
GASTEIGER
Energy = 0

@<TRIPOS>ATOM
      1 C          -0.0630    0.4540    0.0000 C.ar    1  LIG1        0.0420
      2 C           0.8000   -0.0420    0.0000 C.ar    1  LIG1        0.2110
      3 C           1.6670    0.4540    0.0000 C.ar    1  LIG1        0.1194
      4 N           2.5460   -0.0420    0.0000 N.ar    1  LIG1       -0.2464
      5 C           3.4080    0.4540    0.0000 C.ar    1  LIG1        0.0595
      6 C           3.4080    1.4710    0.0000 C.ar    1  LIG1        0.0148
      7 C           2.5460    1.9580    0.0000 C.ar    1  LIG1        0.0028
      8 C           1.6670    1.4710    0.0000 C.ar    1  LIG1        0.0208
      9 C           0.8000    1.9580    0.0000 C.ar    1  LIG1        0.0014
     10 C          -0.0630    1.4710    0.0000 C.ar    1  LIG1        0.0010
     11 C           4.2750   -0.0420    0.0000 C.3     1  LIG1        0.0521
     12 O           0.8000   -1.0380    0.0000 O.3     1  LIG1       -0.2852
     13 C          -0.9250   -0.0420    0.0000 C.3     1  LIG1        0.1416
     14 C          -1.7920    0.4540    0.0000 C.ar    1  LIG1        0.0048
     15 C          -1.7920    1.4540    0.0000 C.ar    1  LIG1        0.0379
     16 C          -2.6540    1.9580    0.0000 C.ar    1  LIG1        0.1762
     17 C          -3.5170    1.4540    0.0000 C.ar    1  LIG1        0.1764
     18 O          -4.2790    2.1330    0.0000 O.3     1  LIG1       -0.4346
     19 C          -3.8630    3.0380    0.0000 C.3     1  LIG1        0.4294
     20 O          -2.8670    2.9500    0.0000 O.3     1  LIG1       -0.4346
     21 C          -3.5170    0.4540    0.0000 C.ar    1  LIG1        0.0399
     22 C          -2.6540   -0.0420    0.0000 C.ar    1  LIG1        0.0010
     23 N          -0.9250   -1.0380    0.0000 N.pl3   1  LIG1       -0.2129
     24 C          -1.7920   -1.5380    0.0000 C.ar    1  LIG1        0.1481
     25 N          -1.7920   -2.5170    0.0000 N.ar    1  LIG1       -0.2277
     26 C          -2.6540   -3.0330    0.0000 C.ar    1  LIG1        0.1004
     27 C          -3.5170   -2.5330    0.0000 C.ar    1  LIG1        0.0208
     28 C          -3.5170   -1.5380    0.0000 C.ar    1  LIG1        0.0045
     29 C          -2.6540   -1.0380    0.0000 C.ar    1  LIG1        0.0358
@<TRIPOS>BOND
     1     1     2   ar
     2     1    10   ar
     3     1    13    1
     4     2     3   ar
     5     2    12    1
     6     3     4   ar
     7     3     8   ar
     8     4     5   ar
     9     5     6   ar
    10     5    11    1
    11     6     7   ar
    12     7     8   ar
    13     8     9   ar
    14     9    10   ar
    15    13    14    1
    16    13    23    1
    17    14    15   ar
    18    14    22   ar
    19    15    16   ar
    20    16    17   ar
    21    16    20    1
    22    17    18    1
    23    17    21   ar
    24    18    19    1
    25    19    20    1
    26    21    22   ar
    27    23    24    1
    28    24    25   ar
    29    24    29   ar
    30    25    26   ar
    31    26    27   ar
    32    27    28   ar
    33    28    29   ar
