@<TRIPOS>MOLECULE
31482_ChemDiv_8012-8621
 24 25 0 0 0
SMALL
GASTEIGER
Energy = 0

@<TRIPOS>ATOM
      1 C          -0.9790    0.7460    0.0000 C.3     1  LIG1        0.0253
      2 C          -1.4830   -0.1210    0.0000 C.3     1  LIG1        0.0314
      3 C          -2.4880   -0.1210    0.0000 C.3     1  LIG1        0.0932
      4 O          -2.9920    0.7630    0.0000 O.3     1  LIG1       -0.3585
      5 C          -2.4880    1.6250    0.0000 C.3     1  LIG1        0.1423
      6 C          -1.4830    1.6250    0.0000 C.3     1  LIG1        0.0362
      7 C          -2.4880   -1.1170    0.0000 C.3     1  LIG1        0.0296
      8 C          -3.3580   -0.6040    0.0000 C.3     1  LIG1        0.0296
      9 C          -0.1210    1.2580    0.0000 C.ar    1  LIG1       -0.0226
     10 C           0.7460    0.7670    0.0000 C.ar    1  LIG1       -0.0043
     11 C           1.6080    1.2830    0.0000 C.ar    1  LIG1       -0.0003
     12 C           1.5960    2.2630    0.0000 C.ar    1  LIG1       -0.0000
     13 C           0.7210    2.7500    0.0000 C.ar    1  LIG1       -0.0003
     14 C          -0.1460    2.2330    0.0000 C.ar    1  LIG1       -0.0043
     15 C          -0.1210    0.2580    0.0000 C.3     1  LIG1        0.0276
     16 C          -0.1210   -0.7420    0.0000 C.3     1  LIG1        0.1155
     17 N           0.7460   -1.2380    0.0000 N.am    1  LIG1       -0.2054
     18 C           0.7460   -2.2500    0.0000 C.2     1  LIG1        0.2417
     19 O          -0.1210   -2.7460    0.0000 O.2     1  LIG1       -0.2733
     20 C           1.6210   -2.7330    0.0000 C.3     1  LIG1        0.0927
     21 C           2.4830   -2.2380    0.0000 C.3     1  LIG1        0.0513
     22 C           2.4830   -1.2380    0.0000 C.2     1  LIG1        0.0508
     23 O           1.6210   -0.7420    0.0000 O.co2   1  LIG1       -0.5492
     24 O           3.3540   -0.7250    0.0000 O.co2   1  LIG1       -0.5492
@<TRIPOS>BOND
     1     1     2    1
     2     1     6    1
     3     1     9    1
     4     1    15    1
     5     2     3    1
     6     3     4    1
     7     3     7    1
     8     3     8    1
     9     4     5    1
    10     5     6    1
    11     9    10   ar
    12     9    14   ar
    13    10    11   ar
    14    11    12   ar
    15    12    13   ar
    16    13    14   ar
    17    15    16    1
    18    16    17    1
    19    17    18   am
    20    18    19    2
    21    18    20    1
    22    20    21    1
    23    21    22    1
    24    22    23   ar
    25    22    24   ar
