@<TRIPOS>MOLECULE
31491_ChemDiv_4900-0041
 19 22 0 0 0
SMALL
GASTEIGER
Energy = 0

@<TRIPOS>ATOM
      1 C           0.3880   -0.5750    0.0000 C.ar    1  LIG1        0.1430
      2 N          -0.3210   -1.2540    0.0000 N.ar    1  LIG1       -0.3172
      3 C          -1.2000   -0.6580    0.0000 C.ar    1  LIG1        0.0604
      4 C          -0.8750    0.3920    0.0000 C.ar    1  LIG1        0.0205
      5 C           0.1670    0.3920    0.0000 C.ar    1  LIG1        0.0263
      6 C          -1.5670    1.0420    0.0000 C.ar    1  LIG1        0.0384
      7 C          -2.5580    0.8210    0.0000 C.ar    1  LIG1        0.1388
      8 C          -2.8420   -0.1500    0.0000 C.ar    1  LIG1        0.0384
      9 C          -2.1460   -0.8670    0.0000 C.ar    1  LIG1        0.0203
     10 O          -3.2330    1.5460    0.0000 O.3     1  LIG1       -0.4714
     11 C          -2.9500    2.5040    0.0000 C.3     1  LIG1        0.2525
     12 C          -0.1040   -2.2040    0.0000 C.3     1  LIG1        0.1570
     13 C           0.8290   -2.5000    0.0000 C.3     1  LIG1        0.2269
     14 N           1.5330   -1.8210    0.0000 N.pl3   1  LIG1       -0.1875
     15 C           1.3290   -0.8460    0.0000 C.2     1  LIG1        0.3344
     16 N           2.0500   -0.1750    0.0000 N.2     1  LIG1       -0.0638
     17 C           2.9960   -0.4580    0.0000 C.3     1  LIG1        0.2675
     18 C           3.2290   -1.4330    0.0000 C.3     1  LIG1        0.1086
     19 C           2.4920   -2.1210    0.0000 C.3     1  LIG1        0.2070
@<TRIPOS>BOND
     1     1     2   ar
     2     1     5   ar
     3     1    15    1
     4     2     3   ar
     5     2    12    1
     6     3     4   ar
     7     3     9   ar
     8     4     5   ar
     9     4     6   ar
    10     6     7   ar
    11     7     8   ar
    12     7    10    1
    13     8     9   ar
    14    10    11    1
    15    12    13    1
    16    13    14    1
    17    14    15    1
    18    14    19    1
    19    15    16    2
    20    16    17    1
    21    17    18    1
    22    18    19    1
