@<TRIPOS>MOLECULE
31494_ChemDiv_5189-0548
 15 17 0 0 0
SMALL
GASTEIGER
Energy = 0

@<TRIPOS>ATOM
      1 N           0.9330    0.5040    0.0000 N.ar    1  LIG1       -0.2148
      2 C           0.9670   -0.4960    0.0000 C.ar    1  LIG1        0.4357
      3 N           0.0960   -1.0000    0.0000 N.ar    1  LIG1       -0.2533
      4 C          -0.7710   -0.4960    0.0000 C.ar    1  LIG1        0.0712
      5 C          -0.8080    0.4790    0.0000 C.ar    1  LIG1        0.0723
      6 C           0.0670    1.0000    0.0000 C.ar    1  LIG1        0.2679
      7 O           0.0670    2.0000    0.0000 O.2     1  LIG1       -0.2667
      8 C          -1.6750    0.9710    0.0000 C.ar    1  LIG1        0.0062
      9 C          -2.5040    0.4790    0.0000 C.ar    1  LIG1        0.0003
     10 C          -2.5040   -0.5290    0.0000 C.ar    1  LIG1        0.0015
     11 C          -1.6420   -1.0330    0.0000 C.ar    1  LIG1        0.0176
     12 C           0.1290   -1.9960    0.0000 C.3     1  LIG1        0.1380
     13 N           1.9330   -0.7670    0.0000 N.2     1  LIG1        0.0939
     14 C           2.5000    0.0380    0.0000 C.3     1  LIG1        0.4216
     15 C           1.9000    0.8380    0.0000 C.3     1  LIG1        0.2087
@<TRIPOS>BOND
     1     1     2   ar
     2     1     6   ar
     3     1    15    1
     4     2     3   ar
     5     2    13    2
     6     3     4   ar
     7     3    12    1
     8     4     5   ar
     9     4    11   ar
    10     5     6   ar
    11     5     8   ar
    12     6     7    2
    13     8     9   ar
    14     9    10   ar
    15    10    11   ar
    16    13    14    1
    17    14    15    1
