@<TRIPOS>MOLECULE
31490_ChemDiv_5184-0035
 29 32 0 0 0
SMALL
GASTEIGER
Energy = 0

@<TRIPOS>ATOM
      1 C          -1.4420   -0.6170    0.0000 C.3     1  LIG1        0.2217
      2 C          -0.9830   -1.4920    0.0000 C.2     1  LIG1        0.2614
      3 N          -1.6710   -2.2000    0.0000 N.am    1  LIG1       -0.2548
      4 C          -2.5500   -1.7710    0.0000 C.ar    1  LIG1        0.0527
      5 C          -2.4210   -0.7920    0.0000 C.ar    1  LIG1        0.0280
      6 C          -3.1920   -0.1750    0.0000 C.ar    1  LIG1        0.0065
      7 C          -4.0920   -0.5460    0.0000 C.ar    1  LIG1        0.0344
      8 C          -4.2420   -1.5330    0.0000 C.ar    1  LIG1        0.0080
      9 C          -3.4540   -2.1330    0.0000 C.ar    1  LIG1        0.0152
     10 BR         -4.8670    0.0630    0.0000 Br      1  LIG1       -0.0490
     11 C          -1.4960   -3.1790    0.0000 C.3     1  LIG1        0.1201
     12 O          -0.0080   -1.6380    0.0000 O.2     1  LIG1       -0.2715
     13 C          -0.3380    0.1290    0.0000 C.3     1  LIG1        0.1130
     14 C           0.6250   -0.3710    0.0000 C.2     1  LIG1        0.1826
     15 C           1.4540    0.1710    0.0000 C.ar    1  LIG1        0.1108
     16 C           1.4170    1.1580    0.0000 C.ar    1  LIG1        0.3486
     17 O           2.2290    1.6710    0.0000 O.2     1  LIG1       -0.4179
     18 C           3.1130    1.2290    0.0000 C.ar    1  LIG1        0.1823
     19 C           3.1500    0.2420    0.0000 C.ar    1  LIG1        0.0380
     20 C           2.3210   -0.2880    0.0000 C.ar    1  LIG1        0.0125
     21 C           4.0330   -0.2170    0.0000 C.ar    1  LIG1        0.0032
     22 C           4.8630    0.3080    0.0000 C.ar    1  LIG1        0.0033
     23 C           4.8250    1.2960    0.0000 C.ar    1  LIG1        0.0401
     24 C           3.9420    1.7540    0.0000 C.ar    1  LIG1        0.1731
     25 O           3.9000    2.7420    0.0000 O.3     1  LIG1       -0.4683
     26 C           3.0170    3.1830    0.0000 C.3     1  LIG1        0.2526
     27 O           0.5330    1.5880    0.0000 O.2     1  LIG1       -0.2444
     28 O           0.6500   -1.1880    0.0000 O.2     1  LIG1       -0.2910
     29 O          -1.7630    0.5000    0.0000 O.3     1  LIG1       -0.2113
@<TRIPOS>BOND
     1     1     2    1
     2     1     5    1
     3     1    13    1
     4     1    29    1
     5     2     3   am
     6     2    12    2
     7     3     4    1
     8     3    11    1
     9     4     5   ar
    10     4     9   ar
    11     5     6   ar
    12     6     7   ar
    13     7     8   ar
    14     7    10    1
    15     8     9   ar
    16    13    14    1
    17    14    15    1
    18    14    28    2
    19    15    16   ar
    20    15    20   ar
    21    16    17   ar
    22    16    27    2
    23    17    18   ar
    24    18    19   ar
    25    18    24   ar
    26    19    20   ar
    27    19    21   ar
    28    21    22   ar
    29    22    23   ar
    30    23    24   ar
    31    24    25    1
    32    25    26    1
