@<TRIPOS>MOLECULE
31499_ChemDiv_5233-2473
 22 24 0 0 0
SMALL
GASTEIGER
Energy = 0

@<TRIPOS>ATOM
      1 C          -0.8750    0.7500    0.0000 C.ar    1  LIG1        0.1734
      2 N          -0.0040    1.2540    0.0000 N.ar    1  LIG1       -0.1314
      3 N          -0.0040    2.2500    0.0000 N.ar    1  LIG1       -0.1511
      4 C          -0.8750    2.7460    0.0000 C.ar    1  LIG1        0.0810
      5 C          -1.7380    2.2500    0.0000 C.ar    1  LIG1        0.0181
      6 C          -1.7380    1.2540    0.0000 C.ar    1  LIG1        0.0363
      7 C          -2.5920    0.7500    0.0000 C.ar    1  LIG1        0.0029
      8 C          -3.4630    1.2540    0.0000 C.ar    1  LIG1        0.0001
      9 C          -3.4630    2.2500    0.0000 C.ar    1  LIG1        0.0000
     10 C          -2.5920    2.7460    0.0000 C.ar    1  LIG1        0.0013
     11 C          -0.8750    3.7460    0.0000 C.3     1  LIG1        0.0540
     12 N          -0.8750   -0.2460    0.0000 N.pl3   1  LIG1       -0.1927
     13 C          -0.0040   -0.7420    0.0000 C.ar    1  LIG1        0.0722
     14 C          -0.0130   -1.7460    0.0000 C.ar    1  LIG1        0.0162
     15 C           0.8580   -2.2540    0.0000 C.ar    1  LIG1       -0.0024
     16 C           1.7250   -1.7460    0.0000 C.ar    1  LIG1       -0.0129
     17 C           2.5960   -2.2460    0.0000 C.3     1  LIG1        0.1148
     18 C           2.5960   -3.2420    0.0000 C.2     1  LIG1        0.2652
     19 O           3.4580   -3.7420    0.0000 O.2     1  LIG1       -0.2713
     20 N           1.7250   -3.7420    0.0000 N.am    1  LIG1       -0.0875
     21 C           1.7250   -0.7420    0.0000 C.ar    1  LIG1       -0.0024
     22 C           0.8580   -0.2460    0.0000 C.ar    1  LIG1        0.0162
@<TRIPOS>BOND
     1     1     2   ar
     2     1     6   ar
     3     1    12    1
     4     2     3   ar
     5     3     4   ar
     6     4     5   ar
     7     4    11    1
     8     5     6   ar
     9     5    10   ar
    10     6     7   ar
    11     7     8   ar
    12     8     9   ar
    13     9    10   ar
    14    12    13    1
    15    13    14   ar
    16    13    22   ar
    17    14    15   ar
    18    15    16   ar
    19    16    17    1
    20    16    21   ar
    21    17    18    1
    22    18    19    2
    23    18    20   am
    24    21    22   ar
