@<TRIPOS>MOLECULE
31493_ChemDiv_4901-0320
 20 22 0 0 0
SMALL
GASTEIGER
Energy = 0

@<TRIPOS>ATOM
      1 C          -0.7750   -2.5460    0.0000 C.ar    1  LIG1        0.1862
      2 C          -0.7750   -1.5460    0.0000 C.ar    1  LIG1        0.0729
      3 C           0.1750   -1.2380    0.0000 C.ar    1  LIG1        0.2086
      4 N           0.7540   -2.0420    0.0000 N.ar    1  LIG1       -0.1251
      5 N           0.1750   -2.8420    0.0000 N.ar    1  LIG1       -0.1269
      6 N           0.5000   -0.2920    0.0000 N.2     1  LIG1       -0.1111
      7 N           1.4880   -0.0880    0.0000 N.2     1  LIG1       -0.0756
      8 N           1.8170    0.8420    0.0000 N.pl3   1  LIG1       -0.2151
      9 C           2.7960    0.8960    0.0000 C.3     1  LIG1        0.1126
     10 C           3.4000    1.6960    0.0000 C.3     1  LIG1        0.0232
     11 C           3.1250    2.6710    0.0000 C.3     1  LIG1        0.0019
     12 C           2.2170    3.0500    0.0000 C.3     1  LIG1        0.0019
     13 C           1.3380    2.5750    0.0000 C.3     1  LIG1        0.0232
     14 C           1.1540    1.6040    0.0000 C.3     1  LIG1        0.1126
     15 C          -1.6500   -1.0380    0.0000 C.ar    1  LIG1       -0.0146
     16 C          -2.5250   -1.5460    0.0000 C.ar    1  LIG1        0.0107
     17 C          -2.5250   -2.5460    0.0000 C.ar    1  LIG1        0.0608
     18 N          -1.6500   -3.0460    0.0000 N.ar    1  LIG1       -0.2294
     19 C          -3.4040   -3.0460    0.0000 C.3     1  LIG1        0.0521
     20 C          -1.6500   -0.0380    0.0000 C.3     1  LIG1        0.0313
@<TRIPOS>BOND
     1     1     2   ar
     2     1     5   ar
     3     1    18   ar
     4     2     3   ar
     5     2    15   ar
     6     3     4   ar
     7     3     6    1
     8     4     5   ar
     9     6     7    2
    10     7     8    1
    11     8     9    1
    12     8    14    1
    13     9    10    1
    14    10    11    1
    15    11    12    1
    16    12    13    1
    17    13    14    1
    18    15    16   ar
    19    15    20    1
    20    16    17   ar
    21    17    18   ar
    22    17    19    1
