@<TRIPOS>MOLECULE
31492_ChemDiv_5186-0452
 30 33 0 0 0
SMALL
GASTEIGER
Energy = 0

@<TRIPOS>ATOM
      1 S           3.2040    0.3500    0.0000 S.O2    1  LIG1       -0.0568
      2 N           3.2670   -0.6500    0.0000 N.pl3   1  LIG1       -0.5179
      3 C           4.1630   -1.0750    0.0000 C.ar    1  LIG1        0.0161
      4 N           4.3290   -2.0710    0.0000 N.ar    1  LIG1       -0.1014
      5 O           5.3290   -2.2170    0.0000 O.2     1  LIG1       -0.3596
      6 C           5.7710   -1.3210    0.0000 C.ar    1  LIG1        0.1529
      7 C           5.0750   -0.6290    0.0000 C.ar    1  LIG1        0.0338
      8 C           6.7710   -1.1330    0.0000 C.3     1  LIG1        0.0753
      9 C           2.3000    0.7880    0.0000 C.ar    1  LIG1        0.0894
     10 C           2.2380    1.7670    0.0000 C.ar    1  LIG1        0.0182
     11 C           1.3250    2.2210    0.0000 C.ar    1  LIG1        0.0178
     12 C           0.4920    1.6790    0.0000 C.ar    1  LIG1        0.0727
     13 N          -0.4040    2.1000    0.0000 N.pl3   1  LIG1       -0.1886
     14 C          -1.2210    1.5540    0.0000 C.ar    1  LIG1        0.1834
     15 N          -2.1580    1.8880    0.0000 N.ar    1  LIG1       -0.2225
     16 C          -2.7710    1.1210    0.0000 C.ar    1  LIG1        0.0929
     17 C          -3.7710    1.1540    0.0000 C.ar    1  LIG1        0.0573
     18 C          -4.3250    0.3210    0.0000 C.ar    1  LIG1        0.2003
     19 C          -5.3290    0.3420    0.0000 C.ar    1  LIG1        0.0840
     20 C          -5.7750    1.2420    0.0000 C.ar    1  LIG1        0.1989
     21 C          -5.2460    2.0750    0.0000 C.ar    1  LIG1        0.0423
     22 C          -4.2630    2.0170    0.0000 C.ar    1  LIG1        0.0080
     23 O          -6.7710    1.2880    0.0000 O.3     1  LIG1       -0.2865
     24 O          -3.8460   -0.5670    0.0000 O.3     1  LIG1       -0.2864
     25 C          -2.2420    0.2670    0.0000 C.ar    1  LIG1        0.0574
     26 S          -1.2630    0.5500    0.0000 S.2     1  LIG1       -0.0492
     27 C           0.5670    0.6750    0.0000 C.ar    1  LIG1        0.0178
     28 C           1.4670    0.2380    0.0000 C.ar    1  LIG1        0.0182
     29 O           4.0370    0.9250    0.0000 O.2     1  LIG1       -0.1841
     30 O           2.5500   -0.4080    0.0000 O.2     1  LIG1       -0.1841
@<TRIPOS>BOND
     1     1     2    1
     2     1     9    1
     3     1    29    2
     4     1    30    2
     5     2     3    1
     6     3     4   ar
     7     3     7   ar
     8     4     5   ar
     9     5     6   ar
    10     6     7   ar
    11     6     8    1
    12     9    10   ar
    13     9    28   ar
    14    10    11   ar
    15    11    12   ar
    16    12    13    1
    17    12    27   ar
    18    13    14    1
    19    14    15   ar
    20    14    26   ar
    21    15    16   ar
    22    16    17    1
    23    16    25   ar
    24    17    18   ar
    25    17    22   ar
    26    18    19   ar
    27    18    24    1
    28    19    20   ar
    29    20    21   ar
    30    20    23    1
    31    21    22   ar
    32    25    26   ar
    33    27    28   ar
