@<TRIPOS>MOLECULE
31495_ChemDiv_4903-2204
 33 36 0 0 0
SMALL
GASTEIGER
Energy = 0

@<TRIPOS>ATOM
      1 S           0.9460   -0.2290    0.0000 S.O2    1  LIG1       -0.0581
      2 C           0.0330   -0.7710    0.0000 C.ar    1  LIG1        0.0854
      3 C           0.0000   -1.7750    0.0000 C.ar    1  LIG1        0.0181
      4 C          -0.8540   -2.2790    0.0000 C.ar    1  LIG1        0.0206
      5 C          -0.8540   -3.2500    0.0000 C.ar    1  LIG1        0.1031
      6 N           0.0000   -3.7630    0.0000 N.ar    1  LIG1       -0.1449
      7 N           0.0000   -4.8000    0.0000 N.ar    1  LIG1       -0.1055
      8 C          -0.8540   -5.2710    0.0000 C.ar    1  LIG1        0.2967
      9 C          -1.7000   -4.7670    0.0000 C.ar    1  LIG1        0.0608
     10 C          -1.7000   -3.7630    0.0000 C.ar    1  LIG1        0.0241
     11 C          -2.5830   -3.2500    0.0000 C.ar    1  LIG1        0.0017
     12 C          -3.4330   -3.7630    0.0000 C.ar    1  LIG1        0.0001
     13 C          -3.4330   -4.8000    0.0000 C.ar    1  LIG1        0.0002
     14 C          -2.5830   -5.2710    0.0000 C.ar    1  LIG1        0.0049
     15 O          -0.8250   -6.2830    0.0000 O.2     1  LIG1       -0.2636
     16 C          -1.7000   -1.7750    0.0000 C.ar    1  LIG1        0.0013
     17 C          -1.7000   -0.7710    0.0000 C.ar    1  LIG1       -0.0030
     18 C          -0.8540   -0.2580    0.0000 C.ar    1  LIG1       -0.0061
     19 C          -0.8540    0.7460    0.0000 C.3     1  LIG1        0.0323
     20 N           1.8250    0.2750    0.0000 N.pl3   1  LIG1       -0.5358
     21 C           1.8250    1.2790    0.0000 C.ar    1  LIG1       -0.1121
     22 C           0.9790    1.7920    0.0000 C.ar    1  LIG1       -0.0207
     23 C           0.9790    2.7630    0.0000 C.ar    1  LIG1        0.0351
     24 C           1.8250    3.2670    0.0000 C.ar    1  LIG1        0.1392
     25 O           1.8130    4.2540    0.0000 O.3     1  LIG1       -0.4655
     26 C           2.6330    4.7790    0.0000 C.3     1  LIG1        0.2929
     27 C           2.6000    5.7580    0.0000 C.2     1  LIG1        0.3052
     28 O           1.7330    6.1920    0.0000 O.2     1  LIG1       -0.2676
     29 N           3.4290    6.2830    0.0000 N.am    1  LIG1       -0.0845
     30 C           2.7130    2.7630    0.0000 C.ar    1  LIG1        0.0351
     31 C           2.6790    1.7500    0.0000 C.ar    1  LIG1       -0.0207
     32 O           0.4330    0.6500    0.0000 O.2     1  LIG1       -0.1842
     33 O           1.4500   -1.1420    0.0000 O.2     1  LIG1       -0.1842
@<TRIPOS>BOND
     1     1     2    1
     2     1    20    1
     3     1    32    2
     4     1    33    2
     5     2     3   ar
     6     2    18   ar
     7     3     4   ar
     8     4     5    1
     9     4    16   ar
    10     5     6   ar
    11     5    10   ar
    12     6     7   ar
    13     7     8   ar
    14     8     9   ar
    15     8    15    2
    16     9    10   ar
    17     9    14   ar
    18    10    11   ar
    19    11    12   ar
    20    12    13   ar
    21    13    14   ar
    22    16    17   ar
    23    17    18   ar
    24    18    19    1
    25    20    21    1
    26    21    22   ar
    27    21    31   ar
    28    22    23   ar
    29    23    24   ar
    30    24    25    1
    31    24    30   ar
    32    25    26    1
    33    26    27    1
    34    27    28    2
    35    27    29   am
    36    30    31   ar
