@<TRIPOS>MOLECULE
31496_ChemDiv_5196-0076
 26 29 0 0 0
SMALL
GASTEIGER
Energy = 0

@<TRIPOS>ATOM
      1 C          -0.4500    1.1040    0.0000 C.ar    1  LIG1        0.1144
      2 N          -1.4210    1.3920    0.0000 N.ar    1  LIG1       -0.2682
      3 C          -1.4210    2.4080    0.0000 C.ar    1  LIG1        0.2374
      4 N          -0.4830    2.7380    0.0000 N.ar    1  LIG1       -0.2091
      5 C           0.1290    1.9080    0.0000 C.ar    1  LIG1        0.1067
      6 C           1.1130    1.9080    0.0000 C.ar    1  LIG1        0.0197
      7 C           1.6210    1.0580    0.0000 C.ar    1  LIG1        0.0016
      8 C           2.6170    1.0380    0.0000 C.ar    1  LIG1        0.0000
      9 C           3.1420    1.8920    0.0000 C.ar    1  LIG1        0.0000
     10 C           2.6290    2.7580    0.0000 C.ar    1  LIG1        0.0000
     11 C           1.6330    2.7630    0.0000 C.ar    1  LIG1        0.0016
     12 N          -2.2880    2.9040    0.0000 N.ar    1  LIG1       -0.2095
     13 C          -3.1460    2.3960    0.0000 C.ar    1  LIG1        0.1036
     14 C          -3.1460    1.3920    0.0000 C.ar    1  LIG1        0.0398
     15 C          -2.2880    0.8830    0.0000 C.ar    1  LIG1        0.0850
     16 S          -0.1290    0.1670    0.0000 S.3     1  LIG1       -0.0677
     17 C          -0.7710   -0.6000    0.0000 C.ar    1  LIG1        0.0371
     18 C          -0.4630   -1.5330    0.0000 C.ar    1  LIG1        0.0817
     19 C           0.5210   -1.7040    0.0000 C.2     1  LIG1        0.3418
     20 O           1.1750   -0.9290    0.0000 O.2     1  LIG1       -0.2449
     21 O           0.7670   -2.6420    0.0000 O.3     1  LIG1       -0.4413
     22 C           1.7330   -2.9000    0.0000 C.3     1  LIG1        0.2560
     23 C          -1.1040   -2.2880    0.0000 C.ar    1  LIG1        0.0069
     24 C          -2.0830   -2.1290    0.0000 C.ar    1  LIG1        0.0002
     25 C          -2.4250   -1.1750    0.0000 C.ar    1  LIG1        0.0005
     26 C          -1.7790   -0.4130    0.0000 C.ar    1  LIG1        0.0067
@<TRIPOS>BOND
     1     1     2   ar
     2     1     5   ar
     3     1    16    1
     4     2     3   ar
     5     2    15   ar
     6     3     4   ar
     7     3    12   ar
     8     4     5   ar
     9     5     6    1
    10     6     7   ar
    11     6    11   ar
    12     7     8   ar
    13     8     9   ar
    14     9    10   ar
    15    10    11   ar
    16    12    13   ar
    17    13    14   ar
    18    14    15   ar
    19    16    17    1
    20    17    18   ar
    21    17    26   ar
    22    18    19    1
    23    18    23   ar
    24    19    20    2
    25    19    21    1
    26    21    22    1
    27    23    24   ar
    28    24    25   ar
    29    25    26   ar
