@<TRIPOS>MOLECULE
31503_ChemDiv_4903-2273
 26 28 0 0 0
SMALL
GASTEIGER
Energy = 0

@<TRIPOS>ATOM
      1 S           0.8790    2.3130    0.0000 S.O2    1  LIG1        0.0766
      2 C          -0.0330    1.8130    0.0000 C.ar    1  LIG1        0.1196
      3 C          -0.0630    0.8080    0.0000 C.ar    1  LIG1        0.0212
      4 C          -0.9330    0.3080    0.0000 C.ar    1  LIG1        0.0207
      5 C          -0.9330   -0.7210    0.0000 C.ar    1  LIG1        0.1031
      6 N          -0.0630   -1.2250    0.0000 N.ar    1  LIG1       -0.1451
      7 N          -0.0630   -2.2250    0.0000 N.ar    1  LIG1       -0.1103
      8 C          -0.9330   -2.7290    0.0000 C.ar    1  LIG1        0.2438
      9 C          -1.7670   -2.2250    0.0000 C.ar    1  LIG1        0.0562
     10 C          -1.7670   -1.2250    0.0000 C.ar    1  LIG1        0.0239
     11 C          -2.6290   -0.7210    0.0000 C.ar    1  LIG1        0.0017
     12 C          -3.5000   -1.2250    0.0000 C.ar    1  LIG1        0.0001
     13 C          -3.5000   -2.2250    0.0000 C.ar    1  LIG1        0.0002
     14 C          -2.6290   -2.7290    0.0000 C.ar    1  LIG1        0.0047
     15 O          -0.9330   -3.7290    0.0000 O.3     1  LIG1       -0.4552
     16 C          -1.7670   -4.2330    0.0000 C.3     1  LIG1        0.2543
     17 C          -1.7670    0.8080    0.0000 C.ar    1  LIG1        0.0013
     18 C          -1.7670    1.8130    0.0000 C.ar    1  LIG1       -0.0029
     19 C          -0.9330    2.3130    0.0000 C.ar    1  LIG1       -0.0032
     20 C          -0.9580    3.3170    0.0000 C.3     1  LIG1        0.0324
     21 O           1.3460    1.4080    0.0000 O.2     1  LIG1       -0.1516
     22 O           0.3790    3.1830    0.0000 O.2     1  LIG1       -0.1516
     23 N           1.7790    2.7880    0.0000 N.3     1  LIG1       -0.0750
     24 C           1.8000    3.7710    0.0000 C.3     1  LIG1        0.1509
     25 C           2.6630    4.2330    0.0000 C.3     1  LIG1        0.2028
     26 O           3.4960    3.7130    0.0000 O.3     1  LIG1       -0.2187
@<TRIPOS>BOND
     1     1     2    1
     2     1    21    2
     3     1    22    2
     4     1    23    1
     5     2     3   ar
     6     2    19   ar
     7     3     4   ar
     8     4     5    1
     9     4    17   ar
    10     5     6   ar
    11     5    10   ar
    12     6     7   ar
    13     7     8   ar
    14     8     9   ar
    15     8    15    1
    16     9    10   ar
    17     9    14   ar
    18    10    11   ar
    19    11    12   ar
    20    12    13   ar
    21    13    14   ar
    22    15    16    1
    23    17    18   ar
    24    18    19   ar
    25    19    20    1
    26    23    24    1
    27    24    25    1
    28    25    26    1
