@<TRIPOS>MOLECULE
31501_ChemDiv_4903-2270
 26 28 0 0 0
SMALL
GASTEIGER
Energy = 0

@<TRIPOS>ATOM
      1 S           1.3040    2.2830    0.0000 S.O2    1  LIG1        0.0765
      2 C           0.3960    1.7830    0.0000 C.ar    1  LIG1        0.1196
      3 C           0.3670    0.7830    0.0000 C.ar    1  LIG1        0.0212
      4 C          -0.5040    0.2790    0.0000 C.ar    1  LIG1        0.0207
      5 C          -0.5040   -0.7500    0.0000 C.ar    1  LIG1        0.1031
      6 N           0.3670   -1.2500    0.0000 N.ar    1  LIG1       -0.1451
      7 N           0.3670   -2.2500    0.0000 N.ar    1  LIG1       -0.1103
      8 C          -0.5040   -2.7540    0.0000 C.ar    1  LIG1        0.2438
      9 C          -1.3380   -2.2500    0.0000 C.ar    1  LIG1        0.0562
     10 C          -1.3380   -1.2500    0.0000 C.ar    1  LIG1        0.0239
     11 C          -2.2000   -0.7500    0.0000 C.ar    1  LIG1        0.0017
     12 C          -3.0710   -1.2500    0.0000 C.ar    1  LIG1        0.0001
     13 C          -3.0710   -2.2500    0.0000 C.ar    1  LIG1        0.0002
     14 C          -2.2000   -2.7540    0.0000 C.ar    1  LIG1        0.0047
     15 O          -0.5040   -3.7540    0.0000 O.3     1  LIG1       -0.4552
     16 C          -1.3380   -4.2540    0.0000 C.3     1  LIG1        0.2543
     17 C          -1.3380    0.7830    0.0000 C.ar    1  LIG1        0.0013
     18 C          -1.3380    1.7830    0.0000 C.ar    1  LIG1       -0.0029
     19 C          -0.5040    2.2830    0.0000 C.ar    1  LIG1       -0.0032
     20 C          -0.5290    3.2880    0.0000 C.3     1  LIG1        0.0324
     21 N           2.2040    2.7580    0.0000 N.3     1  LIG1       -0.0793
     22 C           2.2040    3.7580    0.0000 C.3     1  LIG1        0.0978
     23 C           3.0670    4.2540    0.0000 C.3     1  LIG1        0.0208
     24 C           1.3540    4.2330    0.0000 C.3     1  LIG1        0.0208
     25 O           1.7710    1.3790    0.0000 O.2     1  LIG1       -0.1516
     26 O           0.8040    3.1540    0.0000 O.2     1  LIG1       -0.1516
@<TRIPOS>BOND
     1     1     2    1
     2     1    21    1
     3     1    25    2
     4     1    26    2
     5     2     3   ar
     6     2    19   ar
     7     3     4   ar
     8     4     5    1
     9     4    17   ar
    10     5     6   ar
    11     5    10   ar
    12     6     7   ar
    13     7     8   ar
    14     8     9   ar
    15     8    15    1
    16     9    10   ar
    17     9    14   ar
    18    10    11   ar
    19    11    12   ar
    20    12    13   ar
    21    13    14   ar
    22    15    16    1
    23    17    18   ar
    24    18    19   ar
    25    19    20    1
    26    21    22    1
    27    22    23    1
    28    22    24    1
