@<TRIPOS>MOLECULE
31521_ChemDiv_4903-2275
 28 30 0 0 0
SMALL
GASTEIGER
Energy = 0

@<TRIPOS>ATOM
      1 S           1.2880    1.8250    0.0000 S.O2    1  LIG1        0.0766
      2 C           0.3750    1.3250    0.0000 C.ar    1  LIG1        0.1196
      3 C           0.3460    0.3210    0.0000 C.ar    1  LIG1        0.0212
      4 C          -0.5250   -0.1830    0.0000 C.ar    1  LIG1        0.0207
      5 C          -0.5250   -1.2170    0.0000 C.ar    1  LIG1        0.1031
      6 N           0.3460   -1.7170    0.0000 N.ar    1  LIG1       -0.1451
      7 N           0.3460   -2.7250    0.0000 N.ar    1  LIG1       -0.1103
      8 C          -0.5250   -3.2250    0.0000 C.ar    1  LIG1        0.2438
      9 C          -1.3630   -2.7250    0.0000 C.ar    1  LIG1        0.0562
     10 C          -1.3630   -1.7170    0.0000 C.ar    1  LIG1        0.0239
     11 C          -2.2290   -1.2170    0.0000 C.ar    1  LIG1        0.0017
     12 C          -3.1000   -1.7170    0.0000 C.ar    1  LIG1        0.0001
     13 C          -3.1000   -2.7250    0.0000 C.ar    1  LIG1        0.0002
     14 C          -2.2290   -3.2250    0.0000 C.ar    1  LIG1        0.0047
     15 O          -0.5250   -4.2290    0.0000 O.3     1  LIG1       -0.4552
     16 C          -1.3630   -4.7330    0.0000 C.3     1  LIG1        0.2543
     17 C          -1.3630    0.3210    0.0000 C.ar    1  LIG1        0.0013
     18 C          -1.3630    1.3250    0.0000 C.ar    1  LIG1       -0.0029
     19 C          -0.5250    1.8250    0.0000 C.ar    1  LIG1       -0.0032
     20 C          -0.5540    2.8330    0.0000 C.3     1  LIG1        0.0324
     21 N           2.1880    2.3000    0.0000 N.3     1  LIG1       -0.0766
     22 C           2.2080    3.2830    0.0000 C.3     1  LIG1        0.1305
     23 C           1.3710    3.7540    0.0000 C.3     1  LIG1        0.2012
     24 O           1.3790    4.7330    0.0000 O.3     1  LIG1       -0.2188
     25 C           3.0750    3.7540    0.0000 C.3     1  LIG1        0.0220
     26 C           3.0960    4.7330    0.0000 C.3     1  LIG1        0.0016
     27 O           1.7580    0.9210    0.0000 O.2     1  LIG1       -0.1516
     28 O           0.7880    2.7000    0.0000 O.2     1  LIG1       -0.1516
@<TRIPOS>BOND
     1     1     2    1
     2     1    21    1
     3     1    27    2
     4     1    28    2
     5     2     3   ar
     6     2    19   ar
     7     3     4   ar
     8     4     5    1
     9     4    17   ar
    10     5     6   ar
    11     5    10   ar
    12     6     7   ar
    13     7     8   ar
    14     8     9   ar
    15     8    15    1
    16     9    10   ar
    17     9    14   ar
    18    10    11   ar
    19    11    12   ar
    20    12    13   ar
    21    13    14   ar
    22    15    16    1
    23    17    18   ar
    24    18    19   ar
    25    19    20    1
    26    21    22    1
    27    22    23    1
    28    22    25    1
    29    23    24    1
    30    25    26    1
