@<TRIPOS>MOLECULE
31523_ChemDiv_5498-2535
 31 34 0 0 0
SMALL
GASTEIGER
Energy = 0

@<TRIPOS>ATOM
      1 S           0.4630    2.0080    0.0000 S.O2    1  LIG1        0.0768
      2 C          -0.4670    1.4750    0.0000 C.ar    1  LIG1        0.1196
      3 C          -0.4670    0.4750    0.0000 C.ar    1  LIG1        0.0212
      4 C          -1.3130   -0.0130    0.0000 C.ar    1  LIG1        0.0207
      5 C          -1.3130   -1.0290    0.0000 C.ar    1  LIG1        0.1031
      6 N          -0.4670   -1.5130    0.0000 N.ar    1  LIG1       -0.1451
      7 N          -0.4670   -2.5630    0.0000 N.ar    1  LIG1       -0.1103
      8 C          -1.3130   -3.0580    0.0000 C.ar    1  LIG1        0.2437
      9 C          -2.1670   -2.5630    0.0000 C.ar    1  LIG1        0.0562
     10 C          -2.1670   -1.5460    0.0000 C.ar    1  LIG1        0.0239
     11 C          -3.0580   -1.0290    0.0000 C.ar    1  LIG1        0.0017
     12 C          -3.8960   -1.5130    0.0000 C.ar    1  LIG1        0.0001
     13 C          -3.8960   -2.5630    0.0000 C.ar    1  LIG1        0.0002
     14 C          -3.0580   -3.0580    0.0000 C.ar    1  LIG1        0.0047
     15 O          -1.3130   -4.0500    0.0000 O.3     1  LIG1       -0.4593
     16 C          -2.1420   -4.5330    0.0000 C.3     1  LIG1        0.2073
     17 C          -2.1420   -5.5080    0.0000 C.3     1  LIG1        0.0512
     18 C          -2.1880    0.5080    0.0000 C.ar    1  LIG1        0.0013
     19 C          -2.1880    1.4750    0.0000 C.ar    1  LIG1       -0.0029
     20 C          -1.3130    1.9790    0.0000 C.ar    1  LIG1       -0.0032
     21 C          -1.3130    2.9750    0.0000 C.3     1  LIG1        0.0324
     22 N           1.3290    2.5130    0.0000 N.3     1  LIG1       -0.0729
     23 C           1.3290    3.5330    0.0000 C.3     1  LIG1        0.1433
     24 C           2.2170    4.0210    0.0000 C.ar    1  LIG1        0.0163
     25 C           3.0580    3.5330    0.0000 C.ar    1  LIG1        0.0960
     26 N           3.8920    4.0000    0.0000 N.ar    1  LIG1       -0.2426
     27 C           3.8920    5.0250    0.0000 C.ar    1  LIG1        0.0989
     28 C           3.0580    5.5080    0.0000 C.ar    1  LIG1        0.0204
     29 C           2.2170    5.0250    0.0000 C.ar    1  LIG1        0.0003
     30 O          -0.0710    2.9080    0.0000 O.2     1  LIG1       -0.1516
     31 O           0.9460    1.1380    0.0000 O.2     1  LIG1       -0.1516
@<TRIPOS>BOND
     1     1     2    1
     2     1    22    1
     3     1    30    2
     4     1    31    2
     5     2     3   ar
     6     2    20   ar
     7     3     4   ar
     8     4     5    1
     9     4    18   ar
    10     5     6   ar
    11     5    10   ar
    12     6     7   ar
    13     7     8   ar
    14     8     9   ar
    15     8    15    1
    16     9    10   ar
    17     9    14   ar
    18    10    11   ar
    19    11    12   ar
    20    12    13   ar
    21    13    14   ar
    22    15    16    1
    23    16    17    1
    24    18    19   ar
    25    19    20   ar
    26    20    21    1
    27    22    23    1
    28    23    24    1
    29    24    25   ar
    30    24    29   ar
    31    25    26   ar
    32    26    27   ar
    33    27    28   ar
    34    28    29   ar
