@<TRIPOS>MOLECULE
31525_ChemDiv_4904-4315
 23 27 0 0 0
SMALL
GASTEIGER
Energy = 0

@<TRIPOS>ATOM
      1 N           0.6880    0.5380    0.0000 N.ar    1  LIG1       -0.1946
      2 C           1.2290   -0.2960    0.0000 C.ar    1  LIG1        0.2354
      3 C           2.2330   -0.3380    0.0000 C.3     1  LIG1        0.0714
      4 C           2.2330    0.6710    0.0000 C.3     1  LIG1        0.0088
      5 C           3.1460    1.0250    0.0000 C.3     1  LIG1        0.0005
      6 C           4.0250    0.7210    0.0000 C.3     1  LIG1        0.0000
      7 C           4.0250   -0.2460    0.0000 C.3     1  LIG1        0.0005
      8 C           3.1670   -0.5540    0.0000 C.3     1  LIG1        0.0088
      9 C           4.8000   -1.0580    0.0000 C.3     1  LIG1        0.0000
     10 C           3.8210   -0.7880    0.0000 C.3     1  LIG1        0.0005
     11 C           2.9040   -1.1580    0.0000 C.3     1  LIG1        0.0088
     12 C           3.8380    0.2210    0.0000 C.3     1  LIG1        0.0000
     13 O           0.6210   -1.0750    0.0000 O.2     1  LIG1       -0.3374
     14 N          -0.3170   -0.7210    0.0000 N.ar    1  LIG1       -0.0603
     15 C          -0.2790    0.2670    0.0000 C.ar    1  LIG1        0.1848
     16 C          -1.0540    0.8920    0.0000 C.3     1  LIG1        0.0955
     17 C          -1.9960    0.5380    0.0000 C.ar    1  LIG1       -0.0144
     18 C          -2.1460   -0.4540    0.0000 C.ar    1  LIG1       -0.0030
     19 C          -3.0830   -0.8040    0.0000 C.ar    1  LIG1        0.0111
     20 C          -3.8670   -0.1830    0.0000 C.ar    1  LIG1        0.0577
     21 CL         -4.8040   -0.5540    0.0000 Cl      1  LIG1       -0.0822
     22 C          -3.7130    0.8040    0.0000 C.ar    1  LIG1        0.0111
     23 C          -2.7750    1.1630    0.0000 C.ar    1  LIG1       -0.0030
@<TRIPOS>BOND
     1     1     2   ar
     2     1    15   ar
     3     2     3    1
     4     2    13   ar
     5     3     4    1
     6     3     8    1
     7     3    11    1
     8     4     5    1
     9     5     6    1
    10     5    12    1
    11     6     7    1
    12     7     8    1
    13     7     9    1
    14     9    10    1
    15    10    11    1
    16    10    12    1
    17    13    14   ar
    18    14    15   ar
    19    15    16    1
    20    16    17    1
    21    17    18   ar
    22    17    23   ar
    23    18    19   ar
    24    19    20   ar
    25    20    21    1
    26    20    22   ar
    27    22    23   ar
