@<TRIPOS>MOLECULE
31536_ChemDiv_5215-0152
 26 29 0 0 0
SMALL
GASTEIGER
Energy = 0

@<TRIPOS>ATOM
      1 N          -2.1960   -0.5000    0.0000 N.am    1  LIG1       -0.2194
      2 C          -1.3330   -0.9960    0.0000 C.2     1  LIG1        0.3351
      3 N          -0.3920   -0.4540    0.0000 N.am    1  LIG1       -0.1617
      4 C           0.4710   -0.9380    0.0000 C.ar    1  LIG1        0.0751
      5 C           0.4710   -1.9380    0.0000 C.ar    1  LIG1        0.0198
      6 C           1.3250   -2.4290    0.0000 C.ar    1  LIG1        0.0382
      7 C           2.1920   -1.9460    0.0000 C.ar    1  LIG1        0.1386
      8 C           2.1920   -0.9500    0.0000 C.ar    1  LIG1        0.0382
      9 C           1.3290   -0.4460    0.0000 C.ar    1  LIG1        0.0198
     10 O           3.0500   -2.4540    0.0000 O.3     1  LIG1       -0.4755
     11 C           3.9170   -1.9500    0.0000 C.3     1  LIG1        0.2055
     12 C           4.7750   -2.4580    0.0000 C.3     1  LIG1        0.0512
     13 O          -1.3460   -2.0920    0.0000 O.2     1  LIG1       -0.2497
     14 C          -2.1920    0.4960    0.0000 C.ar    1  LIG1        0.0656
     15 C          -3.0540    1.0000    0.0000 C.ar    1  LIG1        0.0435
     16 S          -3.9170    0.5080    0.0000 S.3     1  LIG1       -0.0844
     17 C          -3.9170   -0.4830    0.0000 C.ar    1  LIG1        0.0435
     18 C          -3.0540   -0.9920    0.0000 C.ar    1  LIG1        0.0656
     19 C          -3.0580   -1.9830    0.0000 C.ar    1  LIG1        0.0158
     20 C          -3.9210   -2.4750    0.0000 C.ar    1  LIG1        0.0013
     21 C          -4.7790   -1.9670    0.0000 C.ar    1  LIG1        0.0006
     22 C          -4.7750   -0.9790    0.0000 C.ar    1  LIG1        0.0077
     23 C          -3.0420    1.9880    0.0000 C.ar    1  LIG1        0.0077
     24 C          -2.1920    2.4790    0.0000 C.ar    1  LIG1        0.0006
     25 C          -1.3290    1.9710    0.0000 C.ar    1  LIG1        0.0013
     26 C          -1.3330    0.9880    0.0000 C.ar    1  LIG1        0.0158
@<TRIPOS>BOND
     1     1     2   am
     2     1    14    1
     3     1    18    1
     4     2     3   am
     5     2    13    2
     6     3     4    1
     7     4     5   ar
     8     4     9   ar
     9     5     6   ar
    10     6     7   ar
    11     7     8   ar
    12     7    10    1
    13     8     9   ar
    14    10    11    1
    15    11    12    1
    16    14    15   ar
    17    14    26   ar
    18    15    16    1
    19    15    23   ar
    20    16    17    1
    21    17    18   ar
    22    17    22   ar
    23    18    19   ar
    24    19    20   ar
    25    20    21   ar
    26    21    22   ar
    27    23    24   ar
    28    24    25   ar
    29    25    26   ar
