@<TRIPOS>MOLECULE
31541_ChemDiv_5024-0067
 23 25 0 0 0
SMALL
GASTEIGER
Energy = 0

@<TRIPOS>ATOM
      1 N          -2.4210    1.0670    0.0000 N.ar    1  LIG1       -0.1977
      2 C          -1.6000    0.4790    0.0000 C.ar    1  LIG1        0.2108
      3 N          -1.9170   -0.4710    0.0000 N.ar    1  LIG1       -0.1375
      4 N          -2.9130   -0.4710    0.0000 N.ar    1  LIG1       -0.2075
      5 C          -3.2290    0.4790    0.0000 C.ar    1  LIG1        0.2020
      6 C          -3.5170   -1.2830    0.0000 C.ar    1  LIG1        0.0846
      7 C          -4.4920   -1.1630    0.0000 C.ar    1  LIG1        0.0192
      8 C          -5.0960   -1.9750    0.0000 C.ar    1  LIG1        0.0015
      9 C          -4.6750   -2.8880    0.0000 C.ar    1  LIG1        0.0001
     10 C          -3.6960   -2.9920    0.0000 C.ar    1  LIG1        0.0015
     11 C          -3.1080   -2.1830    0.0000 C.ar    1  LIG1        0.0192
     12 S          -0.6540    0.7830    0.0000 S.3     1  LIG1       -0.0642
     13 C           0.0880    0.1130    0.0000 C.3     1  LIG1        0.1520
     14 C           1.0460    0.4170    0.0000 C.2     1  LIG1        0.2583
     15 N           1.2580    1.4080    0.0000 N.am    1  LIG1       -0.1596
     16 C           2.2170    1.7080    0.0000 C.ar    1  LIG1        0.1545
     17 N           2.9630    1.0420    0.0000 N.ar    1  LIG1       -0.2268
     18 C           3.9040    1.3460    0.0000 C.ar    1  LIG1        0.1070
     19 C           4.1210    2.3290    0.0000 C.ar    1  LIG1        0.0538
     20 BR          5.0920    2.6040    0.0000 Br      1  LIG1       -0.0474
     21 C           3.3750    2.9960    0.0000 C.ar    1  LIG1        0.0112
     22 C           2.4250    2.6830    0.0000 C.ar    1  LIG1        0.0367
     23 O           1.7920   -0.2380    0.0000 O.2     1  LIG1       -0.2720
@<TRIPOS>BOND
     1     1     2   ar
     2     1     5   ar
     3     2     3   ar
     4     2    12    1
     5     3     4   ar
     6     4     5   ar
     7     4     6    1
     8     6     7   ar
     9     6    11   ar
    10     7     8   ar
    11     8     9   ar
    12     9    10   ar
    13    10    11   ar
    14    12    13    1
    15    13    14    1
    16    14    15   am
    17    14    23    2
    18    15    16    1
    19    16    17   ar
    20    16    22   ar
    21    17    18   ar
    22    18    19   ar
    23    19    20    1
    24    19    21   ar
    25    21    22   ar
