@<TRIPOS>MOLECULE
31547_ChemDiv_5025-0093
 27 29 0 0 0
SMALL
GASTEIGER
Energy = 0

@<TRIPOS>ATOM
      1 C           1.7250   -0.5130    0.0000 C.ar    1  LIG1        0.1317
      2 C           1.7250    0.4790    0.0000 C.ar    1  LIG1        0.2062
      3 C           2.6130    0.9630    0.0000 C.ar    1  LIG1        0.0733
      4 C           3.4750    0.4750    0.0000 C.ar    1  LIG1        0.1465
      5 N           3.4750   -0.5330    0.0000 N.ar    1  LIG1       -0.3112
      6 C           2.6000   -1.0290    0.0000 C.ar    1  LIG1        0.0867
      7 C           4.3250   -1.0420    0.0000 C.3     1  LIG1        0.1076
      8 C           4.3210   -2.0290    0.0000 C.3     1  LIG1        0.0265
      9 N           4.3380    0.9380    0.0000 N.ar    1  LIG1       -0.2325
     10 C           4.3540    1.9460    0.0000 C.ar    1  LIG1        0.0610
     11 C           3.4790    2.4500    0.0000 C.ar    1  LIG1        0.0150
     12 C           2.6130    1.9630    0.0000 C.ar    1  LIG1        0.0074
     13 C           5.2250    2.4460    0.0000 C.3     1  LIG1        0.0521
     14 O           0.8750    0.9790    0.0000 O.2     1  LIG1       -0.2862
     15 C           0.8580   -1.0170    0.0000 C.2     1  LIG1        0.3463
     16 O          -0.0130   -0.4960    0.0000 O.3     1  LIG1       -0.4367
     17 C          -0.9000   -0.9790    0.0000 C.3     1  LIG1        0.2769
     18 C          -1.7500   -0.4710    0.0000 C.2     1  LIG1        0.2170
     19 C          -2.6330   -0.9710    0.0000 C.ar    1  LIG1        0.0384
     20 C          -2.6330   -1.9630    0.0000 C.ar    1  LIG1        0.0026
     21 C          -3.4920   -2.4460    0.0000 C.ar    1  LIG1       -0.0042
     22 C          -4.3630   -1.9380    0.0000 C.ar    1  LIG1       -0.0218
     23 C          -4.3500   -0.9330    0.0000 C.ar    1  LIG1       -0.0042
     24 C          -3.4790   -0.4500    0.0000 C.ar    1  LIG1        0.0026
     25 C          -5.2290   -2.4290    0.0000 C.3     1  LIG1        0.0310
     26 O          -1.7420    0.5290    0.0000 O.2     1  LIG1       -0.2874
     27 O           0.8500   -2.0210    0.0000 O.2     1  LIG1       -0.2447
@<TRIPOS>BOND
     1     1     2   ar
     2     1     6   ar
     3     1    15    1
     4     2     3   ar
     5     2    14    2
     6     3     4   ar
     7     3    12   ar
     8     4     5   ar
     9     4     9   ar
    10     5     6   ar
    11     5     7    1
    12     7     8    1
    13     9    10   ar
    14    10    11   ar
    15    10    13    1
    16    11    12   ar
    17    15    16    1
    18    15    27    2
    19    16    17    1
    20    17    18    1
    21    18    19    1
    22    18    26    2
    23    19    20   ar
    24    19    24   ar
    25    20    21   ar
    26    21    22   ar
    27    22    23   ar
    28    22    25    1
    29    23    24   ar
