@<TRIPOS>MOLECULE
31543_ChemDiv_5024-0069
 26 28 0 0 0
SMALL
GASTEIGER
Energy = 0

@<TRIPOS>ATOM
      1 S           0.6710    3.0040    0.0000 S.O2    1  LIG1        0.0935
      2 C           1.3040    2.2170    0.0000 C.ar    1  LIG1        0.1251
      3 C           2.2880    2.3750    0.0000 C.ar    1  LIG1        0.0213
      4 C           2.9170    1.6130    0.0000 C.ar    1  LIG1        0.0180
      5 C           2.5710    0.6790    0.0000 C.ar    1  LIG1        0.0735
      6 N           3.2210   -0.0960    0.0000 N.am    1  LIG1       -0.1785
      7 C           2.8750   -1.0330    0.0000 C.2     1  LIG1        0.2570
      8 O           3.5000   -1.8000    0.0000 O.2     1  LIG1       -0.2720
      9 C           1.8920   -1.1960    0.0000 C.3     1  LIG1        0.1520
     10 S           1.2420   -0.4290    0.0000 S.3     1  LIG1       -0.0642
     11 C           0.2460   -0.6040    0.0000 C.ar    1  LIG1        0.2108
     12 N          -0.4500    0.1000    0.0000 N.ar    1  LIG1       -0.1977
     13 C          -1.3420   -0.3630    0.0000 C.ar    1  LIG1        0.2020
     14 N          -1.1790   -1.3380    0.0000 N.ar    1  LIG1       -0.2075
     15 N          -0.1920   -1.4960    0.0000 N.ar    1  LIG1       -0.1375
     16 C          -1.8580   -2.0750    0.0000 C.ar    1  LIG1        0.0846
     17 C          -1.5420   -3.0290    0.0000 C.ar    1  LIG1        0.0192
     18 C          -2.2210   -3.7830    0.0000 C.ar    1  LIG1        0.0015
     19 C          -3.1920   -3.5670    0.0000 C.ar    1  LIG1        0.0001
     20 C          -3.5040   -2.6210    0.0000 C.ar    1  LIG1        0.0015
     21 C          -2.8380   -1.8750    0.0000 C.ar    1  LIG1        0.0192
     22 C           1.5880    0.5080    0.0000 C.ar    1  LIG1        0.0180
     23 C           0.9580    1.2710    0.0000 C.ar    1  LIG1        0.0213
     24 O           1.4420    3.6290    0.0000 O.2     1  LIG1       -0.1503
     25 O          -0.1040    2.3580    0.0000 O.2     1  LIG1       -0.1503
     26 N           0.0290    3.7880    0.0000 N.3     1  LIG1        0.0392
@<TRIPOS>BOND
     1     1     2    1
     2     1    24    2
     3     1    25    2
     4     1    26    1
     5     2     3   ar
     6     2    23   ar
     7     3     4   ar
     8     4     5   ar
     9     5     6    1
    10     5    22   ar
    11     6     7   am
    12     7     8    2
    13     7     9    1
    14     9    10    1
    15    10    11    1
    16    11    12   ar
    17    11    15   ar
    18    12    13   ar
    19    13    14   ar
    20    14    15   ar
    21    14    16    1
    22    16    17   ar
    23    16    21   ar
    24    17    18   ar
    25    18    19   ar
    26    19    20   ar
    27    20    21   ar
    28    22    23   ar
