@<TRIPOS>MOLECULE
31549_ChemDiv_5050-0116
 30 33 0 0 0
SMALL
GASTEIGER
Energy = 0

@<TRIPOS>ATOM
      1 C           1.4130   -3.5420    0.0000 C.ar    1  LIG1        0.1468
      2 C           2.2920   -3.0540    0.0000 C.ar    1  LIG1        0.0406
      3 C           3.0420   -3.7210    0.0000 C.ar    1  LIG1        0.0376
      4 C           2.6210   -4.6330    0.0000 C.ar    1  LIG1        0.1453
      5 O           1.6330   -4.5420    0.0000 O.2     1  LIG1       -0.4535
      6 C           3.2250   -5.4500    0.0000 C.ar    1  LIG1        0.0375
      7 C           4.2130   -5.3380    0.0000 C.ar    1  LIG1        0.0031
      8 C           4.6210   -4.4210    0.0000 C.ar    1  LIG1        0.0002
      9 C           4.0290   -3.6040    0.0000 C.ar    1  LIG1        0.0031
     10 C           2.2920   -2.0460    0.0000 C.ar    1  LIG1        0.0414
     11 C           1.4290   -1.5460    0.0000 C.ar    1  LIG1        0.1541
     12 C           0.5580   -2.0460    0.0000 C.ar    1  LIG1        0.1102
     13 C           0.5580   -3.0540    0.0000 C.ar    1  LIG1        0.0571
     14 N          -0.3130   -1.5460    0.0000 N.am    1  LIG1       -0.1753
     15 C          -0.3040   -0.5460    0.0000 C.2     1  LIG1        0.2571
     16 O           0.5580   -0.0630    0.0000 O.2     1  LIG1       -0.2720
     17 C          -1.1750   -0.0500    0.0000 C.3     1  LIG1        0.1519
     18 S          -1.1580    0.9540    0.0000 S.3     1  LIG1       -0.0657
     19 C          -2.0380    1.4630    0.0000 C.ar    1  LIG1        0.1930
     20 N          -2.8880    0.9540    0.0000 N.ar    1  LIG1       -0.1828
     21 C          -3.7500    1.4630    0.0000 C.ar    1  LIG1        0.2822
     22 C          -3.7500    2.4540    0.0000 C.ar    1  LIG1        0.0773
     23 C          -2.8880    2.9630    0.0000 C.ar    1  LIG1        0.0659
     24 N          -2.0420    2.4670    0.0000 N.ar    1  LIG1       -0.2254
     25 C          -2.8880    3.9630    0.0000 C.3     1  LIG1        0.0460
     26 C          -2.0420    4.4710    0.0000 C.3     1  LIG1        0.0063
     27 C          -2.0420    5.4500    0.0000 C.3     1  LIG1        0.0004
     28 O          -4.6250    0.9670    0.0000 O.3     1  LIG1       -0.2651
     29 O           1.4130   -0.5460    0.0000 O.3     1  LIG1       -0.4701
     30 C           2.3750   -0.2750    0.0000 C.3     1  LIG1        0.2525
@<TRIPOS>BOND
     1     1     2   ar
     2     1     5   ar
     3     1    13   ar
     4     2     3   ar
     5     2    10   ar
     6     3     4   ar
     7     3     9   ar
     8     4     5   ar
     9     4     6   ar
    10     6     7   ar
    11     7     8   ar
    12     8     9   ar
    13    10    11   ar
    14    11    12   ar
    15    11    29    1
    16    12    13   ar
    17    12    14    1
    18    14    15   am
    19    15    16    2
    20    15    17    1
    21    17    18    1
    22    18    19    1
    23    19    20   ar
    24    19    24   ar
    25    20    21   ar
    26    21    22   ar
    27    21    28    1
    28    22    23   ar
    29    23    24   ar
    30    23    25    1
    31    25    26    1
    32    26    27    1
    33    29    30    1
