@<TRIPOS>MOLECULE
31545_ChemDiv_5024-0088
 27 29 0 0 0
SMALL
GASTEIGER
Energy = 0

@<TRIPOS>ATOM
      1 C           1.1290    1.2000    0.0000 C.ar    1  LIG1        0.1212
      2 S           1.5750    0.3130    0.0000 S.2     1  LIG1       -0.0436
      3 C           2.5630    0.4790    0.0000 C.ar    1  LIG1        0.1857
      4 N           2.7130    1.4670    0.0000 N.ar    1  LIG1       -0.2267
      5 C           1.8040    1.9000    0.0000 C.ar    1  LIG1        0.0736
      6 C           1.6210    2.9040    0.0000 C.3     1  LIG1        0.0529
      7 N           3.2130   -0.2960    0.0000 N.am    1  LIG1       -0.1535
      8 C           2.8670   -1.2290    0.0000 C.2     1  LIG1        0.2587
      9 O           3.4960   -1.9960    0.0000 O.2     1  LIG1       -0.2720
     10 C           1.8790   -1.4040    0.0000 C.3     1  LIG1        0.1521
     11 S           1.2380   -0.6380    0.0000 S.3     1  LIG1       -0.0642
     12 C           0.2380   -0.8040    0.0000 C.ar    1  LIG1        0.2108
     13 N          -0.4500   -0.1040    0.0000 N.ar    1  LIG1       -0.1977
     14 C          -1.3540   -0.5580    0.0000 C.ar    1  LIG1        0.2020
     15 N          -1.1790   -1.5460    0.0000 N.ar    1  LIG1       -0.2075
     16 N          -0.2000   -1.6920    0.0000 N.ar    1  LIG1       -0.1375
     17 C          -1.8630   -2.2750    0.0000 C.ar    1  LIG1        0.0846
     18 C          -1.5420   -3.2330    0.0000 C.ar    1  LIG1        0.0192
     19 C          -2.2250   -3.9750    0.0000 C.ar    1  LIG1        0.0015
     20 C          -3.2000   -3.7580    0.0000 C.ar    1  LIG1        0.0001
     21 C          -3.5000   -2.8210    0.0000 C.ar    1  LIG1        0.0015
     22 C          -2.8330   -2.0710    0.0000 C.ar    1  LIG1        0.0192
     23 C           0.1330    1.3540    0.0000 C.2     1  LIG1        0.3486
     24 O          -0.5040    0.5630    0.0000 O.2     1  LIG1       -0.2443
     25 O          -0.2330    2.2790    0.0000 O.3     1  LIG1       -0.4451
     26 C           0.4000    3.0540    0.0000 C.3     1  LIG1        0.2089
     27 C           0.0380    3.9790    0.0000 C.3     1  LIG1        0.0513
@<TRIPOS>BOND
     1     1     2   ar
     2     1     5   ar
     3     1    23    1
     4     2     3   ar
     5     3     4   ar
     6     3     7    1
     7     4     5   ar
     8     5     6    1
     9     7     8   am
    10     8     9    2
    11     8    10    1
    12    10    11    1
    13    11    12    1
    14    12    13   ar
    15    12    16   ar
    16    13    14   ar
    17    14    15   ar
    18    15    16   ar
    19    15    17    1
    20    17    18   ar
    21    17    22   ar
    22    18    19   ar
    23    19    20   ar
    24    20    21   ar
    25    21    22   ar
    26    23    24    2
    27    23    25    1
    28    25    26    1
    29    26    27    1
