@<TRIPOS>MOLECULE
31551_ChemDiv_5051-0249
 31 36 0 0 0
SMALL
GASTEIGER
Energy = 0

@<TRIPOS>ATOM
      1 N           1.9040    0.8830    0.0000 N.pl3   1  LIG1       -0.2090
      2 N           0.9000    0.8670    0.0000 N.2     1  LIG1       -0.1821
      3 C           0.6000   -0.0790    0.0000 C.2     1  LIG1        0.0785
      4 C           1.4040   -0.6580    0.0000 C.3     1  LIG1        0.0737
      5 C           2.2130   -0.0710    0.0000 C.3     1  LIG1        0.1245
      6 C           2.7080   -0.9330    0.0000 C.ar    1  LIG1        0.0012
      7 C           3.7000   -0.9330    0.0000 C.ar    1  LIG1        0.0376
      8 C           4.2040   -1.8000    0.0000 C.ar    1  LIG1        0.1762
      9 C           3.7000   -2.6630    0.0000 C.ar    1  LIG1        0.1764
     10 O           4.3710   -3.4080    0.0000 O.3     1  LIG1       -0.4346
     11 C           5.2830   -3.0080    0.0000 C.3     1  LIG1        0.4294
     12 O           5.1830   -2.0040    0.0000 O.3     1  LIG1       -0.4346
     13 C           2.6920   -2.6580    0.0000 C.ar    1  LIG1        0.0399
     14 C           2.2000   -1.7830    0.0000 C.ar    1  LIG1        0.0007
     15 C          -0.2790   -0.5670    0.0000 C.2     1  LIG1        0.0163
     16 C          -1.1500   -0.0710    0.0000 C.2     1  LIG1        0.0014
     17 C          -2.0210   -0.5670    0.0000 C.ar    1  LIG1        0.0033
     18 C          -2.8880   -0.0630    0.0000 C.ar    1  LIG1        0.0402
     19 C          -3.7500   -0.5670    0.0000 C.ar    1  LIG1        0.1764
     20 C          -3.7500   -1.5710    0.0000 C.ar    1  LIG1        0.1764
     21 O          -4.7040   -1.8750    0.0000 O.3     1  LIG1       -0.4346
     22 C          -5.2880   -1.0710    0.0000 C.3     1  LIG1        0.4294
     23 O          -4.7040   -0.2630    0.0000 O.3     1  LIG1       -0.4346
     24 C          -2.8790   -2.0630    0.0000 C.ar    1  LIG1        0.0402
     25 C          -2.0210   -1.5630    0.0000 C.ar    1  LIG1        0.0033
     26 C           2.4880    1.6920    0.0000 C.ar    1  LIG1        0.0693
     27 C           3.4790    1.5880    0.0000 C.ar    1  LIG1        0.0163
     28 C           4.0670    2.4040    0.0000 C.ar    1  LIG1        0.0013
     29 C           3.6540    3.3170    0.0000 C.ar    1  LIG1        0.0001
     30 C           2.6540    3.4130    0.0000 C.ar    1  LIG1        0.0013
     31 C           2.0710    2.6000    0.0000 C.ar    1  LIG1        0.0163
@<TRIPOS>BOND
     1     1     2    1
     2     1     5    1
     3     1    26    1
     4     2     3    2
     5     3     4    1
     6     3    15    1
     7     4     5    1
     8     5     6    1
     9     6     7   ar
    10     6    14   ar
    11     7     8   ar
    12     8     9   ar
    13     8    12    1
    14     9    10    1
    15     9    13   ar
    16    10    11    1
    17    11    12    1
    18    13    14   ar
    19    15    16    2
    20    16    17    1
    21    17    18   ar
    22    17    25   ar
    23    18    19   ar
    24    19    20   ar
    25    19    23    1
    26    20    21    1
    27    20    24   ar
    28    21    22    1
    29    22    23    1
    30    24    25   ar
    31    26    27   ar
    32    26    31   ar
    33    27    28   ar
    34    28    29   ar
    35    29    30   ar
    36    30    31   ar
