@<TRIPOS>MOLECULE
31558_ChemDiv_5585-0389
 23 26 0 0 0
SMALL
GASTEIGER
Energy = 0

@<TRIPOS>ATOM
      1 N           0.9170   -0.4130    0.0000 N.ar    1  LIG1       -0.2531
      2 C           0.9170    0.5500    0.0000 C.ar    1  LIG1        0.2572
      3 N           0.1000    0.9750    0.0000 N.ar    1  LIG1       -0.2100
      4 C          -0.7670    0.4920    0.0000 C.ar    1  LIG1        0.0847
      5 C          -0.7670   -0.4880    0.0000 C.ar    1  LIG1        0.0517
      6 C           0.0580   -0.9460    0.0000 C.ar    1  LIG1        0.2637
      7 O           0.0580   -1.9290    0.0000 O.2     1  LIG1       -0.2669
      8 C          -1.6130   -0.9750    0.0000 C.3     1  LIG1        0.0289
      9 C          -2.4670   -0.4710    0.0000 C.3     1  LIG1        0.0306
     10 C          -2.4500    0.4920    0.0000 C.ar    1  LIG1       -0.0204
     11 C          -1.6000    0.9880    0.0000 C.ar    1  LIG1        0.0136
     12 C          -1.6000    1.9540    0.0000 C.ar    1  LIG1        0.0012
     13 C          -2.4500    2.4420    0.0000 C.ar    1  LIG1        0.0000
     14 C          -3.2920    1.9540    0.0000 C.ar    1  LIG1       -0.0003
     15 C          -3.2920    0.9880    0.0000 C.ar    1  LIG1       -0.0042
     16 C          -2.4670   -1.4580    0.0000 C.3     1  LIG1        0.0046
     17 C          -2.4670   -2.4210    0.0000 C.3     1  LIG1        0.0003
     18 C          -0.7710   -1.4710    0.0000 C.3     1  LIG1        0.0046
     19 C          -0.7710   -2.4380    0.0000 C.3     1  LIG1        0.0003
     20 N           1.7500    1.0500    0.0000 N.ar    1  LIG1       -0.1103
     21 N           2.5920    0.5500    0.0000 N.ar    1  LIG1       -0.1598
     22 C           2.5920   -0.4130    0.0000 C.ar    1  LIG1        0.0021
     23 S           3.2880   -1.1170    0.0000 S.3     1  LIG1       -0.7187
@<TRIPOS>BOND
     1     1     2   ar
     2     1     6   ar
     3     1    22   ar
     4     2     3   ar
     5     2    20   ar
     6     3     4   ar
     7     4     5   ar
     8     4    11    1
     9     5     6   ar
    10     5     8    1
    11     6     7    2
    12     8     9    1
    13     8    16    1
    14     8    18    1
    15     9    10    1
    16    10    11   ar
    17    10    15   ar
    18    11    12   ar
    19    12    13   ar
    20    13    14   ar
    21    14    15   ar
    22    16    17    1
    23    18    19    1
    24    20    21   ar
    25    21    22   ar
    26    22    23    1
