@<TRIPOS>MOLECULE
31554_ChemDiv_5215-0153
 26 30 0 0 0
SMALL
GASTEIGER
Energy = 0

@<TRIPOS>ATOM
      1 N          -1.6670   -0.5000    0.0000 N.am    1  LIG1       -0.2194
      2 C          -0.8040   -1.0000    0.0000 C.2     1  LIG1        0.3351
      3 N           0.1420   -0.4540    0.0000 N.am    1  LIG1       -0.1616
      4 C           1.0040   -0.9380    0.0000 C.ar    1  LIG1        0.0782
      5 C           1.8670   -0.4460    0.0000 C.ar    1  LIG1        0.0568
      6 C           2.7290   -0.9540    0.0000 C.ar    1  LIG1        0.1777
      7 C           2.7290   -1.9500    0.0000 C.ar    1  LIG1        0.1765
      8 O           3.6670   -2.2580    0.0000 O.3     1  LIG1       -0.4346
      9 C           4.2500   -1.4630    0.0000 C.3     1  LIG1        0.4294
     10 O           3.6710   -0.6540    0.0000 O.3     1  LIG1       -0.4346
     11 C           1.8630   -2.4330    0.0000 C.ar    1  LIG1        0.0415
     12 C           1.0040   -1.9420    0.0000 C.ar    1  LIG1        0.0200
     13 O          -0.8130   -2.0920    0.0000 O.2     1  LIG1       -0.2497
     14 C          -1.6630    0.4960    0.0000 C.ar    1  LIG1        0.0656
     15 C          -2.5250    1.0040    0.0000 C.ar    1  LIG1        0.0435
     16 S          -3.3880    0.5130    0.0000 S.3     1  LIG1       -0.0844
     17 C          -3.3880   -0.4880    0.0000 C.ar    1  LIG1        0.0435
     18 C          -2.5250   -0.9960    0.0000 C.ar    1  LIG1        0.0656
     19 C          -2.5290   -1.9880    0.0000 C.ar    1  LIG1        0.0158
     20 C          -3.3920   -2.4790    0.0000 C.ar    1  LIG1        0.0013
     21 C          -4.2540   -1.9710    0.0000 C.ar    1  LIG1        0.0006
     22 C          -4.2500   -0.9790    0.0000 C.ar    1  LIG1        0.0077
     23 C          -2.5130    1.9920    0.0000 C.ar    1  LIG1        0.0077
     24 C          -1.6630    2.4830    0.0000 C.ar    1  LIG1        0.0006
     25 C          -0.8000    1.9750    0.0000 C.ar    1  LIG1        0.0013
     26 C          -0.8040    0.9880    0.0000 C.ar    1  LIG1        0.0158
@<TRIPOS>BOND
     1     1     2   am
     2     1    14    1
     3     1    18    1
     4     2     3   am
     5     2    13    2
     6     3     4    1
     7     4     5   ar
     8     4    12   ar
     9     5     6   ar
    10     6     7   ar
    11     6    10    1
    12     7     8    1
    13     7    11   ar
    14     8     9    1
    15     9    10    1
    16    11    12   ar
    17    14    15   ar
    18    14    26   ar
    19    15    16    1
    20    15    23   ar
    21    16    17    1
    22    17    18   ar
    23    17    22   ar
    24    18    19   ar
    25    19    20   ar
    26    20    21   ar
    27    21    22   ar
    28    23    24   ar
    29    24    25   ar
    30    25    26   ar
