@<TRIPOS>MOLECULE
31567_ChemDiv_4912-0673
 16 16 0 0 0
SMALL
GASTEIGER
Energy = 0

@<TRIPOS>ATOM
      1 S          -0.8210   -1.7170    0.0000 S.O2    1  LIG1       -0.0083
      2 C          -0.0170   -1.1250    0.0000 C.3     1  LIG1        0.1705
      3 C          -0.3330   -0.1710    0.0000 C.3     1  LIG1        0.0990
      4 N           0.2380    0.6750    0.0000 N.am    1  LIG1       -0.2974
      5 C           1.2250    0.6210    0.0000 C.2     1  LIG1        0.1110
      6 S           1.7750    1.4670    0.0000 S.2     1  LIG1       -0.0279
      7 S           1.6790   -0.2420    0.0000 S.3     1  LIG1       -0.0914
      8 C           2.6790   -0.3040    0.0000 C.3     1  LIG1        0.0759
      9 C          -0.2170    1.5460    0.0000 C.3     1  LIG1        0.0917
     10 C          -1.2330    1.5960    0.0000 C.3     1  LIG1        0.0214
     11 C          -1.6830    2.4790    0.0000 C.3     1  LIG1        0.0018
     12 C          -2.6830    2.5330    0.0000 C.3     1  LIG1        0.0001
     13 C          -1.3250   -0.1710    0.0000 C.3     1  LIG1        0.0468
     14 C          -1.6250   -1.1250    0.0000 C.3     1  LIG1        0.1526
     15 O          -0.1790   -2.5040    0.0000 O.2     1  LIG1       -0.1729
     16 O          -1.4130   -2.5290    0.0000 O.2     1  LIG1       -0.1729
@<TRIPOS>BOND
     1     1     2    1
     2     1    14    1
     3     1    15    2
     4     1    16    2
     5     2     3    1
     6     3     4    1
     7     3    13    1
     8     4     5    1
     9     4     9    1
    10     5     6    2
    11     5     7    1
    12     7     8    1
    13     9    10    1
    14    10    11    1
    15    11    12    1
    16    13    14    1
