@<TRIPOS>MOLECULE
31569_ChemDiv_5053-0520
 26 29 0 0 0
SMALL
GASTEIGER
Energy = 0

@<TRIPOS>ATOM
      1 P          -1.8790   -0.2710    0.0000 P.3     1  LIG1        0.3646
      2 N          -1.0500   -0.8630    0.0000 N.pl3   1  LIG1       -0.1542
      3 C           0.2380   -0.9920    0.0000 C.ar    1  LIG1        0.1119
      4 C           1.0880   -1.4750    0.0000 C.ar    1  LIG1        0.0572
      5 C           1.9420   -0.9750    0.0000 C.ar    1  LIG1        0.1468
      6 C           1.9420    0.0080    0.0000 C.ar    1  LIG1        0.0406
      7 C           3.6460    0.0080    0.0000 C.ar    1  LIG1        0.0376
      8 C           3.6460   -0.9750    0.0000 C.ar    1  LIG1        0.1453
      9 O           2.7960   -1.4750    0.0000 O.2     1  LIG1       -0.4535
     10 C           4.5000   -1.4750    0.0000 C.ar    1  LIG1        0.0375
     11 C           5.3540   -0.9750    0.0000 C.ar    1  LIG1        0.0031
     12 C           5.3540    0.0080    0.0000 C.ar    1  LIG1        0.0002
     13 C           4.5000    0.4960    0.0000 C.ar    1  LIG1        0.0031
     14 C           1.0880    0.4960    0.0000 C.ar    1  LIG1        0.0414
     15 C           0.2380   -0.0080    0.0000 C.ar    1  LIG1        0.1541
     16 O          -0.2630    0.5830    0.0000 O.3     1  LIG1       -0.4701
     17 C           0.1960    1.2830    0.0000 C.3     1  LIG1        0.2525
     18 O          -2.7500    0.5580    0.0000 O.3     1  LIG1       -0.4270
     19 C          -3.6380    0.7290    0.0000 C.ar    1  LIG1        0.1461
     20 C          -4.0670    1.4790    0.0000 C.ar    1  LIG1        0.0373
     21 C          -4.9210    1.4790    0.0000 C.ar    1  LIG1        0.0031
     22 C          -5.3580    0.7420    0.0000 C.ar    1  LIG1        0.0002
     23 C          -4.9380   -0.0080    0.0000 C.ar    1  LIG1        0.0031
     24 C          -4.0670   -0.0130    0.0000 C.ar    1  LIG1        0.0373
     25 O          -1.1790    0.8880    0.0000 O.2     1  LIG1       -0.2524
     26 C          -2.6170   -0.8830    0.0000 C.3     1  LIG1        0.1340
@<TRIPOS>BOND
     1     1     2    1
     2     1    18    1
     3     1    25    2
     4     1    26    1
     5     2     3    1
     6     3     4   ar
     7     3    15   ar
     8     4     5   ar
     9     5     6   ar
    10     5     9   ar
    11     6     7   ar
    12     6    14   ar
    13     7     8   ar
    14     7    13   ar
    15     8     9   ar
    16     8    10   ar
    17    10    11   ar
    18    11    12   ar
    19    12    13   ar
    20    14    15   ar
    21    15    16    1
    22    16    17    1
    23    18    19    1
    24    19    20   ar
    25    19    24   ar
    26    20    21   ar
    27    21    22   ar
    28    22    23   ar
    29    23    24   ar
