@<TRIPOS>MOLECULE
31560_ChemDiv_5585-0391
 21 24 0 0 0
SMALL
GASTEIGER
Energy = 0

@<TRIPOS>ATOM
      1 N           0.9130   -0.6670    0.0000 N.ar    1  LIG1       -0.2531
      2 C           0.9130    0.2960    0.0000 C.ar    1  LIG1        0.2572
      3 N           0.1000    0.7170    0.0000 N.ar    1  LIG1       -0.2100
      4 C          -0.7670    0.2380    0.0000 C.ar    1  LIG1        0.0847
      5 C          -0.7670   -0.7380    0.0000 C.ar    1  LIG1        0.0517
      6 C           0.0580   -1.1960    0.0000 C.ar    1  LIG1        0.2637
      7 O           0.0580   -2.1750    0.0000 O.2     1  LIG1       -0.2669
      8 C          -1.6080   -1.2250    0.0000 C.3     1  LIG1        0.0290
      9 C          -2.4580   -0.7250    0.0000 C.3     1  LIG1        0.0306
     10 C          -2.4420    0.2380    0.0000 C.ar    1  LIG1       -0.0204
     11 C          -1.5960    0.7330    0.0000 C.ar    1  LIG1        0.0136
     12 C          -1.5960    1.6960    0.0000 C.ar    1  LIG1        0.0012
     13 C          -2.4420    2.1790    0.0000 C.ar    1  LIG1        0.0000
     14 C          -3.2830    1.6960    0.0000 C.ar    1  LIG1       -0.0003
     15 C          -3.2830    0.7330    0.0000 C.ar    1  LIG1       -0.0042
     16 C          -2.4580   -1.7040    0.0000 C.3     1  LIG1        0.0049
     17 C          -0.7710   -1.7210    0.0000 C.3     1  LIG1        0.0049
     18 N           1.7460    0.7920    0.0000 N.ar    1  LIG1       -0.1103
     19 N           2.5880    0.2960    0.0000 N.ar    1  LIG1       -0.1598
     20 C           2.5880   -0.6670    0.0000 C.ar    1  LIG1        0.0021
     21 S           3.2790   -1.3670    0.0000 S.3     1  LIG1       -0.7187
@<TRIPOS>BOND
     1     1     2   ar
     2     1     6   ar
     3     1    20   ar
     4     2     3   ar
     5     2    18   ar
     6     3     4   ar
     7     4     5   ar
     8     4    11    1
     9     5     6   ar
    10     5     8    1
    11     6     7    2
    12     8     9    1
    13     8    16    1
    14     8    17    1
    15     9    10    1
    16    10    11   ar
    17    10    15   ar
    18    11    12   ar
    19    12    13   ar
    20    13    14   ar
    21    14    15   ar
    22    18    19   ar
    23    19    20   ar
    24    20    21    1
