@<TRIPOS>MOLECULE
31565_ChemDiv_4912-0453
 13 13 0 0 0
SMALL
GASTEIGER
Energy = 0

@<TRIPOS>ATOM
      1 S          -0.0170   -1.2040    0.0000 S.O2    1  LIG1       -0.0072
      2 C           0.8170   -0.6290    0.0000 C.3     1  LIG1        0.1681
      3 C           0.5330    0.3080    0.0000 C.3     1  LIG1        0.0978
      4 C          -0.5500    0.3080    0.0000 C.3     1  LIG1        0.0978
      5 C          -0.8130   -0.6290    0.0000 C.3     1  LIG1        0.1681
      6 N          -1.1880    1.0540    0.0000 N.3     1  LIG1       -0.2688
      7 C          -2.1460    0.8750    0.0000 C.3     1  LIG1        0.0897
      8 C          -0.8580    1.9830    0.0000 C.3     1  LIG1        0.0897
      9 N           1.1630    1.0710    0.0000 N.3     1  LIG1       -0.2688
     10 C           2.1420    0.9040    0.0000 C.3     1  LIG1        0.0897
     11 C           0.8170    2.0130    0.0000 C.3     1  LIG1        0.0897
     12 O           0.6380   -2.0080    0.0000 O.2     1  LIG1       -0.1729
     13 O          -0.6580   -1.9750    0.0000 O.2     1  LIG1       -0.1729
@<TRIPOS>BOND
     1     1     2    1
     2     1     5    1
     3     1    12    2
     4     1    13    2
     5     2     3    1
     6     3     4    1
     7     3     9    1
     8     4     5    1
     9     4     6    1
    10     6     7    1
    11     6     8    1
    12     9    10    1
    13     9    11    1
