@<TRIPOS>MOLECULE
31561_ChemDiv_4912-0296
 14 14 0 0 0
SMALL
GASTEIGER
Energy = 0

@<TRIPOS>ATOM
      1 S          -0.9040   -1.6500    0.0000 S.O2    1  LIG1       -0.0100
      2 C          -0.0750   -1.0380    0.0000 C.3     1  LIG1        0.1518
      3 C          -0.4130   -0.0830    0.0000 C.3     1  LIG1        0.0430
      4 C           0.1710    0.7290    0.0000 C.3     1  LIG1        0.1609
      5 C          -0.2580    1.6380    0.0000 C.2     1  LIG1        0.2692
      6 O          -1.2500    1.6630    0.0000 O.2     1  LIG1       -0.2711
      7 N           0.2790    2.4750    0.0000 N.am    1  LIG1       -0.0874
      8 C           1.1670    0.6580    0.0000 C.2     1  LIG1        0.2692
      9 O           1.6880    1.4580    0.0000 O.2     1  LIG1       -0.2711
     10 N           1.6040   -0.2460    0.0000 N.am    1  LIG1       -0.0874
     11 C          -1.3960   -0.0830    0.0000 C.3     1  LIG1        0.0280
     12 C          -1.6920   -1.0380    0.0000 C.3     1  LIG1        0.1509
     13 O          -0.2330   -2.4130    0.0000 O.2     1  LIG1       -0.1730
     14 O          -1.4920   -2.4710    0.0000 O.2     1  LIG1       -0.1730
@<TRIPOS>BOND
     1     1     2    1
     2     1    12    1
     3     1    13    2
     4     1    14    2
     5     2     3    1
     6     3     4    1
     7     3    11    1
     8     4     5    1
     9     4     8    1
    10     5     6    2
    11     5     7   am
    12     8     9    2
    13     8    10   am
    14    11    12    1
