@<TRIPOS>MOLECULE
31579_ChemDiv_5755-0042
 14 15 0 0 0
SMALL
GASTEIGER
Energy = 0

@<TRIPOS>ATOM
      1 N           0.3630   -0.1460    0.0000 N.ar    1  LIG1       -0.2807
      2 C           0.9460   -0.9630    0.0000 C.ar    1  LIG1        0.2927
      3 S           0.3630   -1.7670    0.0000 S.2     1  LIG1       -0.0260
      4 C          -0.5920   -1.4580    0.0000 C.ar    1  LIG1        0.0497
      5 C          -0.5920   -0.4580    0.0000 C.ar    1  LIG1        0.0695
      6 C          -1.4580    0.0420    0.0000 C.ar    1  LIG1        0.0178
      7 C          -2.3210   -0.4580    0.0000 C.ar    1  LIG1        0.0015
      8 C          -2.3210   -1.4580    0.0000 C.ar    1  LIG1        0.0006
      9 C          -1.4580   -1.9580    0.0000 C.ar    1  LIG1        0.0081
     10 O           1.9460   -0.9630    0.0000 O.2     1  LIG1       -0.2594
     11 C           0.6670    0.8000    0.0000 C.3     1  LIG1        0.1979
     12 C           1.6500    1.0080    0.0000 C.2     1  LIG1        0.2839
     13 O           2.3170    0.2670    0.0000 O.2     1  LIG1       -0.2695
     14 N           1.9540    1.9630    0.0000 N.am    1  LIG1       -0.0861
@<TRIPOS>BOND
     1     1     2   ar
     2     1     5   ar
     3     1    11    1
     4     2     3   ar
     5     2    10    2
     6     3     4   ar
     7     4     5   ar
     8     4     9   ar
     9     5     6   ar
    10     6     7   ar
    11     7     8   ar
    12     8     9   ar
    13    11    12    1
    14    12    13    2
    15    12    14   am
