@<TRIPOS>MOLECULE
31571_ChemDiv_5055-7704
 28 30 0 0 0
SMALL
GASTEIGER
Energy = 0

@<TRIPOS>ATOM
      1 C          -0.4750   -0.4880    0.0000 C.ar    1  LIG1        0.0201
      2 CA         -0.4750   -1.4750    0.0000 C.ar    1  LIG1        0.0952
      3 N          -1.3250   -1.9920    0.0000 N.ar    1  LIG1       -0.2442
      4 C          -2.1830   -1.4750    0.0000 C.ar    1  LIG1        0.0813
      5 C          -2.1830   -0.4880    0.0000 C.ar    1  LIG1        0.0188
      6 C          -1.3250    0.0080    0.0000 C.ar    1  LIG1        0.0169
      7 C          -1.3250    1.0330    0.0000 C.2     1  LIG1        0.0730
      8 O          -2.1830    1.5290    0.0000 O.co2   1  LIG1       -0.5446
      9 O          -0.4750    1.5290    0.0000 O.co2   1  LIG1       -0.5446
     10 C          -3.0380    0.0080    0.0000 C.ar    1  LIG1        0.0015
     11 C          -3.8960   -0.4880    0.0000 C.ar    1  LIG1        0.0001
     12 C          -3.8960   -1.4750    0.0000 C.ar    1  LIG1        0.0015
     13 C          -3.0380   -1.9920    0.0000 C.ar    1  LIG1        0.0191
     14 C           0.3920   -2.0210    0.0000 C.2     1  LIG1        0.0905
     15 O           1.2580   -1.5460    0.0000 O.co2   1  LIG1       -0.5430
     16 OXT         0.3500   -3.0080    0.0000 O.co2   1  LIG1       -0.5430
     17 C           0.3920    0.0080    0.0000 C.ar    1  LIG1        0.0078
     18 C           0.3920    1.0000    0.0000 C.ar    1  LIG1        0.0403
     19 C           1.2580    1.4960    0.0000 C.ar    1  LIG1        0.1754
     20 C           2.1250    1.0000    0.0000 C.ar    1  LIG1        0.2061
     21 C           2.1250    0.0080    0.0000 C.ar    1  LIG1        0.1754
     22 C           1.2580   -0.4880    0.0000 C.ar    1  LIG1        0.0403
     23 O           3.0130   -0.4880    0.0000 O.3     1  LIG1       -0.4683
     24 C           3.8920    0.0080    0.0000 C.3     1  LIG1        0.2526
     25 O           3.0130    1.5290    0.0000 O.3     1  LIG1       -0.4654
     26 C           3.8920    1.0000    0.0000 C.3     1  LIG1        0.2528
     27 O           1.2580    2.5170    0.0000 O.3     1  LIG1       -0.4683
     28 C           0.3920    3.0130    0.0000 C.3     1  LIG1        0.2526
@<TRIPOS>BOND
     1     1     2   ar
     2     1     6   ar
     3     1    17    1
     4     2     3   ar
     5     2    14    1
     6     3     4   ar
     7     4     5   ar
     8     4    13   ar
     9     5     6   ar
    10     5    10   ar
    11     6     7    1
    12     7     8   ar
    13     7     9   ar
    14    10    11   ar
    15    11    12   ar
    16    12    13   ar
    17    14    15   ar
    18    14    16   ar
    19    17    18   ar
    20    17    22   ar
    21    18    19   ar
    22    19    20   ar
    23    19    27    1
    24    20    21   ar
    25    20    25    1
    26    21    22   ar
    27    21    23    1
    28    23    24    1
    29    25    26    1
    30    27    28    1
