@<TRIPOS>MOLECULE
31577_ChemDiv_5251-2437
 18 19 0 0 0
SMALL
GASTEIGER
Energy = 0

@<TRIPOS>ATOM
      1 N          -1.2960    0.1880    0.0000 N.ar    1  LIG1       -0.2808
      2 C          -0.7040    0.9830    0.0000 C.ar    1  LIG1        0.2927
      3 S          -1.2960    1.8250    0.0000 S.2     1  LIG1       -0.0260
      4 C          -2.2290    1.5130    0.0000 C.ar    1  LIG1        0.0497
      5 C          -2.2500    0.5170    0.0000 C.ar    1  LIG1        0.0695
      6 C          -3.0960    0.0170    0.0000 C.ar    1  LIG1        0.0178
      7 C          -3.9750    0.5250    0.0000 C.ar    1  LIG1        0.0015
      8 C          -3.9670    1.5330    0.0000 C.ar    1  LIG1        0.0006
      9 C          -3.0960    2.0210    0.0000 C.ar    1  LIG1        0.0081
     10 O           0.2920    0.9830    0.0000 O.2     1  LIG1       -0.2594
     11 C          -1.0420   -0.7750    0.0000 C.3     1  LIG1        0.1962
     12 C          -0.0750   -1.0500    0.0000 C.2     1  LIG1        0.2646
     13 O           0.1790   -2.0170    0.0000 O.2     1  LIG1       -0.2712
     14 N           0.6290   -0.3290    0.0000 N.am    1  LIG1       -0.2038
     15 C           1.5960   -0.5830    0.0000 C.3     1  LIG1        0.1152
     16 C           2.2960    0.1000    0.0000 C.3     1  LIG1        0.0234
     17 C           3.2540   -0.1540    0.0000 C.3     1  LIG1        0.0018
     18 C           3.9710    0.5580    0.0000 C.3     1  LIG1        0.0001
@<TRIPOS>BOND
     1     1     2   ar
     2     1     5   ar
     3     1    11    1
     4     2     3   ar
     5     2    10    2
     6     3     4   ar
     7     4     5   ar
     8     4     9   ar
     9     5     6   ar
    10     6     7   ar
    11     7     8   ar
    12     8     9   ar
    13    11    12    1
    14    12    13    2
    15    12    14   am
    16    14    15    1
    17    15    16    1
    18    16    17    1
    19    17    18    1
