@<TRIPOS>MOLECULE
31573_ChemDiv_8012-5261
 27 30 0 0 0
SMALL
GASTEIGER
Energy = 0

@<TRIPOS>ATOM
      1 C          -0.8630   -0.2580    0.0000 C.ar    1  LIG1        0.0031
      2 C          -1.7330    0.2330    0.0000 C.ar    1  LIG1        0.0177
      3 C          -2.5920   -0.2580    0.0000 C.ar    1  LIG1        0.0813
      4 N          -2.5830   -1.2630    0.0000 N.ar    1  LIG1       -0.2442
      5 CA         -1.7250   -1.7540    0.0000 C.ar    1  LIG1        0.0952
      6 C          -0.8630   -1.2630    0.0000 C.ar    1  LIG1        0.0203
      7 C          -1.7250   -2.7460    0.0000 C.2     1  LIG1        0.0905
      8 O          -0.8540   -3.2580    0.0000 O.co2   1  LIG1       -0.5430
      9 OXT        -2.5920   -3.1580    0.0000 O.co2   1  LIG1       -0.5430
     10 C          -3.4580    0.2460    0.0000 C.ar    1  LIG1        0.0191
     11 C          -3.4580    1.2540    0.0000 C.ar    1  LIG1        0.0015
     12 C          -2.5960    1.7540    0.0000 C.ar    1  LIG1        0.0001
     13 C          -1.7250    1.2420    0.0000 C.ar    1  LIG1        0.0014
     14 C          -0.8420    1.7460    0.0000 C.ar    1  LIG1        0.0000
     15 C          -0.8380    2.7540    0.0000 C.ar    1  LIG1        0.0000
     16 C          -1.7040    3.2630    0.0000 C.ar    1  LIG1        0.0000
     17 C          -2.5920    2.7670    0.0000 C.ar    1  LIG1        0.0000
     18 C           0.0040    0.2540    0.0000 C.ar    1  LIG1        0.0033
     19 C          -0.0040    1.2420    0.0000 C.ar    1  LIG1        0.0400
     20 C           0.8670    1.7460    0.0000 C.ar    1  LIG1        0.1724
     21 C           1.7330    1.2420    0.0000 C.ar    1  LIG1        0.1724
     22 C           1.7330    0.2540    0.0000 C.ar    1  LIG1        0.0400
     23 C           0.8670   -0.2580    0.0000 C.ar    1  LIG1        0.0033
     24 O           2.5960    1.7420    0.0000 O.3     1  LIG1       -0.4684
     25 C           3.4540    1.2420    0.0000 C.3     1  LIG1        0.2526
     26 O           0.8670    2.7460    0.0000 O.3     1  LIG1       -0.4684
     27 C           1.7250    3.2330    0.0000 C.3     1  LIG1        0.2526
@<TRIPOS>BOND
     1     1     2   ar
     2     1     6   ar
     3     1    18    1
     4     2     3   ar
     5     2    13   ar
     6     3     4   ar
     7     3    10   ar
     8     4     5   ar
     9     5     6   ar
    10     5     7    1
    11     7     8   ar
    12     7     9   ar
    13    10    11   ar
    14    11    12   ar
    15    12    13   ar
    16    12    17   ar
    17    13    14   ar
    18    14    15   ar
    19    15    16   ar
    20    16    17   ar
    21    18    19   ar
    22    18    23   ar
    23    19    20   ar
    24    20    21   ar
    25    20    26    1
    26    21    22   ar
    27    21    24    1
    28    22    23   ar
    29    24    25    1
    30    26    27    1
