@<TRIPOS>MOLECULE
31575_ChemDiv_5058-0005
 19 21 0 0 0
SMALL
GASTEIGER
Energy = 0

@<TRIPOS>ATOM
      1 N          -0.7500    0.1540    0.0000 N.ar    1  LIG1       -0.2808
      2 C          -0.9000    1.1460    0.0000 C.ar    1  LIG1        0.2927
      3 S          -1.9210    1.3080    0.0000 S.2     1  LIG1       -0.0260
      4 C          -2.3540    0.4170    0.0000 C.ar    1  LIG1        0.0497
      5 C          -1.6580   -0.2960    0.0000 C.ar    1  LIG1        0.0695
      6 C          -1.9040   -1.2670    0.0000 C.ar    1  LIG1        0.0178
      7 C          -2.8750   -1.5250    0.0000 C.ar    1  LIG1        0.0015
      8 C          -3.5830   -0.8040    0.0000 C.ar    1  LIG1        0.0006
      9 C          -3.3170    0.1540    0.0000 C.ar    1  LIG1        0.0081
     10 O          -0.2040    1.8380    0.0000 O.2     1  LIG1       -0.2594
     11 C           0.1040   -0.3580    0.0000 C.3     1  LIG1        0.1946
     12 C           0.9830    0.1540    0.0000 C.2     1  LIG1        0.2490
     13 N           1.8460   -0.3460    0.0000 N.am    1  LIG1       -0.2728
     14 C           2.7130    0.1540    0.0000 C.3     1  LIG1        0.1255
     15 C           3.5670   -0.3330    0.0000 C.3     1  LIG1        0.1636
     16 O           3.5790   -1.3290    0.0000 O.3     1  LIG1       -0.3501
     17 C           2.7170   -1.8330    0.0000 C.3     1  LIG1        0.1636
     18 C           1.8580   -1.3460    0.0000 C.3     1  LIG1        0.1255
     19 O           0.9830    1.1460    0.0000 O.2     1  LIG1       -0.2728
@<TRIPOS>BOND
     1     1     2   ar
     2     1     5   ar
     3     1    11    1
     4     2     3   ar
     5     2    10    2
     6     3     4   ar
     7     4     5   ar
     8     4     9   ar
     9     5     6   ar
    10     6     7   ar
    11     7     8   ar
    12     8     9   ar
    13    11    12    1
    14    12    13   am
    15    12    19    2
    16    13    14    1
    17    13    18    1
    18    14    15    1
    19    15    16    1
    20    16    17    1
    21    17    18    1
