@<TRIPOS>MOLECULE
31581_ChemDiv_8016-0551
 26 30 0 0 0
SMALL
GASTEIGER
Energy = 0

@<TRIPOS>ATOM
      1 N           3.0290    0.7460    0.0000 N.ar    1  LIG1       -0.2808
      2 C           3.9420    1.1460    0.0000 C.ar    1  LIG1        0.2927
      3 S           4.5920    0.4380    0.0000 S.2     1  LIG1       -0.0260
      4 C           4.1170   -0.4250    0.0000 C.ar    1  LIG1        0.0497
      5 C           3.1290   -0.2420    0.0000 C.ar    1  LIG1        0.0695
      6 C           2.4630   -0.9540    0.0000 C.ar    1  LIG1        0.0178
      7 C           2.7670   -1.8880    0.0000 C.ar    1  LIG1        0.0015
      8 C           3.7630   -2.1170    0.0000 C.ar    1  LIG1        0.0006
      9 C           4.4170   -1.3790    0.0000 C.ar    1  LIG1        0.0081
     10 O           4.1750    2.1210    0.0000 O.2     1  LIG1       -0.2594
     11 C           2.1290    1.2750    0.0000 C.3     1  LIG1        0.1962
     12 C           1.2630    0.7580    0.0000 C.2     1  LIG1        0.2646
     13 O           1.2630   -0.2170    0.0000 O.2     1  LIG1       -0.2712
     14 N           0.4000    1.2710    0.0000 N.am    1  LIG1       -0.2038
     15 C          -0.4580    0.7460    0.0000 C.3     1  LIG1        0.1152
     16 C          -1.3000    1.2710    0.0000 C.3     1  LIG1        0.0234
     17 C          -2.1750    0.7960    0.0000 C.3     1  LIG1        0.0017
     18 C          -3.0330    0.3210    0.0000 C.3     1  LIG1        0.0001
     19 C          -3.7710    0.6960    0.0000 C.3     1  LIG1        0.0000
     20 C          -3.8500    1.5880    0.0000 C.3     1  LIG1        0.0000
     21 C          -3.0750    2.0580    0.0000 C.3     1  LIG1        0.0000
     22 C          -2.2580    1.6960    0.0000 C.3     1  LIG1        0.0001
     23 C          -3.5250    1.3710    0.0000 C.3     1  LIG1        0.0000
     24 C          -3.4130    0.1210    0.0000 C.3     1  LIG1        0.0000
     25 C          -2.2750   -0.1880    0.0000 C.3     1  LIG1        0.0001
     26 C          -4.5960   -0.1790    0.0000 C.3     1  LIG1        0.0000
@<TRIPOS>BOND
     1     1     2   ar
     2     1     5   ar
     3     1    11    1
     4     2     3   ar
     5     2    10    2
     6     3     4   ar
     7     4     5   ar
     8     4     9   ar
     9     5     6   ar
    10     6     7   ar
    11     7     8   ar
    12     8     9   ar
    13    11    12    1
    14    12    13    2
    15    12    14   am
    16    14    15    1
    17    15    16    1
    18    16    17    1
    19    17    18    1
    20    17    22    1
    21    17    25    1
    22    18    19    1
    23    19    20    1
    24    19    26    1
    25    20    21    1
    26    21    22    1
    27    21    23    1
    28    23    24    1
    29    24    25    1
    30    24    26    1
