@<TRIPOS>MOLECULE
31585_ChemDiv_4912-1039
 24 25 0 0 0
SMALL
GASTEIGER
Energy = 0

@<TRIPOS>ATOM
      1 S          -5.2210   -0.8630    0.0000 S.O2    1  LIG1       -0.0082
      2 C          -4.1580   -0.7000    0.0000 C.3     1  LIG1        0.1725
      3 C          -3.9790    0.2380    0.0000 C.3     1  LIG1        0.1240
      4 N          -3.0960    0.7580    0.0000 N.am    1  LIG1       -0.1686
      5 C          -2.2460    0.2630    0.0000 C.2     1  LIG1        0.4212
      6 O          -2.2460   -0.7130    0.0000 O.2     1  LIG1       -0.2246
      7 O          -1.3630    0.7580    0.0000 O.3     1  LIG1       -0.4294
      8 C          -0.5250    0.2630    0.0000 C.3     1  LIG1        0.2574
      9 C           0.3380    0.7580    0.0000 C.3     1  LIG1        0.2574
     10 O           1.1880    0.2630    0.0000 O.3     1  LIG1       -0.4294
     11 C           2.0290    0.7580    0.0000 C.2     1  LIG1        0.4212
     12 N           2.8790    0.2630    0.0000 N.am    1  LIG1       -0.1686
     13 C           3.7170    0.7170    0.0000 C.3     1  LIG1        0.1240
     14 C           4.6580    0.2000    0.0000 C.3     1  LIG1        0.1725
     15 S           5.3500    0.8750    0.0000 S.O2    1  LIG1       -0.0082
     16 O           5.9500    0.0790    0.0000 O.2     1  LIG1       -0.1729
     17 O           6.1290    1.5460    0.0000 O.2     1  LIG1       -0.1729
     18 C           4.9460    1.8460    0.0000 C.3     1  LIG1        0.1527
     19 C           3.9420    1.7130    0.0000 C.3     1  LIG1        0.0489
     20 O           2.0290    1.7290    0.0000 O.2     1  LIG1       -0.2246
     21 C          -4.8580    0.7330    0.0000 C.3     1  LIG1        0.0489
     22 C          -5.5960    0.0380    0.0000 C.3     1  LIG1        0.1527
     23 O          -5.0420   -1.8420    0.0000 O.2     1  LIG1       -0.1729
     24 O          -6.1290   -1.2750    0.0000 O.2     1  LIG1       -0.1729
@<TRIPOS>BOND
     1     1     2    1
     2     1    22    1
     3     1    23    2
     4     1    24    2
     5     2     3    1
     6     3     4    1
     7     3    21    1
     8     4     5   am
     9     5     6    2
    10     5     7    1
    11     7     8    1
    12     8     9    1
    13     9    10    1
    14    10    11    1
    15    11    12   am
    16    11    20    2
    17    12    13    1
    18    13    14    1
    19    13    19    1
    20    14    15    1
    21    15    16    2
    22    15    17    2
    23    15    18    1
    24    18    19    1
    25    21    22    1
