@<TRIPOS>MOLECULE
31583_ChemDiv_8016-1353
 25 27 0 0 0
SMALL
GASTEIGER
Energy = 0

@<TRIPOS>ATOM
      1 N           3.6040   -0.0170    0.0000 N.ar    1  LIG1       -0.2808
      2 C           4.5210    0.3830    0.0000 C.ar    1  LIG1        0.2927
      3 S           5.1750   -0.3170    0.0000 S.2     1  LIG1       -0.0260
      4 C           4.6880   -1.1920    0.0000 C.ar    1  LIG1        0.0497
      5 C           3.7130   -1.0130    0.0000 C.ar    1  LIG1        0.0695
      6 C           3.0290   -1.7250    0.0000 C.ar    1  LIG1        0.0178
      7 C           3.3420   -2.6630    0.0000 C.ar    1  LIG1        0.0015
      8 C           4.3380   -2.8920    0.0000 C.ar    1  LIG1        0.0006
      9 C           5.0000   -2.1540    0.0000 C.ar    1  LIG1        0.0081
     10 O           4.7500    1.3630    0.0000 O.2     1  LIG1       -0.2594
     11 C           2.7040    0.5210    0.0000 C.3     1  LIG1        0.1962
     12 C           1.8290   -0.0040    0.0000 C.2     1  LIG1        0.2647
     13 O           1.8170   -1.0000    0.0000 O.2     1  LIG1       -0.2712
     14 N           0.9540    0.5080    0.0000 N.am    1  LIG1       -0.1998
     15 C           0.0790    0.0080    0.0000 C.3     1  LIG1        0.1624
     16 C          -0.7960    0.4960    0.0000 C.3     1  LIG1        0.2287
     17 O          -1.6460   -0.0170    0.0000 O.3     1  LIG1       -0.4735
     18 C          -2.5000    0.4710    0.0000 C.ar    1  LIG1        0.1388
     19 C          -2.5250    1.4630    0.0000 C.ar    1  LIG1        0.0400
     20 C          -3.4130    1.9460    0.0000 C.ar    1  LIG1        0.0400
     21 C          -4.2750    1.4380    0.0000 C.ar    1  LIG1        0.1389
     22 C          -4.2330    0.4580    0.0000 C.ar    1  LIG1        0.0400
     23 C          -3.3580   -0.0290    0.0000 C.ar    1  LIG1        0.0400
     24 O          -5.1580    1.9000    0.0000 O.3     1  LIG1       -0.4714
     25 C          -5.1790    2.8960    0.0000 C.3     1  LIG1        0.2525
@<TRIPOS>BOND
     1     1     2   ar
     2     1     5   ar
     3     1    11    1
     4     2     3   ar
     5     2    10    2
     6     3     4   ar
     7     4     5   ar
     8     4     9   ar
     9     5     6   ar
    10     6     7   ar
    11     7     8   ar
    12     8     9   ar
    13    11    12    1
    14    12    13    2
    15    12    14   am
    16    14    15    1
    17    15    16    1
    18    16    17    1
    19    17    18    1
    20    18    19   ar
    21    18    23   ar
    22    19    20   ar
    23    20    21   ar
    24    21    22   ar
    25    21    24    1
    26    22    23   ar
    27    24    25    1
