@<TRIPOS>MOLECULE
31597_ChemDiv_D112-0116
 15 16 0 0 0
SMALL
GASTEIGER
Energy = 0

@<TRIPOS>ATOM
      1 S          -1.5040   -1.2710    0.0000 S.O2    1  LIG1       -0.0059
      2 C          -0.6880   -0.6880    0.0000 C.3     1  LIG1        0.1708
      3 C          -1.0000    0.2670    0.0000 C.3     1  LIG1        0.1283
      4 C          -2.0000    0.2750    0.0000 C.3     1  LIG1        0.1930
      5 C          -2.3130   -0.6750    0.0000 C.3     1  LIG1        0.1851
      6 O          -2.5790    1.0880    0.0000 O.3     1  LIG1       -0.2197
      7 N          -0.4040    1.0750    0.0000 N.3     1  LIG1       -0.2160
      8 C           0.5880    0.9630    0.0000 C.3     1  LIG1        0.0852
      9 C           0.9920    0.0500    0.0000 C.3     1  LIG1        0.0864
     10 C           1.9790   -0.0630    0.0000 C.3     1  LIG1        0.2020
     11 N           2.5750    0.7380    0.0000 N.4     1  LIG1        0.4481
     12 C           2.1750    1.6540    0.0000 C.3     1  LIG1        0.2020
     13 C           1.1790    1.7750    0.0000 C.3     1  LIG1        0.0864
     14 O          -2.3750   -1.7630    0.0000 O.2     1  LIG1       -0.1729
     15 O          -0.6380   -1.7710    0.0000 O.2     1  LIG1       -0.1729
@<TRIPOS>BOND
     1     1     2    1
     2     1     5    1
     3     1    14    2
     4     1    15    2
     5     2     3    1
     6     3     4    1
     7     3     7    1
     8     4     5    1
     9     4     6    1
    10     7     8    1
    11     8     9    1
    12     8    13    1
    13     9    10    1
    14    10    11    1
    15    11    12    1
    16    12    13    1
