@<TRIPOS>MOLECULE
31596_ChemDiv_5227-4744
 31 34 0 0 0
SMALL
GASTEIGER
Energy = 0

@<TRIPOS>ATOM
      1 C          -2.9830   -0.0080    0.0000 C.ar    1  LIG1        0.0848
      2 N          -2.1290    0.4880    0.0000 N.ar    1  LIG1       -0.2212
      3 C          -1.2790   -0.0080    0.0000 C.ar    1  LIG1        0.1904
      4 N          -1.2790   -1.0210    0.0000 N.ar    1  LIG1       -0.2212
      5 C          -2.1630   -1.5130    0.0000 C.ar    1  LIG1        0.0849
      6 C          -3.0130   -1.0210    0.0000 C.ar    1  LIG1        0.0354
      7 C          -3.8670   -1.5130    0.0000 C.ar    1  LIG1        0.0030
      8 C          -3.8670   -2.5290    0.0000 C.ar    1  LIG1        0.0001
      9 C          -3.0130   -3.0130    0.0000 C.ar    1  LIG1        0.0015
     10 C          -2.1630   -2.5290    0.0000 C.ar    1  LIG1        0.0192
     11 S          -0.4250    0.4880    0.0000 S.3     1  LIG1       -0.0658
     12 C          -0.4250    1.5040    0.0000 C.3     1  LIG1        0.1516
     13 C           0.4290    1.9830    0.0000 C.2     1  LIG1        0.2531
     14 N           1.2920    1.5040    0.0000 N.am    1  LIG1       -0.1998
     15 C           1.2920    0.4880    0.0000 C.3     1  LIG1        0.1415
     16 C           2.1460   -0.0080    0.0000 C.ar    1  LIG1       -0.0006
     17 C           2.1080   -1.0210    0.0000 C.ar    1  LIG1       -0.0025
     18 C           2.9710   -1.5130    0.0000 C.ar    1  LIG1        0.0009
     19 C           3.8540   -1.0210    0.0000 C.ar    1  LIG1        0.0140
     20 C           4.7080   -1.5130    0.0000 C.2     1  LIG1        0.0729
     21 O           5.5960   -1.0210    0.0000 O.co2   1  LIG1       -0.5446
     22 O           4.7080   -2.5290    0.0000 O.co2   1  LIG1       -0.5446
     23 C           3.8540   -0.0080    0.0000 C.ar    1  LIG1        0.0009
     24 C           2.9960    0.4880    0.0000 C.ar    1  LIG1       -0.0025
     25 O           0.4080    3.0170    0.0000 O.2     1  LIG1       -0.2724
     26 C          -3.8420    0.4880    0.0000 C.ar    1  LIG1        0.0178
     27 C          -4.7290   -0.0080    0.0000 C.ar    1  LIG1        0.0015
     28 C          -5.6000    0.4880    0.0000 C.ar    1  LIG1        0.0000
     29 C          -5.5580    1.5040    0.0000 C.ar    1  LIG1        0.0000
     30 C          -4.7000    1.9830    0.0000 C.ar    1  LIG1        0.0000
     31 C          -3.8420    1.5040    0.0000 C.ar    1  LIG1        0.0015
@<TRIPOS>BOND
     1     1     2   ar
     2     1     6   ar
     3     1    26    1
     4     2     3   ar
     5     3     4   ar
     6     3    11    1
     7     4     5   ar
     8     5     6   ar
     9     5    10   ar
    10     6     7   ar
    11     7     8   ar
    12     8     9   ar
    13     9    10   ar
    14    11    12    1
    15    12    13    1
    16    13    14   am
    17    13    25    2
    18    14    15    1
    19    15    16    1
    20    16    17   ar
    21    16    24   ar
    22    17    18   ar
    23    18    19   ar
    24    19    20    1
    25    19    23   ar
    26    20    21   ar
    27    20    22   ar
    28    23    24   ar
    29    26    27   ar
    30    26    31   ar
    31    27    28   ar
    32    28    29   ar
    33    29    30   ar
    34    30    31   ar
