@<TRIPOS>MOLECULE
31595_ChemDiv_D087-0019
 17 17 0 0 0
SMALL
GASTEIGER
Energy = 0

@<TRIPOS>ATOM
      1 S          -0.1130    1.1920    0.0000 S.O2    1  LIG1        0.0439
      2 C          -1.0580    0.8880    0.0000 C.3     1  LIG1        0.1710
      3 C          -1.3580   -0.0580    0.0000 C.3     1  LIG1        0.1759
      4 S          -2.3500   -0.0580    0.0000 S.O2    1  LIG1       -0.0082
      5 O          -2.3580   -1.0460    0.0000 O.2     1  LIG1       -0.1729
      6 O          -3.3080   -0.3130    0.0000 O.2     1  LIG1       -0.1729
      7 C          -2.6500    0.8880    0.0000 C.3     1  LIG1        0.1528
      8 C          -1.8540    1.4710    0.0000 C.3     1  LIG1        0.0523
      9 N           0.6330    0.5000    0.0000 N.3     1  LIG1       -0.1594
     10 C           1.6170    0.7960    0.0000 C.3     1  LIG1        0.0954
     11 C           2.3500    0.0920    0.0000 C.3     1  LIG1        0.0191
     12 C           3.3040    0.3790    0.0000 C.3     1  LIG1        0.0015
     13 C           0.4000   -0.4920    0.0000 C.3     1  LIG1        0.0954
     14 C           1.1500   -1.1920    0.0000 C.3     1  LIG1        0.0191
     15 C           0.9170   -2.1580    0.0000 C.3     1  LIG1        0.0015
     16 O           0.1000    2.1630    0.0000 O.2     1  LIG1       -0.1573
     17 O          -0.0540    0.2040    0.0000 O.2     1  LIG1       -0.1573
@<TRIPOS>BOND
     1     1     2    1
     2     1     9    1
     3     1    16    2
     4     1    17    2
     5     2     3    1
     6     2     8    1
     7     3     4    1
     8     4     5    2
     9     4     6    2
    10     4     7    1
    11     7     8    1
    12     9    10    1
    13     9    13    1
    14    10    11    1
    15    11    12    1
    16    13    14    1
    17    14    15    1
