@<TRIPOS>MOLECULE
31598_ChemDiv_5227-4857
 27 30 0 0 0
SMALL
GASTEIGER
Energy = 0

@<TRIPOS>ATOM
      1 C           1.8000    0.5000    0.0000 C.ar    1  LIG1        0.1071
      2 S           1.8000   -0.4750    0.0000 S.3     1  LIG1       -0.0851
      3 C           2.6580   -0.9750    0.0000 C.3     1  LIG1        0.1504
      4 C           2.6580   -1.9920    0.0000 C.2     1  LIG1        0.2570
      5 N           1.8000   -2.4960    0.0000 N.am    1  LIG1       -0.1785
      6 C           0.9210   -1.9880    0.0000 C.ar    1  LIG1        0.0735
      7 C           0.9210   -0.9920    0.0000 C.ar    1  LIG1        0.0179
      8 C           0.0710   -0.4750    0.0000 C.ar    1  LIG1        0.0159
      9 C          -0.8080   -0.9750    0.0000 C.ar    1  LIG1        0.0481
     10 N          -1.8080   -0.9750    0.0000 N.pl3   1  LIG1       -0.3028
     11 C          -2.6630   -0.4750    0.0000 C.3     1  LIG1        0.1231
     12 C          -3.5330   -0.9750    0.0000 C.3     1  LIG1        0.1636
     13 O          -3.5170   -1.9880    0.0000 O.3     1  LIG1       -0.3501
     14 C          -2.6630   -2.4750    0.0000 C.3     1  LIG1        0.1636
     15 C          -1.8080   -1.9880    0.0000 C.3     1  LIG1        0.1231
     16 C          -0.8080   -1.9920    0.0000 C.ar    1  LIG1        0.0159
     17 C           0.0710   -2.4960    0.0000 C.ar    1  LIG1        0.0179
     18 O           3.5290   -2.4750    0.0000 O.2     1  LIG1       -0.2720
     19 N           2.6750    1.0130    0.0000 N.ar    1  LIG1       -0.2376
     20 C           2.6580    1.9960    0.0000 C.ar    1  LIG1        0.0994
     21 C           1.8000    2.5000    0.0000 C.ar    1  LIG1        0.0207
     22 C           0.9210    1.9960    0.0000 C.ar    1  LIG1        0.0035
     23 C           0.9210    1.0250    0.0000 C.ar    1  LIG1        0.0236
     24 C           0.0710    0.5000    0.0000 C.ar    1  LIG1        0.0020
     25 C          -0.8080    1.0250    0.0000 C.ar    1  LIG1        0.0001
     26 C          -0.8080    1.9960    0.0000 C.ar    1  LIG1        0.0000
     27 C           0.0710    2.5000    0.0000 C.ar    1  LIG1        0.0001
@<TRIPOS>BOND
     1     1     2    1
     2     1    19   ar
     3     1    23   ar
     4     2     3    1
     5     3     4    1
     6     4     5   am
     7     4    18    2
     8     5     6    1
     9     6     7   ar
    10     6    17   ar
    11     7     8   ar
    12     8     9   ar
    13     9    10    1
    14     9    16   ar
    15    10    11    1
    16    10    15    1
    17    11    12    1
    18    12    13    1
    19    13    14    1
    20    14    15    1
    21    16    17   ar
    22    19    20   ar
    23    20    21   ar
    24    21    22   ar
    25    22    23   ar
    26    22    27   ar
    27    23    24   ar
    28    24    25   ar
    29    25    26   ar
    30    26    27   ar
