@<TRIPOS>MOLECULE
31593_ChemDiv_8015-3421
 17 18 0 0 0
SMALL
GASTEIGER
Energy = 0

@<TRIPOS>ATOM
      1 S          -2.2330   -0.8790    0.0000 S.O2    1  LIG1       -0.0059
      2 C          -1.4290   -0.2790    0.0000 C.3     1  LIG1        0.1708
      3 C          -1.7420    0.6500    0.0000 C.3     1  LIG1        0.1284
      4 C          -2.7210    0.6500    0.0000 C.3     1  LIG1        0.1930
      5 C          -3.0330   -0.2790    0.0000 C.3     1  LIG1        0.1851
      6 O          -3.2130    1.5130    0.0000 O.3     1  LIG1       -0.2197
      7 N          -1.2380    1.5130    0.0000 N.3     1  LIG1       -0.2147
      8 C          -0.2580    1.5000    0.0000 C.3     1  LIG1        0.0935
      9 C           0.2380    0.6500    0.0000 C.3     1  LIG1        0.0451
     10 C           1.2170    0.6500    0.0000 C.ar    1  LIG1       -0.0207
     11 C           1.7250    1.5000    0.0000 C.ar    1  LIG1       -0.0042
     12 C           2.7040    1.5000    0.0000 C.ar    1  LIG1       -0.0003
     13 C           3.2080    0.6500    0.0000 C.ar    1  LIG1       -0.0000
     14 C           2.7040   -0.2170    0.0000 C.ar    1  LIG1       -0.0003
     15 C           1.7250   -0.2170    0.0000 C.ar    1  LIG1       -0.0042
     16 O          -1.3750   -1.4960    0.0000 O.2     1  LIG1       -0.1729
     17 O          -3.1630   -1.5080    0.0000 O.2     1  LIG1       -0.1729
@<TRIPOS>BOND
     1     1     2    1
     2     1     5    1
     3     1    16    2
     4     1    17    2
     5     2     3    1
     6     3     4    1
     7     3     7    1
     8     4     5    1
     9     4     6    1
    10     7     8    1
    11     8     9    1
    12     9    10    1
    13    10    11   ar
    14    10    15   ar
    15    11    12   ar
    16    12    13   ar
    17    13    14   ar
    18    14    15   ar
