@<TRIPOS>MOLECULE
31591_ChemDiv_8015-2504
 24 26 0 0 0
SMALL
GASTEIGER
Energy = 0

@<TRIPOS>ATOM
      1 S          -2.3330   -2.6540    0.0000 S.O2    1  LIG1       -0.0083
      2 C          -1.5210   -2.0670    0.0000 C.3     1  LIG1        0.1705
      3 C          -1.8290   -1.1130    0.0000 C.3     1  LIG1        0.1007
      4 N          -1.3750   -0.2290    0.0000 N.am    1  LIG1       -0.2771
      5 C          -0.3710   -0.2290    0.0000 C.2     1  LIG1        0.2334
      6 C           0.1290    0.6420    0.0000 C.3     1  LIG1        0.1211
      7 C           1.1380    0.6420    0.0000 C.ar    1  LIG1       -0.0098
      8 C           1.6420    1.5080    0.0000 C.ar    1  LIG1       -0.0035
      9 C           2.6420    1.5080    0.0000 C.ar    1  LIG1       -0.0003
     10 C           3.1460    0.6420    0.0000 C.ar    1  LIG1       -0.0000
     11 C           2.6420   -0.2290    0.0000 C.ar    1  LIG1       -0.0003
     12 C           1.6420   -0.2290    0.0000 C.ar    1  LIG1       -0.0035
     13 C          -0.3710    1.5080    0.0000 C.ar    1  LIG1       -0.0098
     14 C          -1.3750    1.5080    0.0000 C.ar    1  LIG1       -0.0035
     15 C          -1.8750    2.3830    0.0000 C.ar    1  LIG1       -0.0003
     16 C          -1.3750    3.2500    0.0000 C.ar    1  LIG1       -0.0000
     17 C          -0.3710    3.2540    0.0000 C.ar    1  LIG1       -0.0003
     18 C           0.1290    2.3830    0.0000 C.ar    1  LIG1       -0.0035
     19 O           0.1290   -1.1000    0.0000 O.2     1  LIG1       -0.2742
     20 C          -1.8750    0.6420    0.0000 C.3     1  LIG1        0.1149
     21 C          -2.8380   -1.1130    0.0000 C.3     1  LIG1        0.0469
     22 C          -3.1500   -2.0670    0.0000 C.3     1  LIG1        0.1527
     23 O          -3.1080   -3.1880    0.0000 O.2     1  LIG1       -0.1729
     24 O          -1.5750   -3.2500    0.0000 O.2     1  LIG1       -0.1729
@<TRIPOS>BOND
     1     1     2    1
     2     1    22    1
     3     1    23    2
     4     1    24    2
     5     2     3    1
     6     3     4    1
     7     3    21    1
     8     4     5   am
     9     4    20    1
    10     5     6    1
    11     5    19    2
    12     6     7    1
    13     6    13    1
    14     7     8   ar
    15     7    12   ar
    16     8     9   ar
    17     9    10   ar
    18    10    11   ar
    19    11    12   ar
    20    13    14   ar
    21    13    18   ar
    22    14    15   ar
    23    15    16   ar
    24    16    17   ar
    25    17    18   ar
    26    21    22    1
