@<TRIPOS>MOLECULE
31601_ChemDiv_8016-2166
 27 31 0 0 0
SMALL
GASTEIGER
Energy = 0

@<TRIPOS>ATOM
      1 N           2.3960    0.2710    0.0000 N.ar    1  LIG1       -0.2808
      2 C           3.3210    0.6710    0.0000 C.ar    1  LIG1        0.2927
      3 S           3.9710   -0.0330    0.0000 S.2     1  LIG1       -0.0260
      4 C           3.4920   -0.9170    0.0000 C.ar    1  LIG1        0.0497
      5 C           2.5080   -0.7290    0.0000 C.ar    1  LIG1        0.0695
      6 C           1.8290   -1.4460    0.0000 C.ar    1  LIG1        0.0178
      7 C           2.1460   -2.3830    0.0000 C.ar    1  LIG1        0.0015
      8 C           3.1330   -2.6170    0.0000 C.ar    1  LIG1        0.0006
      9 C           3.8080   -1.8790    0.0000 C.ar    1  LIG1        0.0081
     10 O           3.5460    1.6580    0.0000 O.2     1  LIG1       -0.2594
     11 C           1.4960    0.8000    0.0000 C.3     1  LIG1        0.1962
     12 C           0.6210    0.2830    0.0000 C.2     1  LIG1        0.2645
     13 N          -0.2460    0.7960    0.0000 N.am    1  LIG1       -0.2056
     14 C          -1.1080    0.2710    0.0000 C.3     1  LIG1        0.0953
     15 C          -1.9670    0.7960    0.0000 C.3     1  LIG1        0.0185
     16 C          -1.2250    1.3000    0.0000 C.3     1  LIG1        0.0017
     17 C          -1.3210    2.1960    0.0000 C.3     1  LIG1        0.0001
     18 C          -2.0960    2.6210    0.0000 C.3     1  LIG1        0.0000
     19 C          -2.8210    2.1210    0.0000 C.3     1  LIG1        0.0001
     20 C          -2.7830    1.2960    0.0000 C.3     1  LIG1        0.0017
     21 C          -3.9750    2.4000    0.0000 C.3     1  LIG1        0.0000
     22 C          -3.1380    1.5080    0.0000 C.3     1  LIG1        0.0001
     23 C          -2.8580    0.3960    0.0000 C.3     1  LIG1        0.0017
     24 C          -2.1080    2.2250    0.0000 C.3     1  LIG1        0.0000
     25 C          -1.1080   -0.7540    0.0000 C.3     1  LIG1        0.0217
     26 C          -0.2630   -1.2710    0.0000 C.3     1  LIG1        0.0018
     27 O           0.6330   -0.7080    0.0000 O.2     1  LIG1       -0.2712
@<TRIPOS>BOND
     1     1     2   ar
     2     1     5   ar
     3     1    11    1
     4     2     3   ar
     5     2    10    2
     6     3     4   ar
     7     4     5   ar
     8     4     9   ar
     9     5     6   ar
    10     6     7   ar
    11     7     8   ar
    12     8     9   ar
    13    11    12    1
    14    12    13   am
    15    12    27    2
    16    13    14    1
    17    14    15    1
    18    14    25    1
    19    15    16    1
    20    15    20    1
    21    15    23    1
    22    16    17    1
    23    17    18    1
    24    17    24    1
    25    18    19    1
    26    19    20    1
    27    19    21    1
    28    21    22    1
    29    22    23    1
    30    22    24    1
    31    25    26    1
