@<TRIPOS>MOLECULE
31609_ChemDiv_C187-0172
 25 27 0 0 0
SMALL
GASTEIGER
Energy = 0

@<TRIPOS>ATOM
      1 N          -0.9380   -1.9290    0.0000 N.ar    1  LIG1       -0.2808
      2 C          -0.3540   -2.7460    0.0000 C.ar    1  LIG1        0.2927
      3 S          -0.9380   -3.5500    0.0000 S.2     1  LIG1       -0.0260
      4 C          -1.8880   -3.2420    0.0000 C.ar    1  LIG1        0.0497
      5 C          -1.8880   -2.2420    0.0000 C.ar    1  LIG1        0.0695
      6 C          -2.7460   -1.7380    0.0000 C.ar    1  LIG1        0.0178
      7 C          -3.6250   -2.2420    0.0000 C.ar    1  LIG1        0.0015
      8 C          -3.6250   -3.2420    0.0000 C.ar    1  LIG1        0.0006
      9 C          -2.7460   -3.7420    0.0000 C.ar    1  LIG1        0.0081
     10 O           0.6500   -2.7630    0.0000 O.2     1  LIG1       -0.2594
     11 C          -0.6210   -0.9710    0.0000 C.3     1  LIG1        0.1962
     12 C           0.3630   -0.7580    0.0000 C.2     1  LIG1        0.2649
     13 N           0.6750    0.1920    0.0000 N.am    1  LIG1       -0.1988
     14 C           1.6500    0.4000    0.0000 C.3     1  LIG1        0.1446
     15 C           1.9670    1.3420    0.0000 C.ar    1  LIG1        0.0365
     16 C           2.9460    1.5580    0.0000 C.ar    1  LIG1        0.1366
     17 C           3.2540    2.5080    0.0000 C.ar    1  LIG1        0.0397
     18 C           2.5880    3.2630    0.0000 C.ar    1  LIG1        0.0400
     19 C           1.6000    3.0290    0.0000 C.ar    1  LIG1        0.1387
     20 C           1.3000    2.0920    0.0000 C.ar    1  LIG1        0.0374
     21 O           0.9170    3.7460    0.0000 O.3     1  LIG1       -0.4714
     22 C          -0.0380    3.5130    0.0000 C.3     1  LIG1        0.2525
     23 O           3.6210    0.8210    0.0000 O.3     1  LIG1       -0.4717
     24 C           3.3130   -0.1250    0.0000 C.3     1  LIG1        0.2525
     25 O           1.0330   -1.5040    0.0000 O.2     1  LIG1       -0.2712
@<TRIPOS>BOND
     1     1     2   ar
     2     1     5   ar
     3     1    11    1
     4     2     3   ar
     5     2    10    2
     6     3     4   ar
     7     4     5   ar
     8     4     9   ar
     9     5     6   ar
    10     6     7   ar
    11     7     8   ar
    12     8     9   ar
    13    11    12    1
    14    12    13   am
    15    12    25    2
    16    13    14    1
    17    14    15    1
    18    15    16   ar
    19    15    20   ar
    20    16    17   ar
    21    16    23    1
    22    17    18   ar
    23    18    19   ar
    24    19    20   ar
    25    19    21    1
    26    21    22    1
    27    23    24    1
