@<TRIPOS>MOLECULE
31600_ChemDiv_5228-3592
 32 36 0 0 0
SMALL
GASTEIGER
Energy = 0

@<TRIPOS>ATOM
      1 C          -2.2080    1.7080    0.0000 C.3     1  LIG1        0.2037
      2 O          -1.2830    1.7080    0.0000 O.3     1  LIG1       -0.4469
      3 C          -1.2830    2.6500    0.0000 C.2     1  LIG1        0.3162
      4 C          -2.2250    2.6630    0.0000 C.3     1  LIG1        0.0933
      5 C          -2.9040    3.3290    0.0000 C.3     1  LIG1        0.0513
      6 C          -2.6630    4.2330    0.0000 C.3     1  LIG1        0.0045
      7 C          -3.8460    3.3290    0.0000 C.3     1  LIG1        0.0045
      8 C          -3.0380    2.1790    0.0000 C.3     1  LIG1        0.0148
      9 C          -3.0250    1.2380    0.0000 C.3     1  LIG1        0.0497
     10 C          -1.9960    3.5710    0.0000 C.3     1  LIG1        0.0112
     11 O          -0.6170    3.3330    0.0000 O.2     1  LIG1       -0.2501
     12 C          -2.2080    0.7580    0.0000 C.2     1  LIG1        0.2623
     13 N          -1.3460    0.2540    0.0000 N.am    1  LIG1       -0.2653
     14 C          -1.3460   -0.7420    0.0000 C.3     1  LIG1        0.1566
     15 C          -0.4960   -1.2290    0.0000 C.3     1  LIG1        0.1612
     16 N           0.3710   -0.7420    0.0000 N.4     1  LIG1        0.3820
     17 C           1.2460   -1.2460    0.0000 C.3     1  LIG1        0.1331
     18 C           2.1130   -0.7420    0.0000 C.ar    1  LIG1        0.0328
     19 C           2.9750   -1.2460    0.0000 C.ar    1  LIG1        0.0016
     20 C           3.8420   -0.7460    0.0000 C.ar    1  LIG1       -0.0001
     21 C           3.8420    0.2540    0.0000 C.ar    1  LIG1       -0.0000
     22 C           2.9750    0.7580    0.0000 C.ar    1  LIG1       -0.0001
     23 C           2.1130    0.2540    0.0000 C.ar    1  LIG1        0.0016
     24 C           1.2380   -2.2420    0.0000 C.ar    1  LIG1        0.0328
     25 C           0.3670   -2.7330    0.0000 C.ar    1  LIG1        0.0016
     26 C           0.3670   -3.7330    0.0000 C.ar    1  LIG1       -0.0001
     27 C           1.2380   -4.2330    0.0000 C.ar    1  LIG1       -0.0000
     28 C           2.1130   -3.7330    0.0000 C.ar    1  LIG1       -0.0001
     29 C           2.1000   -2.7330    0.0000 C.ar    1  LIG1        0.0016
     30 C           0.3710    0.2540    0.0000 C.3     1  LIG1        0.1612
     31 C          -0.4960    0.7710    0.0000 C.3     1  LIG1        0.1566
     32 O          -3.0210    0.2830    0.0000 O.2     1  LIG1       -0.2711
@<TRIPOS>BOND
     1     1     2    1
     2     1     5    1
     3     1     9    1
     4     1    12    1
     5     2     3    1
     6     3     4    1
     7     3    11    2
     8     4     5    1
     9     4     8    1
    10     4    10    1
    11     5     6    1
    12     5     7    1
    13     8     9    1
    14    12    13   am
    15    12    32    2
    16    13    14    1
    17    13    31    1
    18    14    15    1
    19    15    16    1
    20    16    17    1
    21    16    30    1
    22    17    18    1
    23    17    24    1
    24    18    19   ar
    25    18    23   ar
    26    19    20   ar
    27    20    21   ar
    28    21    22   ar
    29    22    23   ar
    30    24    25   ar
    31    24    29   ar
    32    25    26   ar
    33    26    27   ar
    34    27    28   ar
    35    28    29   ar
    36    30    31    1
