@<TRIPOS>MOLECULE
31605_ChemDiv_C187-0160
 22 23 0 0 0
SMALL
GASTEIGER
Energy = 0

@<TRIPOS>ATOM
      1 N          -1.1130   -1.3040    0.0000 N.ar    1  LIG1       -0.2808
      2 C          -0.5290   -2.1210    0.0000 C.ar    1  LIG1        0.2927
      3 S          -1.1130   -2.9210    0.0000 S.2     1  LIG1       -0.0260
      4 C          -2.0670   -2.6170    0.0000 C.ar    1  LIG1        0.0497
      5 C          -2.0670   -1.6170    0.0000 C.ar    1  LIG1        0.0695
      6 C          -2.9250   -1.1130    0.0000 C.ar    1  LIG1        0.0178
      7 C          -3.8040   -1.6170    0.0000 C.ar    1  LIG1        0.0015
      8 C          -3.8040   -2.6170    0.0000 C.ar    1  LIG1        0.0006
      9 C          -2.9250   -3.1170    0.0000 C.ar    1  LIG1        0.0081
     10 O           0.4750   -2.1380    0.0000 O.2     1  LIG1       -0.2594
     11 C          -0.7960   -0.3460    0.0000 C.3     1  LIG1        0.1962
     12 C           0.1880   -0.1330    0.0000 C.2     1  LIG1        0.2648
     13 O           0.8580   -0.8790    0.0000 O.2     1  LIG1       -0.2712
     14 N           0.5000    0.8170    0.0000 N.am    1  LIG1       -0.1974
     15 C           1.4750    1.0250    0.0000 C.3     1  LIG1        0.1775
     16 C           1.7960    1.9670    0.0000 C.3     1  LIG1        0.1627
     17 N           2.7750    2.1830    0.0000 N.4     1  LIG1        0.3834
     18 C           3.4420    1.4500    0.0000 C.3     1  LIG1        0.1389
     19 C           3.1330    0.5210    0.0000 C.3     1  LIG1        0.0627
     20 C           3.8000   -0.2330    0.0000 C.3     1  LIG1        0.0061
     21 C           3.4920   -1.1880    0.0000 C.3     1  LIG1        0.0002
     22 C           3.0830    3.1210    0.0000 C.3     1  LIG1        0.2023
@<TRIPOS>BOND
     1     1     2   ar
     2     1     5   ar
     3     1    11    1
     4     2     3   ar
     5     2    10    2
     6     3     4   ar
     7     4     5   ar
     8     4     9   ar
     9     5     6   ar
    10     6     7   ar
    11     7     8   ar
    12     8     9   ar
    13    11    12    1
    14    12    13    2
    15    12    14   am
    16    14    15    1
    17    15    16    1
    18    16    17    1
    19    17    18    1
    20    17    22    1
    21    18    19    1
    22    19    20    1
    23    20    21    1
