@<TRIPOS>MOLECULE
31603_ChemDiv_8016-2167
 25 29 0 0 0
SMALL
GASTEIGER
Energy = 0

@<TRIPOS>ATOM
      1 N           2.3920    0.2670    0.0000 N.ar    1  LIG1       -0.2808
      2 C           3.3170    0.6710    0.0000 C.ar    1  LIG1        0.2927
      3 S           3.9750   -0.0330    0.0000 S.2     1  LIG1       -0.0260
      4 C           3.4880   -0.9130    0.0000 C.ar    1  LIG1        0.0497
      5 C           2.5040   -0.7250    0.0000 C.ar    1  LIG1        0.0695
      6 C           1.8290   -1.4420    0.0000 C.ar    1  LIG1        0.0178
      7 C           2.1420   -2.3790    0.0000 C.ar    1  LIG1        0.0015
      8 C           3.1290   -2.6130    0.0000 C.ar    1  LIG1        0.0006
      9 C           3.8040   -1.8750    0.0000 C.ar    1  LIG1        0.0081
     10 O           3.5500    1.6540    0.0000 O.2     1  LIG1       -0.2594
     11 C           1.4960    0.8000    0.0000 C.3     1  LIG1        0.1962
     12 C           0.6170    0.2830    0.0000 C.2     1  LIG1        0.2646
     13 N          -0.2460    0.7920    0.0000 N.am    1  LIG1       -0.2038
     14 C          -1.1040    0.2670    0.0000 C.3     1  LIG1        0.1151
     15 C          -1.9670    0.7920    0.0000 C.3     1  LIG1        0.0201
     16 C          -2.7790    1.2960    0.0000 C.3     1  LIG1        0.0017
     17 C          -2.8210    2.1210    0.0000 C.3     1  LIG1        0.0001
     18 C          -2.0920    2.6170    0.0000 C.3     1  LIG1        0.0000
     19 C          -1.3170    2.1920    0.0000 C.3     1  LIG1        0.0001
     20 C          -1.2210    1.3000    0.0000 C.3     1  LIG1        0.0017
     21 C          -2.1040    2.2210    0.0000 C.3     1  LIG1        0.0000
     22 C          -3.1330    1.5040    0.0000 C.3     1  LIG1        0.0001
     23 C          -2.8580    0.3960    0.0000 C.3     1  LIG1        0.0017
     24 C          -3.9790    2.3960    0.0000 C.3     1  LIG1        0.0000
     25 O           0.6330   -0.7040    0.0000 O.2     1  LIG1       -0.2712
@<TRIPOS>BOND
     1     1     2   ar
     2     1     5   ar
     3     1    11    1
     4     2     3   ar
     5     2    10    2
     6     3     4   ar
     7     4     5   ar
     8     4     9   ar
     9     5     6   ar
    10     6     7   ar
    11     7     8   ar
    12     8     9   ar
    13    11    12    1
    14    12    13   am
    15    12    25    2
    16    13    14    1
    17    14    15    1
    18    15    16    1
    19    15    20    1
    20    15    23    1
    21    16    17    1
    22    17    18    1
    23    17    24    1
    24    18    19    1
    25    19    20    1
    26    19    21    1
    27    21    22    1
    28    22    23    1
    29    22    24    1
