@<TRIPOS>MOLECULE
31619_ChemDiv_5228-4131
 23 26 0 0 0
SMALL
GASTEIGER
Energy = 0

@<TRIPOS>ATOM
      1 C           0.6960   -0.3460    0.0000 C.ar    1  LIG1        0.1541
      2 N          -0.2540   -0.6460    0.0000 N.ar    1  LIG1       -0.2902
      3 C          -0.8380    0.1500    0.0000 C.ar    1  LIG1        0.0816
      4 C          -0.2540    0.9630    0.0000 C.ar    1  LIG1        0.0252
      5 C           0.6960    0.6630    0.0000 C.ar    1  LIG1        0.0938
      6 C           1.5630    1.1540    0.0000 C.ar    1  LIG1        0.2836
      7 N           2.4250    0.6630    0.0000 N.ar    1  LIG1       -0.1854
      8 C           2.4250   -0.3460    0.0000 C.ar    1  LIG1        0.2030
      9 N           1.5630   -0.8380    0.0000 N.ar    1  LIG1       -0.2060
     10 O           1.5630    2.1540    0.0000 O.3     1  LIG1       -0.2650
     11 C          -0.7130    1.8380    0.0000 C.ar    1  LIG1        0.0017
     12 C          -1.7080    1.8790    0.0000 C.ar    1  LIG1        0.0001
     13 C          -2.1750    2.7630    0.0000 C.ar    1  LIG1        0.0000
     14 C          -1.6290    3.6250    0.0000 C.ar    1  LIG1        0.0000
     15 C          -0.6250    3.5710    0.0000 C.ar    1  LIG1        0.0000
     16 C          -0.1670    2.6880    0.0000 C.ar    1  LIG1        0.0001
     17 C          -0.4130   -1.6420    0.0000 C.ar    1  LIG1        0.0651
     18 C          -1.3380   -2.0000    0.0000 C.ar    1  LIG1        0.0133
     19 C          -1.4880   -2.9880    0.0000 C.ar    1  LIG1       -0.0204
     20 C          -0.7130   -3.6210    0.0000 C.ar    1  LIG1       -0.0042
     21 C           0.2210   -3.2500    0.0000 C.ar    1  LIG1        0.0012
     22 C           0.3750   -2.2670    0.0000 C.ar    1  LIG1        0.0175
     23 C          -2.4290   -3.3540    0.0000 C.3     1  LIG1        0.0311
@<TRIPOS>BOND
     1     1     2   ar
     2     1     5   ar
     3     1     9   ar
     4     2     3   ar
     5     2    17    1
     6     3     4   ar
     7     4     5   ar
     8     4    11    1
     9     5     6   ar
    10     6     7   ar
    11     6    10    1
    12     7     8   ar
    13     8     9   ar
    14    11    12   ar
    15    11    16   ar
    16    12    13   ar
    17    13    14   ar
    18    14    15   ar
    19    15    16   ar
    20    17    18   ar
    21    17    22   ar
    22    18    19   ar
    23    19    20   ar
    24    19    23    1
    25    20    21   ar
    26    21    22   ar
