@<TRIPOS>MOLECULE
31615_ChemDiv_5067-0954
 16 18 0 0 0
SMALL
GASTEIGER
Energy = 0

@<TRIPOS>ATOM
      1 N           1.2830    0.0580    0.0000 N.ar    1  LIG1       -0.3135
      2 C           0.2710    0.0170    0.0000 C.ar    1  LIG1        0.0640
      3 C          -0.2250   -0.8380    0.0000 C.ar    1  LIG1        0.0255
      4 C          -1.2420   -0.8380    0.0000 C.ar    1  LIG1        0.0500
      5 S          -1.9250   -1.5920    0.0000 S.2     1  LIG1       -0.0645
      6 C          -2.8670   -1.2080    0.0000 C.ar    1  LIG1        0.1345
      7 N          -2.7500   -0.2420    0.0000 N.ar    1  LIG1       -0.2363
      8 C          -1.7670   -0.0130    0.0000 C.ar    1  LIG1        0.0880
      9 C          -1.2880    0.8920    0.0000 C.ar    1  LIG1        0.0211
     10 C          -0.2580    0.8920    0.0000 C.ar    1  LIG1        0.0191
     11 C           2.0380    0.7000    0.0000 C.ar    1  LIG1        0.0414
     12 C           2.8630    0.1750    0.0000 C.ar    1  LIG1        0.0142
     13 C           2.6750   -0.7380    0.0000 C.ar    1  LIG1        0.0142
     14 C           1.6580   -0.8380    0.0000 C.ar    1  LIG1        0.0414
     15 C           1.1580   -1.7130    0.0000 C.3     1  LIG1        0.0504
     16 C           2.0040    1.7170    0.0000 C.3     1  LIG1        0.0504
@<TRIPOS>BOND
     1     1     2    1
     2     1    11   ar
     3     1    14   ar
     4     2     3   ar
     5     2    10   ar
     6     3     4   ar
     7     4     5   ar
     8     4     8   ar
     9     5     6   ar
    10     6     7   ar
    11     7     8   ar
    12     8     9   ar
    13     9    10   ar
    14    11    12   ar
    15    11    16    1
    16    12    13   ar
    17    13    14   ar
    18    14    15    1
