@<TRIPOS>MOLECULE
31617_ChemDiv_5228-4129
 24 27 0 0 0
SMALL
GASTEIGER
Energy = 0

@<TRIPOS>ATOM
      1 C           0.5710    0.4670    0.0000 C.ar    1  LIG1        0.1541
      2 C           0.5710    1.4750    0.0000 C.ar    1  LIG1        0.0938
      3 C          -0.3830    1.7750    0.0000 C.ar    1  LIG1        0.0252
      4 C          -0.9630    0.9630    0.0000 C.ar    1  LIG1        0.0816
      5 N          -0.3830    0.1670    0.0000 N.ar    1  LIG1       -0.2901
      6 C          -0.5420   -0.8330    0.0000 C.ar    1  LIG1        0.0656
      7 C          -1.4670   -1.1880    0.0000 C.ar    1  LIG1        0.0207
      8 C          -1.6170   -2.1790    0.0000 C.ar    1  LIG1        0.0384
      9 C          -0.8420   -2.8130    0.0000 C.ar    1  LIG1        0.1388
     10 C           0.0960   -2.4420    0.0000 C.ar    1  LIG1        0.0384
     11 C           0.2460   -1.4540    0.0000 C.ar    1  LIG1        0.0207
     12 O          -0.9880   -3.8130    0.0000 O.3     1  LIG1       -0.4714
     13 C          -0.2080   -4.4330    0.0000 C.3     1  LIG1        0.2525
     14 C          -0.8420    2.6580    0.0000 C.ar    1  LIG1        0.0017
     15 C          -0.3000    3.5000    0.0000 C.ar    1  LIG1        0.0001
     16 C          -0.7710    4.3790    0.0000 C.ar    1  LIG1        0.0000
     17 C          -1.7580    4.4330    0.0000 C.ar    1  LIG1        0.0000
     18 C          -2.3040    3.5880    0.0000 C.ar    1  LIG1        0.0000
     19 C          -1.8380    2.7130    0.0000 C.ar    1  LIG1        0.0001
     20 C           1.4330    1.9710    0.0000 C.ar    1  LIG1        0.2836
     21 N           2.3000    1.4750    0.0000 N.ar    1  LIG1       -0.1854
     22 C           2.3000    0.4670    0.0000 C.ar    1  LIG1        0.2030
     23 N           1.4330   -0.0250    0.0000 N.ar    1  LIG1       -0.2060
     24 O           1.4330    2.9750    0.0000 O.3     1  LIG1       -0.2650
@<TRIPOS>BOND
     1     1     2   ar
     2     1     5   ar
     3     1    23   ar
     4     2     3   ar
     5     2    20   ar
     6     3     4   ar
     7     3    14    1
     8     4     5   ar
     9     5     6    1
    10     6     7   ar
    11     6    11   ar
    12     7     8   ar
    13     8     9   ar
    14     9    10   ar
    15     9    12    1
    16    10    11   ar
    17    12    13    1
    18    14    15   ar
    19    14    19   ar
    20    15    16   ar
    21    16    17   ar
    22    17    18   ar
    23    18    19   ar
    24    20    21   ar
    25    20    24    1
    26    21    22   ar
    27    22    23   ar
