@<TRIPOS>MOLECULE
31618_ChemDiv_5436-1001
 23 26 0 0 0
SMALL
GASTEIGER
Energy = 0

@<TRIPOS>ATOM
      1 C           1.1920    1.2630    0.0000 C.ar    1  LIG1        0.0094
      2 C           0.3290    1.7630    0.0000 C.ar    1  LIG1        0.0351
      3 C           0.3290    2.7500    0.0000 C.ar    1  LIG1        0.1517
      4 O           1.1920    3.2580    0.0000 O.2     1  LIG1       -0.4209
      5 C           2.0670    2.7500    0.0000 C.ar    1  LIG1        0.3459
      6 C           2.0670    1.7630    0.0000 C.ar    1  LIG1        0.0824
      7 O           2.9330    3.2580    0.0000 O.2     1  LIG1       -0.2445
      8 C          -0.5210    3.2580    0.0000 C.ar    1  LIG1        0.0750
      9 C          -1.3920    2.7500    0.0000 C.ar    1  LIG1        0.1482
     10 C          -1.3920    1.7630    0.0000 C.ar    1  LIG1        0.0338
     11 C          -0.5210    1.2630    0.0000 C.ar    1  LIG1        0.0059
     12 C          -2.3380    1.4420    0.0000 C.ar    1  LIG1        0.0187
     13 C          -2.9380    2.2460    0.0000 C.ar    1  LIG1        0.1753
     14 O          -2.3380    3.0500    0.0000 O.2     1  LIG1       -0.4507
     15 C          -2.6380    0.4920    0.0000 C.3     1  LIG1        0.0344
     16 C           1.1920    0.2500    0.0000 C.ar    1  LIG1        0.0005
     17 C           0.3290   -0.2500    0.0000 C.ar    1  LIG1        0.0031
     18 C           0.3290   -1.2580    0.0000 C.ar    1  LIG1        0.0369
     19 C           1.1920   -1.7460    0.0000 C.ar    1  LIG1        0.1387
     20 C           2.0670   -1.2580    0.0000 C.ar    1  LIG1        0.0369
     21 C           2.0670   -0.2500    0.0000 C.ar    1  LIG1        0.0031
     22 O           1.2080   -2.7540    0.0000 O.3     1  LIG1       -0.4714
     23 C           2.0790   -3.2540    0.0000 C.3     1  LIG1        0.2525
@<TRIPOS>BOND
     1     1     2   ar
     2     1     6   ar
     3     1    16    1
     4     2     3   ar
     5     2    11   ar
     6     3     4   ar
     7     3     8   ar
     8     4     5   ar
     9     5     6   ar
    10     5     7    2
    11     8     9   ar
    12     9    10   ar
    13     9    14   ar
    14    10    11   ar
    15    10    12   ar
    16    12    13   ar
    17    12    15    1
    18    13    14   ar
    19    16    17   ar
    20    16    21   ar
    21    17    18   ar
    22    18    19   ar
    23    19    20   ar
    24    19    22    1
    25    20    21   ar
    26    22    23    1
