@<TRIPOS>MOLECULE
31626_ChemDiv_8008-3910
 25 26 0 0 0
SMALL
GASTEIGER
Energy = 0

@<TRIPOS>ATOM
      1 C          -4.3790    0.1330    0.0000 C.ar    1  LIG1        0.1514
      2 O          -4.6210   -0.7790    0.0000 O.2     1  LIG1       -0.4209
      3 C          -5.5500   -1.0790    0.0000 C.ar    1  LIG1        0.3456
      4 C          -6.2960   -0.3880    0.0000 C.ar    1  LIG1        0.0781
      5 C          -6.0330    0.5830    0.0000 C.ar    1  LIG1       -0.0125
      6 C          -5.0880    0.8170    0.0000 C.ar    1  LIG1        0.0311
      7 C          -4.8420    1.8080    0.0000 C.ar    1  LIG1        0.0058
      8 C          -3.9130    2.0880    0.0000 C.ar    1  LIG1        0.0371
      9 C          -3.1670    1.3790    0.0000 C.ar    1  LIG1        0.1423
     10 C          -3.4210    0.4330    0.0000 C.ar    1  LIG1        0.0745
     11 O          -2.1750    1.6380    0.0000 O.3     1  LIG1       -0.4655
     12 C          -1.4750    0.9460    0.0000 C.3     1  LIG1        0.2911
     13 C          -0.5290    1.1880    0.0000 C.2     1  LIG1        0.2859
     14 O          -0.2460    2.1420    0.0000 O.2     1  LIG1       -0.2693
     15 N           0.1630    0.4790    0.0000 N.am    1  LIG1       -0.2023
     16 C           1.1500    0.7210    0.0000 C.3     1  LIG1        0.1153
     17 C           1.8210    0.0080    0.0000 C.3     1  LIG1        0.0234
     18 C           2.8080    0.2290    0.0000 C.3     1  LIG1        0.0018
     19 C           3.5000   -0.5170    0.0000 C.3     1  LIG1        0.0001
     20 C           4.4710   -0.2540    0.0000 C.3     1  LIG1        0.0000
     21 C           5.1580   -1.0380    0.0000 C.3     1  LIG1        0.0000
     22 C           6.1080   -0.8130    0.0000 C.3     1  LIG1        0.0000
     23 C           6.7830   -1.5420    0.0000 C.3     1  LIG1        0.0000
     24 C          -6.7830    1.2420    0.0000 C.3     1  LIG1        0.0313
     25 O          -5.7790   -2.1380    0.0000 O.2     1  LIG1       -0.2445
@<TRIPOS>BOND
     1     1     2   ar
     2     1     6   ar
     3     1    10   ar
     4     2     3   ar
     5     3     4   ar
     6     3    25    2
     7     4     5   ar
     8     5     6   ar
     9     5    24    1
    10     6     7   ar
    11     7     8   ar
    12     8     9   ar
    13     9    10   ar
    14     9    11    1
    15    11    12    1
    16    12    13    1
    17    13    14    2
    18    13    15   am
    19    15    16    1
    20    16    17    1
    21    17    18    1
    22    18    19    1
    23    19    20    1
    24    20    21    1
    25    21    22    1
    26    22    23    1
