@<TRIPOS>MOLECULE
31621_ChemDiv_5228-4137
 23 26 0 0 0
SMALL
GASTEIGER
Energy = 0

@<TRIPOS>ATOM
      1 C           0.5710    0.1540    0.0000 C.ar    1  LIG1        0.1541
      2 C           0.5710    1.1460    0.0000 C.ar    1  LIG1        0.0938
      3 C          -0.3830    1.4580    0.0000 C.ar    1  LIG1        0.0252
      4 C          -0.9630    0.6500    0.0000 C.ar    1  LIG1        0.0816
      5 N          -0.3830   -0.1580    0.0000 N.ar    1  LIG1       -0.2901
      6 C          -0.5380   -1.1500    0.0000 C.ar    1  LIG1        0.0655
      7 C           0.2380   -1.7790    0.0000 C.ar    1  LIG1        0.0199
      8 C           0.0750   -2.7670    0.0000 C.ar    1  LIG1        0.0311
      9 C          -0.8580   -3.1210    0.0000 C.ar    1  LIG1        0.1402
     10 C          -1.6330   -2.4920    0.0000 C.ar    1  LIG1        0.0311
     11 C          -1.4750   -1.5040    0.0000 C.ar    1  LIG1        0.0199
     12 F          -1.0040   -4.1130    0.0000 F       1  LIG1       -0.2042
     13 C          -0.8420    2.3380    0.0000 C.ar    1  LIG1        0.0017
     14 C          -1.8330    2.3710    0.0000 C.ar    1  LIG1        0.0001
     15 C          -2.3040    3.2540    0.0000 C.ar    1  LIG1        0.0000
     16 C          -1.7580    4.1130    0.0000 C.ar    1  LIG1        0.0000
     17 C          -0.7500    4.0630    0.0000 C.ar    1  LIG1        0.0000
     18 C          -0.2920    3.1830    0.0000 C.ar    1  LIG1        0.0001
     19 C           1.4380    1.6500    0.0000 C.ar    1  LIG1        0.2836
     20 N           2.3000    1.1460    0.0000 N.ar    1  LIG1       -0.1854
     21 C           2.3000    0.1540    0.0000 C.ar    1  LIG1        0.2030
     22 N           1.4380   -0.3500    0.0000 N.ar    1  LIG1       -0.2060
     23 O           1.4380    2.6420    0.0000 O.3     1  LIG1       -0.2650
@<TRIPOS>BOND
     1     1     2   ar
     2     1     5   ar
     3     1    22   ar
     4     2     3   ar
     5     2    19   ar
     6     3     4   ar
     7     3    13    1
     8     4     5   ar
     9     5     6    1
    10     6     7   ar
    11     6    11   ar
    12     7     8   ar
    13     8     9   ar
    14     9    10   ar
    15     9    12    1
    16    10    11   ar
    17    13    14   ar
    18    13    18   ar
    19    14    15   ar
    20    15    16   ar
    21    16    17   ar
    22    17    18   ar
    23    19    20   ar
    24    19    23    1
    25    20    21   ar
    26    21    22   ar
