@<TRIPOS>MOLECULE
31628_ChemDiv_5445-4670
 27 30 0 0 0
SMALL
GASTEIGER
Energy = 0

@<TRIPOS>ATOM
      1 C          -1.1960   -0.7460    0.0000 C.ar    1  LIG1        0.1111
      2 C          -1.1960   -1.7500    0.0000 C.ar    1  LIG1        0.2831
      3 N          -2.0540   -2.2460    0.0000 N.ar    1  LIG1       -0.2121
      4 C          -2.9130   -1.7500    0.0000 C.ar    1  LIG1        0.0624
      5 C          -2.9130   -0.7460    0.0000 C.ar    1  LIG1        0.0133
      6 C          -2.0540   -0.2460    0.0000 C.ar    1  LIG1        0.0176
      7 C          -2.0580    0.7500    0.0000 C.3     1  LIG1        0.1690
      8 O          -1.1960    1.2460    0.0000 O.3     1  LIG1       -0.3463
      9 C          -1.1960    2.2500    0.0000 C.3     1  LIG1        0.1746
     10 C          -3.7790   -2.2460    0.0000 C.3     1  LIG1        0.0522
     11 O          -0.3210   -2.2460    0.0000 O.2     1  LIG1       -0.2651
     12 C          -0.3330   -0.2330    0.0000 C.2     1  LIG1        0.2691
     13 N           0.5380   -0.7380    0.0000 N.am    1  LIG1       -0.2050
     14 C           1.3830   -0.2170    0.0000 C.3     1  LIG1        0.0781
     15 C           1.1580    0.8250    0.0000 C.3     1  LIG1        0.0161
     16 C           2.0330    1.3040    0.0000 C.3     1  LIG1       -0.0181
     17 C           2.8420    0.6420    0.0000 C.3     1  LIG1       -0.0078
     18 C           3.0210   -0.3880    0.0000 C.3     1  LIG1       -0.0181
     19 C           2.1540   -0.8540    0.0000 C.3     1  LIG1        0.0161
     20 C           3.3380    0.4880    0.0000 C.3     1  LIG1       -0.0078
     21 C           2.5880    1.0960    0.0000 C.3     1  LIG1       -0.0181
     22 C           1.7960    0.6330    0.0000 C.3     1  LIG1        0.0161
     23 C           2.4460    2.2210    0.0000 C.3     1  LIG1       -0.0078
     24 O          -0.3330    0.7630    0.0000 O.2     1  LIG1       -0.2682
     25 H           1.2960    1.9830    0.0000 H       1  LIG1        0.0319
     26 H           3.7750   -1.0380    0.0000 H       1  LIG1        0.0319
     27 H           3.4630    1.5790    0.0000 H       1  LIG1        0.0319
@<TRIPOS>BOND
     1     1     2   ar
     2     1     6   ar
     3     1    12    1
     4     2     3   ar
     5     2    11    2
     6     3     4   ar
     7     4     5   ar
     8     4    10    1
     9     5     6   ar
    10     6     7    1
    11     7     8    1
    12     8     9    1
    13    12    13   am
    14    12    24    2
    15    13    14    1
    16    14    15    1
    17    14    19    1
    18    14    22    1
    19    15    16    1
    20    16    17    1
    21    16    23    1
    22    16    25    1
    23    17    18    1
    24    18    19    1
    25    18    20    1
    26    18    26    1
    27    21    20    1
    28    21    22    1
    29    21    23    1
    30    21    27    1
