@<TRIPOS>MOLECULE
31624_ChemDiv_8005-2662
 24 26 0 0 0
SMALL
GASTEIGER
Energy = 0

@<TRIPOS>ATOM
      1 N           2.7710    0.9040    0.0000 N.am    1  LIG1       -0.2208
      2 C           2.6330   -0.0670    0.0000 C.2     1  LIG1        0.2322
      3 C           3.5380   -0.5000    0.0000 C.3     1  LIG1        0.0953
      4 C           4.2380    0.2040    0.0000 C.3     1  LIG1        0.0953
      5 C           3.7710    1.1040    0.0000 C.2     1  LIG1        0.2322
      6 O           4.2040    2.0000    0.0000 O.2     1  LIG1       -0.2744
      7 O           1.7330   -0.5670    0.0000 O.2     1  LIG1       -0.2744
      8 C           1.9670    1.5040    0.0000 C.3     1  LIG1        0.1812
      9 C           1.0580    1.1460    0.0000 C.2     1  LIG1        0.3401
     10 O           0.2750    1.7330    0.0000 O.3     1  LIG1       -0.4229
     11 C          -0.6670    1.3420    0.0000 C.ar    1  LIG1        0.1515
     12 C          -0.7920    0.3380    0.0000 C.ar    1  LIG1        0.0751
     13 C          -1.7000   -0.0670    0.0000 C.ar    1  LIG1        0.1514
     14 O          -1.8290   -1.0670    0.0000 O.2     1  LIG1       -0.4209
     15 C          -2.7290   -1.4630    0.0000 C.ar    1  LIG1        0.3456
     16 C          -3.5380   -0.8630    0.0000 C.ar    1  LIG1        0.0781
     17 C          -3.4380    0.1380    0.0000 C.ar    1  LIG1       -0.0125
     18 C          -2.5040    0.5420    0.0000 C.ar    1  LIG1        0.0311
     19 C          -2.3960    1.5460    0.0000 C.ar    1  LIG1        0.0059
     20 C          -1.5000    1.9250    0.0000 C.ar    1  LIG1        0.0378
     21 C          -4.2420    0.7130    0.0000 C.3     1  LIG1        0.0313
     22 O          -2.8380   -2.4670    0.0000 O.2     1  LIG1       -0.2445
     23 O           0.9330    0.1710    0.0000 O.2     1  LIG1       -0.2478
     24 C           2.1040    2.4710    0.0000 C.3     1  LIG1        0.0340
@<TRIPOS>BOND
     1     1     2   am
     2     1     5   am
     3     1     8    1
     4     2     3    1
     5     2     7    2
     6     3     4    1
     7     4     5    1
     8     5     6    2
     9     8     9    1
    10     8    24    1
    11     9    10    1
    12     9    23    2
    13    10    11    1
    14    11    12   ar
    15    11    20   ar
    16    12    13   ar
    17    13    14   ar
    18    13    18   ar
    19    14    15   ar
    20    15    16   ar
    21    15    22    2
    22    16    17   ar
    23    17    18   ar
    24    17    21    1
    25    18    19   ar
    26    19    20   ar
