@<TRIPOS>MOLECULE
31623_ChemDiv_5228-4141
 23 26 0 0 0
SMALL
GASTEIGER
Energy = 0

@<TRIPOS>ATOM
      1 C           0.4420   -0.1170    0.0000 C.ar    1  LIG1        0.1541
      2 C           0.4420    0.8830    0.0000 C.ar    1  LIG1        0.0938
      3 C          -0.4920    1.1880    0.0000 C.ar    1  LIG1        0.0252
      4 C          -1.0750    0.3920    0.0000 C.ar    1  LIG1        0.0816
      5 N          -0.4920   -0.4250    0.0000 N.ar    1  LIG1       -0.2901
      6 C          -0.8540   -1.3540    0.0000 C.ar    1  LIG1        0.0654
      7 C          -0.2290   -2.1290    0.0000 C.ar    1  LIG1        0.0172
      8 C          -0.5790   -3.0540    0.0000 C.ar    1  LIG1       -0.0028
      9 C          -1.5710   -3.2170    0.0000 C.ar    1  LIG1       -0.0218
     10 C          -2.1960   -2.4380    0.0000 C.ar    1  LIG1       -0.0028
     11 C          -1.8380   -1.5130    0.0000 C.ar    1  LIG1        0.0172
     12 C          -1.9250   -4.1630    0.0000 C.3     1  LIG1        0.0310
     13 C          -0.6540    2.1880    0.0000 C.ar    1  LIG1        0.0017
     14 C          -1.5880    2.5460    0.0000 C.ar    1  LIG1        0.0001
     15 C          -1.7330    3.5460    0.0000 C.ar    1  LIG1        0.0000
     16 C          -0.9540    4.1630    0.0000 C.ar    1  LIG1        0.0000
     17 C          -0.0210    3.8130    0.0000 C.ar    1  LIG1        0.0000
     18 C           0.1250    2.8130    0.0000 C.ar    1  LIG1        0.0001
     19 C           1.3210    1.3830    0.0000 C.ar    1  LIG1        0.2836
     20 N           2.1920    0.8830    0.0000 N.ar    1  LIG1       -0.1854
     21 C           2.1920   -0.1170    0.0000 C.ar    1  LIG1        0.2030
     22 N           1.3210   -0.6170    0.0000 N.ar    1  LIG1       -0.2060
     23 O           1.3210    2.3830    0.0000 O.3     1  LIG1       -0.2650
@<TRIPOS>BOND
     1     1     2   ar
     2     1     5   ar
     3     1    22   ar
     4     2     3   ar
     5     2    19   ar
     6     3     4   ar
     7     3    13    1
     8     4     5   ar
     9     5     6    1
    10     6     7   ar
    11     6    11   ar
    12     7     8   ar
    13     8     9   ar
    14     9    10   ar
    15     9    12    1
    16    10    11   ar
    17    13    14   ar
    18    13    18   ar
    19    14    15   ar
    20    15    16   ar
    21    16    17   ar
    22    17    18   ar
    23    19    20   ar
    24    19    23    1
    25    20    21   ar
    26    21    22   ar
