@<TRIPOS>MOLECULE
31625_ChemDiv_5228-4143
 25 28 0 0 0
SMALL
GASTEIGER
Energy = 0

@<TRIPOS>ATOM
      1 C           0.5630    0.9500    0.0000 C.ar    1  LIG1        0.1541
      2 C           0.5630    1.9460    0.0000 C.ar    1  LIG1        0.0938
      3 C          -0.3830    2.2540    0.0000 C.ar    1  LIG1        0.0252
      4 C          -0.9670    1.4420    0.0000 C.ar    1  LIG1        0.0816
      5 N          -0.3830    0.6460    0.0000 N.ar    1  LIG1       -0.2901
      6 C          -0.5420   -0.3460    0.0000 C.ar    1  LIG1        0.0656
      7 C           0.2290   -0.9790    0.0000 C.ar    1  LIG1        0.0207
      8 C           0.0710   -1.9670    0.0000 C.ar    1  LIG1        0.0384
      9 C          -0.8580   -2.3170    0.0000 C.ar    1  LIG1        0.1386
     10 C          -1.6330   -1.6830    0.0000 C.ar    1  LIG1        0.0384
     11 C          -1.4750   -0.7080    0.0000 C.ar    1  LIG1        0.0207
     12 O          -1.0170   -3.3170    0.0000 O.3     1  LIG1       -0.4755
     13 C          -0.2250   -3.9330    0.0000 C.3     1  LIG1        0.2055
     14 C          -0.3630   -4.9210    0.0000 C.3     1  LIG1        0.0512
     15 C          -0.8420    3.1330    0.0000 C.ar    1  LIG1        0.0017
     16 C          -1.8460    3.1830    0.0000 C.ar    1  LIG1        0.0001
     17 C          -2.3040    4.0580    0.0000 C.ar    1  LIG1        0.0000
     18 C          -1.7580    4.9210    0.0000 C.ar    1  LIG1        0.0000
     19 C          -0.7580    4.8710    0.0000 C.ar    1  LIG1        0.0000
     20 C          -0.3000    3.9790    0.0000 C.ar    1  LIG1        0.0001
     21 C           1.4290    2.4460    0.0000 C.ar    1  LIG1        0.2836
     22 N           2.3000    1.9460    0.0000 N.ar    1  LIG1       -0.1854
     23 C           2.3000    0.9500    0.0000 C.ar    1  LIG1        0.2030
     24 N           1.4290    0.4500    0.0000 N.ar    1  LIG1       -0.2060
     25 O           1.4290    3.4460    0.0000 O.3     1  LIG1       -0.2650
@<TRIPOS>BOND
     1     1     2   ar
     2     1     5   ar
     3     1    24   ar
     4     2     3   ar
     5     2    21   ar
     6     3     4   ar
     7     3    15    1
     8     4     5   ar
     9     5     6    1
    10     6     7   ar
    11     6    11   ar
    12     7     8   ar
    13     8     9   ar
    14     9    10   ar
    15     9    12    1
    16    10    11   ar
    17    12    13    1
    18    13    14    1
    19    15    16   ar
    20    15    20   ar
    21    16    17   ar
    22    17    18   ar
    23    18    19   ar
    24    19    20   ar
    25    21    22   ar
    26    21    25    1
    27    22    23   ar
    28    23    24   ar
