@<TRIPOS>MOLECULE
31629_ChemDiv_C074-0048
 29 32 0 0 0
SMALL
GASTEIGER
Energy = 0

@<TRIPOS>ATOM
      1 C           0.4920   -0.1630    0.0000 C.ar    1  LIG1        0.0595
      2 C           0.4920   -1.1670    0.0000 C.ar    1  LIG1        0.1514
      3 N          -0.4630   -1.4710    0.0000 N.ar    1  LIG1       -0.2901
      4 C          -1.0540   -0.6630    0.0000 C.ar    1  LIG1        0.0815
      5 C          -0.4630    0.1460    0.0000 C.ar    1  LIG1        0.0224
      6 C          -0.7710    1.1000    0.0000 C.ar    1  LIG1        0.0016
      7 C          -1.7500    1.3040    0.0000 C.ar    1  LIG1        0.0001
      8 C          -2.0500    2.2500    0.0000 C.ar    1  LIG1        0.0000
      9 C          -1.3830    2.9920    0.0000 C.ar    1  LIG1        0.0000
     10 C          -0.4080    2.7960    0.0000 C.ar    1  LIG1        0.0000
     11 C          -0.1000    1.8420    0.0000 C.ar    1  LIG1        0.0001
     12 C          -0.7790   -2.4250    0.0000 C.ar    1  LIG1        0.0676
     13 C          -1.7500   -2.6290    0.0000 C.ar    1  LIG1        0.0472
     14 C          -2.0670   -3.5710    0.0000 C.ar    1  LIG1        0.1416
     15 F          -3.0790   -3.7080    0.0000 F       1  LIG1       -0.2041
     16 C          -1.3830   -4.3170    0.0000 C.ar    1  LIG1        0.0297
     17 C          -0.4080   -4.1290    0.0000 C.ar    1  LIG1        0.0038
     18 C          -0.1040   -3.1750    0.0000 C.ar    1  LIG1        0.0177
     19 N           1.3540   -1.6670    0.0000 N.ar    1  LIG1       -0.2062
     20 C           2.2170   -1.1670    0.0000 C.ar    1  LIG1        0.2007
     21 N           2.2170   -0.1630    0.0000 N.ar    1  LIG1       -0.2175
     22 C           1.3540    0.3330    0.0000 C.ar    1  LIG1        0.1118
     23 S           1.3540    1.3330    0.0000 S.3     1  LIG1       -0.0843
     24 C           2.2170    1.8330    0.0000 C.3     1  LIG1        0.1519
     25 C           2.2170    2.8420    0.0000 C.2     1  LIG1        0.3272
     26 O           1.3380    3.3210    0.0000 O.2     1  LIG1       -0.2492
     27 O           3.0750    3.3210    0.0000 O.3     1  LIG1       -0.4438
     28 C           3.0750    4.3170    0.0000 C.3     1  LIG1        0.2556
     29 C           3.0750    1.3420    0.0000 C.3     1  LIG1        0.0239
@<TRIPOS>BOND
     1     1     2   ar
     2     1     5   ar
     3     1    22   ar
     4     2     3   ar
     5     2    19   ar
     6     3     4   ar
     7     3    12    1
     8     4     5   ar
     9     5     6    1
    10     6     7   ar
    11     6    11   ar
    12     7     8   ar
    13     8     9   ar
    14     9    10   ar
    15    10    11   ar
    16    12    13   ar
    17    12    18   ar
    18    13    14   ar
    19    14    15    1
    20    14    16   ar
    21    16    17   ar
    22    17    18   ar
    23    19    20   ar
    24    20    21   ar
    25    21    22   ar
    26    22    23    1
    27    23    24    1
    28    24    25    1
    29    24    29    1
    30    25    26    2
    31    25    27    1
    32    27    28    1
