@<TRIPOS>MOLECULE
31620_ChemDiv_5436-1029
 31 35 0 0 0
SMALL
GASTEIGER
Energy = 0

@<TRIPOS>ATOM
      1 C           0.8790    1.2630    0.0000 C.ar    1  LIG1        0.0348
      2 C           0.8790    2.2540    0.0000 C.ar    1  LIG1        0.1476
      3 C           0.0080    2.7540    0.0000 C.ar    1  LIG1        0.0473
      4 C          -0.8670    2.2540    0.0000 C.ar    1  LIG1        0.1443
      5 C          -0.8670    1.2630    0.0000 C.ar    1  LIG1        0.0375
      6 C          -1.7960    0.9580    0.0000 C.ar    1  LIG1        0.0406
      7 C          -2.4000    1.7460    0.0000 C.ar    1  LIG1        0.1795
      8 O          -1.7960    2.5540    0.0000 O.2     1  LIG1       -0.4506
      9 C          -2.1630    0.0080    0.0000 C.ar    1  LIG1        0.0033
     10 C          -1.5330   -0.7580    0.0000 C.ar    1  LIG1        0.0032
     11 C          -1.8750   -1.6920    0.0000 C.ar    1  LIG1        0.0369
     12 C          -2.8540   -1.8750    0.0000 C.ar    1  LIG1        0.1387
     13 C          -3.4920   -1.0830    0.0000 C.ar    1  LIG1        0.0369
     14 C          -3.1330   -0.1500    0.0000 C.ar    1  LIG1        0.0032
     15 O          -3.1920   -2.8040    0.0000 O.3     1  LIG1       -0.4714
     16 C          -2.5670   -3.5790    0.0000 C.3     1  LIG1        0.2525
     17 C           0.0080    0.7630    0.0000 C.ar    1  LIG1        0.0061
     18 C           0.0080    3.7500    0.0000 C.3     1  LIG1        0.0375
     19 O           1.7420    2.7540    0.0000 O.2     1  LIG1       -0.4213
     20 C           2.6170    2.2540    0.0000 C.ar    1  LIG1        0.3459
     21 C           2.6170    1.2630    0.0000 C.ar    1  LIG1        0.0824
     22 C           1.7420    0.7630    0.0000 C.ar    1  LIG1        0.0094
     23 C           1.7420   -0.2420    0.0000 C.ar    1  LIG1        0.0005
     24 C           0.8710   -0.7420    0.0000 C.ar    1  LIG1        0.0031
     25 C           0.8710   -1.7540    0.0000 C.ar    1  LIG1        0.0369
     26 C           1.7420   -2.2420    0.0000 C.ar    1  LIG1        0.1387
     27 C           2.6080   -1.7540    0.0000 C.ar    1  LIG1        0.0369
     28 C           2.6080   -0.7420    0.0000 C.ar    1  LIG1        0.0031
     29 O           1.7420   -3.2540    0.0000 O.3     1  LIG1       -0.4714
     30 C           2.6330   -3.7460    0.0000 C.3     1  LIG1        0.2525
     31 O           3.4880    2.7540    0.0000 O.2     1  LIG1       -0.2445
@<TRIPOS>BOND
     1     1     2   ar
     2     1    17   ar
     3     1    22   ar
     4     2     3   ar
     5     2    19   ar
     6     3     4   ar
     7     3    18    1
     8     4     5   ar
     9     4     8   ar
    10     5     6   ar
    11     5    17   ar
    12     6     7   ar
    13     6     9    1
    14     7     8   ar
    15     9    10   ar
    16     9    14   ar
    17    10    11   ar
    18    11    12   ar
    19    12    13   ar
    20    12    15    1
    21    13    14   ar
    22    15    16    1
    23    19    20   ar
    24    20    21   ar
    25    20    31    2
    26    21    22   ar
    27    22    23    1
    28    23    24   ar
    29    23    28   ar
    30    24    25   ar
    31    25    26   ar
    32    26    27   ar
    33    26    29    1
    34    27    28   ar
    35    29    30    1
