@<TRIPOS>MOLECULE
31622_ChemDiv_5436-1289
 29 32 0 0 0
SMALL
GASTEIGER
Energy = 0

@<TRIPOS>ATOM
      1 C           1.6330    0.5130    0.0000 C.ar    1  LIG1       -0.0134
      2 C           2.4960    1.0130    0.0000 C.ar    1  LIG1        0.0544
      3 C           2.4960    2.0040    0.0000 C.ar    1  LIG1        0.3417
      4 O           1.6330    2.5000    0.0000 O.2     1  LIG1       -0.4212
      5 C           0.7670    2.0040    0.0000 C.ar    1  LIG1        0.1510
      6 C           0.7670    1.0130    0.0000 C.ar    1  LIG1        0.0646
      7 C          -0.1000    0.5130    0.0000 C.ar    1  LIG1        0.1415
      8 O          -0.0830   -0.4960    0.0000 O.3     1  LIG1       -0.4655
      9 C          -0.9540   -1.0000    0.0000 C.3     1  LIG1        0.2896
     10 C          -1.8330   -0.5000    0.0000 C.2     1  LIG1        0.2702
     11 N          -2.6880   -1.0000    0.0000 N.am    1  LIG1       -0.2765
     12 C          -3.6380   -0.6960    0.0000 C.3     1  LIG1        0.0936
     13 C          -4.2250   -1.5080    0.0000 C.3     1  LIG1        0.0233
     14 C          -3.6380   -2.3170    0.0000 C.3     1  LIG1        0.0233
     15 C          -2.6880   -2.0080    0.0000 C.3     1  LIG1        0.0936
     16 O          -1.8380    0.5000    0.0000 O.2     1  LIG1       -0.2708
     17 C          -0.9710    1.0130    0.0000 C.ar    1  LIG1        0.0329
     18 C          -0.9710    2.0040    0.0000 C.ar    1  LIG1       -0.0158
     19 C          -0.1000    2.5000    0.0000 C.ar    1  LIG1        0.0335
     20 C          -1.8330    2.5000    0.0000 C.3     1  LIG1        0.0312
     21 O           3.3710    2.5000    0.0000 O.2     1  LIG1       -0.2448
     22 C           3.3710    0.5130    0.0000 C.3     1  LIG1        0.0589
     23 C           3.3710   -0.4960    0.0000 C.ar    1  LIG1       -0.0176
     24 C           4.2210   -0.9830    0.0000 C.ar    1  LIG1       -0.0039
     25 C           4.2210   -1.9830    0.0000 C.ar    1  LIG1       -0.0003
     26 C           3.3710   -2.4960    0.0000 C.ar    1  LIG1       -0.0000
     27 C           2.4960   -1.9830    0.0000 C.ar    1  LIG1       -0.0003
     28 C           2.4960   -0.9830    0.0000 C.ar    1  LIG1       -0.0039
     29 C           1.6330   -0.4960    0.0000 C.3     1  LIG1        0.0311
@<TRIPOS>BOND
     1     1     2   ar
     2     1     6   ar
     3     1    29    1
     4     2     3   ar
     5     2    22    1
     6     3     4   ar
     7     3    21    2
     8     4     5   ar
     9     5     6   ar
    10     5    19   ar
    11     6     7   ar
    12     7     8    1
    13     7    17   ar
    14     8     9    1
    15     9    10    1
    16    10    11   am
    17    10    16    2
    18    11    12    1
    19    11    15    1
    20    12    13    1
    21    13    14    1
    22    14    15    1
    23    17    18   ar
    24    18    19   ar
    25    18    20    1
    26    22    23    1
    27    23    24   ar
    28    23    28   ar
    29    24    25   ar
    30    25    26   ar
    31    26    27   ar
    32    27    28   ar
