@<TRIPOS>MOLECULE
31631_ChemDiv_C074-0086
 26 29 0 0 0
SMALL
GASTEIGER
Energy = 0

@<TRIPOS>ATOM
      1 C           0.3170    0.0580    0.0000 C.ar    1  LIG1        0.1514
      2 C           0.3170    1.0630    0.0000 C.ar    1  LIG1        0.0595
      3 C          -0.6380    1.3710    0.0000 C.ar    1  LIG1        0.0224
      4 C          -1.2290    0.5630    0.0000 C.ar    1  LIG1        0.0815
      5 N          -0.6380   -0.2460    0.0000 N.ar    1  LIG1       -0.2902
      6 C          -0.9540   -1.2000    0.0000 C.ar    1  LIG1        0.0656
      7 C          -0.2880   -1.9380    0.0000 C.ar    1  LIG1        0.0207
      8 C          -0.5920   -2.8630    0.0000 C.ar    1  LIG1        0.0384
      9 C          -1.6210   -3.1040    0.0000 C.ar    1  LIG1        0.1388
     10 C          -2.2580   -2.3670    0.0000 C.ar    1  LIG1        0.0384
     11 C          -1.9710   -1.4130    0.0000 C.ar    1  LIG1        0.0207
     12 O          -1.9540   -4.0460    0.0000 O.3     1  LIG1       -0.4714
     13 C          -2.9080   -4.2130    0.0000 C.3     1  LIG1        0.2525
     14 C          -0.9460    2.3250    0.0000 C.ar    1  LIG1        0.0016
     15 C          -1.9250    2.5250    0.0000 C.ar    1  LIG1        0.0001
     16 C          -2.2290    3.4750    0.0000 C.ar    1  LIG1        0.0000
     17 C          -1.5630    4.2130    0.0000 C.ar    1  LIG1        0.0000
     18 C          -0.5830    4.0170    0.0000 C.ar    1  LIG1        0.0000
     19 C          -0.2750    3.0670    0.0000 C.ar    1  LIG1        0.0001
     20 C           1.1790    1.5580    0.0000 C.ar    1  LIG1        0.1113
     21 N           2.0420    1.0630    0.0000 N.ar    1  LIG1       -0.2176
     22 C           2.0420    0.0580    0.0000 C.ar    1  LIG1        0.2007
     23 N           1.1790   -0.4420    0.0000 N.ar    1  LIG1       -0.2062
     24 S           1.1790    2.5580    0.0000 S.3     1  LIG1       -0.0948
     25 C           2.0420    3.0580    0.0000 C.3     1  LIG1        0.0637
     26 C           2.9040    2.5580    0.0000 C.3     1  LIG1        0.0130
@<TRIPOS>BOND
     1     1     2   ar
     2     1     5   ar
     3     1    23   ar
     4     2     3   ar
     5     2    20   ar
     6     3     4   ar
     7     3    14    1
     8     4     5   ar
     9     5     6    1
    10     6     7   ar
    11     6    11   ar
    12     7     8   ar
    13     8     9   ar
    14     9    10   ar
    15     9    12    1
    16    10    11   ar
    17    12    13    1
    18    14    15   ar
    19    14    19   ar
    20    15    16   ar
    21    16    17   ar
    22    17    18   ar
    23    18    19   ar
    24    20    21   ar
    25    20    24    1
    26    21    22   ar
    27    22    23   ar
    28    24    25    1
    29    25    26    1
