@<TRIPOS>MOLECULE
31639_ChemDiv_8009-3250
 27 31 0 0 0
SMALL
GASTEIGER
Energy = 0

@<TRIPOS>ATOM
      1 N          -0.6540   -1.1580    0.0000 N.am    1  LIG1       -0.2564
      2 C          -0.7540   -0.2040    0.0000 C.3     1  LIG1        0.0958
      3 C          -1.7080    0.0210    0.0000 C.3     1  LIG1        0.0991
      4 C          -2.2460   -0.8040    0.0000 C.ar    1  LIG1       -0.0017
      5 C          -1.5630   -1.5630    0.0000 C.ar    1  LIG1        0.0503
      6 C          -1.9040   -2.5040    0.0000 C.ar    1  LIG1        0.0143
      7 C          -2.8750   -2.7000    0.0000 C.ar    1  LIG1       -0.0030
      8 C          -3.5630   -1.9290    0.0000 C.ar    1  LIG1       -0.0221
      9 C          -3.2130   -0.9920    0.0000 C.ar    1  LIG1       -0.0070
     10 C          -4.5750   -2.0790    0.0000 C.3     1  LIG1        0.0310
     11 C          -1.9880    0.9920    0.0000 C.3     1  LIG1        0.1448
     12 N          -1.2920    1.7380    0.0000 N.4     1  LIG1        0.3823
     13 C          -0.3000    1.4920    0.0000 C.3     1  LIG1        0.1406
     14 C          -0.0460    0.5210    0.0000 C.3     1  LIG1        0.0834
     15 C          -1.5630    2.7040    0.0000 C.3     1  LIG1        0.2022
     16 C           0.2080   -1.6880    0.0000 C.2     1  LIG1        0.2527
     17 C           1.0750   -1.2170    0.0000 C.ar    1  LIG1        0.0539
     18 C           1.9170   -1.7290    0.0000 C.ar    1  LIG1        0.0045
     19 C           2.8000   -1.2630    0.0000 C.ar    1  LIG1        0.0001
     20 C           2.8460   -0.2580    0.0000 C.ar    1  LIG1        0.0000
     21 C           2.0000    0.2500    0.0000 C.ar    1  LIG1        0.0001
     22 C           1.1170   -0.2210    0.0000 C.ar    1  LIG1        0.0045
     23 C           3.7380    0.2040    0.0000 C.ar    1  LIG1        0.0000
     24 C           4.5710   -0.3420    0.0000 C.ar    1  LIG1        0.0000
     25 C           4.5250   -1.3250    0.0000 C.ar    1  LIG1        0.0000
     26 C           3.6330   -1.7880    0.0000 C.ar    1  LIG1        0.0000
     27 O           0.1830   -2.6960    0.0000 O.2     1  LIG1       -0.2696
@<TRIPOS>BOND
     1     1     2    1
     2     1     5    1
     3     1    16   am
     4     2     3    1
     5     2    14    1
     6     3     4    1
     7     3    11    1
     8     4     5   ar
     9     4     9   ar
    10     5     6   ar
    11     6     7   ar
    12     7     8   ar
    13     8     9   ar
    14     8    10    1
    15    11    12    1
    16    12    13    1
    17    12    15    1
    18    13    14    1
    19    16    17    1
    20    16    27    2
    21    17    18   ar
    22    17    22   ar
    23    18    19   ar
    24    19    20   ar
    25    19    26   ar
    26    20    21   ar
    27    20    23   ar
    28    21    22   ar
    29    23    24   ar
    30    24    25   ar
    31    25    26   ar
