@<TRIPOS>MOLECULE
31633_ChemDiv_8008-9596
 21 24 0 0 0
SMALL
GASTEIGER
Energy = 0

@<TRIPOS>ATOM
      1 N           0.2960   -0.9380    0.0000 N.am    1  LIG1       -0.2598
      2 C           0.8710   -0.1290    0.0000 C.3     1  LIG1        0.0955
      3 C           0.2960    0.6830    0.0000 C.3     1  LIG1        0.0991
      4 C          -0.6580    0.3670    0.0000 C.ar    1  LIG1       -0.0017
      5 C          -0.6580   -0.6330    0.0000 C.ar    1  LIG1        0.0500
      6 C          -1.5040   -1.1290    0.0000 C.ar    1  LIG1        0.0143
      7 C          -2.3830   -0.6330    0.0000 C.ar    1  LIG1       -0.0030
      8 C          -2.3830    0.3670    0.0000 C.ar    1  LIG1       -0.0221
      9 C          -1.5040    0.8710    0.0000 C.ar    1  LIG1       -0.0070
     10 C          -3.2500    0.8710    0.0000 C.3     1  LIG1        0.0310
     11 C           0.6880    1.5920    0.0000 C.3     1  LIG1        0.1448
     12 N           1.6880    1.6960    0.0000 N.4     1  LIG1        0.3823
     13 C           2.2790    0.8710    0.0000 C.3     1  LIG1        0.1406
     14 C           1.8630   -0.0420    0.0000 C.3     1  LIG1        0.0834
     15 C           2.0960    2.6380    0.0000 C.3     1  LIG1        0.2022
     16 C           0.6130   -1.8920    0.0000 C.2     1  LIG1        0.2288
     17 O          -0.0420   -2.6330    0.0000 O.2     1  LIG1       -0.2745
     18 C           1.6130   -2.1000    0.0000 C.3     1  LIG1        0.0770
     19 C           2.7330   -2.2630    0.0000 C.3     1  LIG1        0.0091
     20 C           3.2460   -1.5960    0.0000 C.3     1  LIG1        0.0010
     21 C           2.2750   -1.3580    0.0000 C.3     1  LIG1        0.0091
@<TRIPOS>BOND
     1     1     2    1
     2     1     5    1
     3     1    16   am
     4     2     3    1
     5     2    14    1
     6     3     4    1
     7     3    11    1
     8     4     5   ar
     9     4     9   ar
    10     5     6   ar
    11     6     7   ar
    12     7     8   ar
    13     8     9   ar
    14     8    10    1
    15    11    12    1
    16    12    13    1
    17    12    15    1
    18    13    14    1
    19    16    17    2
    20    16    18    1
    21    18    19    1
    22    18    21    1
    23    19    20    1
    24    20    21    1
