@<TRIPOS>MOLECULE
31637_ChemDiv_8009-2061
 20 22 0 0 0
SMALL
GASTEIGER
Energy = 0

@<TRIPOS>ATOM
      1 N           0.5130   -0.5960    0.0000 N.am    1  LIG1       -0.2598
      2 C           1.0710    0.2130    0.0000 C.3     1  LIG1        0.0955
      3 C           0.5130    1.0000    0.0000 C.3     1  LIG1        0.0991
      4 C          -0.4460    0.6920    0.0000 C.ar    1  LIG1       -0.0017
      5 C          -0.4460   -0.3080    0.0000 C.ar    1  LIG1        0.0500
      6 C          -1.3040   -0.8080    0.0000 C.ar    1  LIG1        0.0143
      7 C          -2.1710   -0.3080    0.0000 C.ar    1  LIG1       -0.0030
      8 C          -2.1710    0.6920    0.0000 C.ar    1  LIG1       -0.0221
      9 C          -1.3040    1.1920    0.0000 C.ar    1  LIG1       -0.0070
     10 C          -3.0670    1.2080    0.0000 C.3     1  LIG1        0.0310
     11 C           0.9040    1.9210    0.0000 C.3     1  LIG1        0.1448
     12 N           1.8960    2.0420    0.0000 N.4     1  LIG1        0.3823
     13 C           2.4880    1.2290    0.0000 C.3     1  LIG1        0.1406
     14 C           2.0710    0.3130    0.0000 C.3     1  LIG1        0.0834
     15 C           2.3210    2.9500    0.0000 C.3     1  LIG1        0.2022
     16 C           0.8210   -1.5630    0.0000 C.2     1  LIG1        0.2293
     17 O           0.1330   -2.3080    0.0000 O.2     1  LIG1       -0.2745
     18 C           1.8000   -1.7790    0.0000 C.3     1  LIG1        0.0856
     19 C           2.1080   -2.7210    0.0000 C.3     1  LIG1        0.0096
     20 C           3.0630   -2.9460    0.0000 C.3     1  LIG1        0.0005
@<TRIPOS>BOND
     1     1     2    1
     2     1     5    1
     3     1    16   am
     4     2     3    1
     5     2    14    1
     6     3     4    1
     7     3    11    1
     8     4     5   ar
     9     4     9   ar
    10     5     6   ar
    11     6     7   ar
    12     7     8   ar
    13     8     9   ar
    14     8    10    1
    15    11    12    1
    16    12    13    1
    17    12    15    1
    18    13    14    1
    19    16    17    2
    20    16    18    1
    21    18    19    1
    22    19    20    1
