@<TRIPOS>MOLECULE
31635_ChemDiv_8008-9847
 23 26 0 0 0
SMALL
GASTEIGER
Energy = 0

@<TRIPOS>ATOM
      1 N           0.2080   -1.1540    0.0000 N.am    1  LIG1       -0.2564
      2 C           0.1130   -0.2040    0.0000 C.3     1  LIG1        0.0958
      3 C          -0.8330    0.0250    0.0000 C.3     1  LIG1        0.0991
      4 C          -1.3790   -0.8080    0.0000 C.ar    1  LIG1       -0.0017
      5 C          -0.7000   -1.5630    0.0000 C.ar    1  LIG1        0.0503
      6 C          -1.0380   -2.5040    0.0000 C.ar    1  LIG1        0.0143
      7 C          -2.0040   -2.7000    0.0000 C.ar    1  LIG1       -0.0030
      8 C          -2.6960   -1.9290    0.0000 C.ar    1  LIG1       -0.0221
      9 C          -2.3500   -1.0000    0.0000 C.ar    1  LIG1       -0.0070
     10 C          -3.7080   -2.0790    0.0000 C.3     1  LIG1        0.0310
     11 C          -1.1210    0.9830    0.0000 C.3     1  LIG1        0.1448
     12 N          -0.4250    1.7330    0.0000 N.4     1  LIG1        0.3823
     13 C           0.5580    1.4920    0.0000 C.3     1  LIG1        0.1406
     14 C           0.8250    0.5130    0.0000 C.3     1  LIG1        0.0834
     15 C          -0.7000    2.7040    0.0000 C.3     1  LIG1        0.2022
     16 C           1.0710   -1.6880    0.0000 C.2     1  LIG1        0.2527
     17 O           1.0580   -2.6960    0.0000 O.2     1  LIG1       -0.2696
     18 C           1.9460   -1.2170    0.0000 C.ar    1  LIG1        0.0539
     19 C           1.9790   -0.2290    0.0000 C.ar    1  LIG1        0.0045
     20 C           2.8580    0.2420    0.0000 C.ar    1  LIG1        0.0001
     21 C           3.7040   -0.2630    0.0000 C.ar    1  LIG1        0.0000
     22 C           3.6630   -1.2630    0.0000 C.ar    1  LIG1        0.0001
     23 C           2.7790   -1.7290    0.0000 C.ar    1  LIG1        0.0045
@<TRIPOS>BOND
     1     1     2    1
     2     1     5    1
     3     1    16   am
     4     2     3    1
     5     2    14    1
     6     3     4    1
     7     3    11    1
     8     4     5   ar
     9     4     9   ar
    10     5     6   ar
    11     6     7   ar
    12     7     8   ar
    13     8     9   ar
    14     8    10    1
    15    11    12    1
    16    12    13    1
    17    12    15    1
    18    13    14    1
    19    16    17    2
    20    16    18    1
    21    18    19   ar
    22    18    23   ar
    23    19    20   ar
    24    20    21   ar
    25    21    22   ar
    26    22    23   ar
