@<TRIPOS>MOLECULE
31630_ChemDiv_5451-0167
 24 28 0 0 0
SMALL
GASTEIGER
Energy = 0

@<TRIPOS>ATOM
      1 C          -0.0380    1.5250    0.0000 C.ar    1  LIG1        0.1033
      2 C           0.8330    1.0210    0.0000 C.ar    1  LIG1        0.0284
      3 C           0.8330    0.0130    0.0000 C.ar    1  LIG1        0.0539
      4 C          -0.0380   -0.4830    0.0000 C.ar    1  LIG1        0.1968
      5 C          -0.9080    0.0130    0.0000 C.ar    1  LIG1        0.0405
      6 C          -0.9080    1.0210    0.0000 C.ar    1  LIG1        0.0225
      7 C          -1.7790    1.5250    0.0000 C.ar    1  LIG1        0.0017
      8 C          -2.5830    1.0210    0.0000 C.ar    1  LIG1        0.0001
      9 C          -2.5830    0.0130    0.0000 C.ar    1  LIG1        0.0001
     10 C          -1.7790   -0.4830    0.0000 C.ar    1  LIG1        0.0032
     11 O          -0.0380   -1.4880    0.0000 O.2     1  LIG1       -0.2865
     12 C           1.7080   -0.4830    0.0000 C.ar    1  LIG1        0.0510
     13 N           1.7080   -1.4880    0.0000 N.pl3   1  LIG1       -0.3074
     14 C           0.9040   -2.0960    0.0000 C.3     1  LIG1        0.0908
     15 C           1.2040   -3.0290    0.0000 C.3     1  LIG1        0.0232
     16 C           2.2080   -3.0290    0.0000 C.3     1  LIG1        0.0232
     17 C           2.5130   -2.0960    0.0000 C.3     1  LIG1        0.0908
     18 C           2.5790    0.0130    0.0000 C.ar    1  LIG1        0.0148
     19 C           2.5790    1.0210    0.0000 C.ar    1  LIG1        0.0062
     20 C           1.7080    1.5250    0.0000 C.ar    1  LIG1        0.0610
     21 C           1.7080    2.5290    0.0000 C.ar    1  LIG1        0.2967
     22 N           0.8330    3.0330    0.0000 N.ar    1  LIG1       -0.1055
     23 N          -0.0380    2.5290    0.0000 N.ar    1  LIG1       -0.1449
     24 O           2.5790    3.0330    0.0000 O.2     1  LIG1       -0.2636
@<TRIPOS>BOND
     1     1     2   ar
     2     1     6   ar
     3     1    23   ar
     4     2     3   ar
     5     2    20   ar
     6     3     4   ar
     7     3    12   ar
     8     4     5   ar
     9     4    11    2
    10     5     6   ar
    11     5    10   ar
    12     6     7   ar
    13     7     8   ar
    14     8     9   ar
    15     9    10   ar
    16    12    13    1
    17    12    18   ar
    18    13    14    1
    19    13    17    1
    20    14    15    1
    21    15    16    1
    22    16    17    1
    23    18    19   ar
    24    19    20   ar
    25    20    21   ar
    26    21    22   ar
    27    21    24    2
    28    22    23   ar
