@<TRIPOS>MOLECULE
31643_ChemDiv_8009-4314
 24 27 0 0 0
SMALL
GASTEIGER
Energy = 0

@<TRIPOS>ATOM
      1 N          -0.2790   -0.3250    0.0000 N.am    1  LIG1       -0.2564
      2 C           0.4040    0.4170    0.0000 C.3     1  LIG1        0.0958
      3 C          -0.0960    1.2830    0.0000 C.3     1  LIG1        0.0991
      4 C          -1.0750    1.0670    0.0000 C.ar    1  LIG1       -0.0017
      5 C          -1.1710    0.0880    0.0000 C.ar    1  LIG1        0.0503
      6 C          -2.0750   -0.3250    0.0000 C.ar    1  LIG1        0.0143
      7 C          -2.8960    0.2330    0.0000 C.ar    1  LIG1       -0.0030
      8 C          -2.8000    1.2250    0.0000 C.ar    1  LIG1       -0.0221
      9 C          -1.8790    1.6460    0.0000 C.ar    1  LIG1       -0.0070
     10 C          -3.6380    1.7960    0.0000 C.3     1  LIG1        0.0310
     11 C           0.4040    2.1460    0.0000 C.3     1  LIG1        0.1448
     12 N           1.4080    2.1460    0.0000 N.4     1  LIG1        0.3823
     13 C           1.9080    1.2830    0.0000 C.3     1  LIG1        0.1406
     14 C           1.4080    0.4290    0.0000 C.3     1  LIG1        0.0834
     15 C           1.9250    3.0380    0.0000 C.3     1  LIG1        0.2022
     16 C          -0.0960   -1.3380    0.0000 C.2     1  LIG1        0.2527
     17 C           0.8330   -1.6880    0.0000 C.ar    1  LIG1        0.0539
     18 C           1.6210   -1.0630    0.0000 C.ar    1  LIG1        0.0042
     19 C           2.5460   -1.4170    0.0000 C.ar    1  LIG1       -0.0041
     20 C           2.7130   -2.3960    0.0000 C.ar    1  LIG1       -0.0218
     21 C           1.9250   -3.0330    0.0000 C.ar    1  LIG1       -0.0041
     22 C           1.0000   -2.6750    0.0000 C.ar    1  LIG1        0.0042
     23 C           3.6330   -2.7580    0.0000 C.3     1  LIG1        0.0310
     24 O          -0.8540   -1.9750    0.0000 O.2     1  LIG1       -0.2696
@<TRIPOS>BOND
     1     1     2    1
     2     1     5    1
     3     1    16   am
     4     2     3    1
     5     2    14    1
     6     3     4    1
     7     3    11    1
     8     4     5   ar
     9     4     9   ar
    10     5     6   ar
    11     6     7   ar
    12     7     8   ar
    13     8     9   ar
    14     8    10    1
    15    11    12    1
    16    12    13    1
    17    12    15    1
    18    13    14    1
    19    16    17    1
    20    16    24    2
    21    17    18   ar
    22    17    22   ar
    23    18    19   ar
    24    19    20   ar
    25    20    21   ar
    26    20    23    1
    27    21    22   ar
