@<TRIPOS>MOLECULE
31647_ChemDiv_8009-6250
 24 26 0 0 0
SMALL
GASTEIGER
Energy = 0

@<TRIPOS>ATOM
      1 N          -1.4460   -0.8540    0.0000 N.am    1  LIG1       -0.2598
      2 C          -0.7630   -0.1210    0.0000 C.3     1  LIG1        0.0955
      3 C          -1.2790    0.7460    0.0000 C.3     1  LIG1        0.0991
      4 C          -2.2420    0.5460    0.0000 C.ar    1  LIG1       -0.0017
      5 C          -2.3500   -0.4460    0.0000 C.ar    1  LIG1        0.0500
      6 C          -3.2710   -0.8540    0.0000 C.ar    1  LIG1        0.0143
      7 C          -4.0750   -0.2540    0.0000 C.ar    1  LIG1       -0.0030
      8 C          -3.9540    0.7130    0.0000 C.ar    1  LIG1       -0.0221
      9 C          -3.0670    1.1420    0.0000 C.ar    1  LIG1       -0.0070
     10 C          -4.7710    1.3040    0.0000 C.3     1  LIG1        0.0310
     11 C          -0.7630    1.6210    0.0000 C.3     1  LIG1        0.1448
     12 N           0.2080    1.6210    0.0000 N.4     1  LIG1        0.3823
     13 C           0.7080    0.7460    0.0000 C.3     1  LIG1        0.1406
     14 C           0.2080   -0.1210    0.0000 C.3     1  LIG1        0.0834
     15 C           0.7250    2.5170    0.0000 C.3     1  LIG1        0.2022
     16 C          -1.2750   -1.8460    0.0000 C.2     1  LIG1        0.2293
     17 O          -2.0330   -2.5130    0.0000 O.2     1  LIG1       -0.2745
     18 C          -0.2920   -2.1920    0.0000 C.3     1  LIG1        0.0856
     19 C           0.4630   -1.5380    0.0000 C.3     1  LIG1        0.0096
     20 C           1.3920   -1.8920    0.0000 C.3     1  LIG1        0.0005
     21 C           2.1420   -1.2500    0.0000 C.3     1  LIG1        0.0000
     22 C           3.0710   -1.5830    0.0000 C.3     1  LIG1        0.0000
     23 C           3.8250   -0.9460    0.0000 C.3     1  LIG1        0.0000
     24 C           4.7670   -1.2790    0.0000 C.3     1  LIG1        0.0000
@<TRIPOS>BOND
     1     1     2    1
     2     1     5    1
     3     1    16   am
     4     2     3    1
     5     2    14    1
     6     3     4    1
     7     3    11    1
     8     4     5   ar
     9     4     9   ar
    10     5     6   ar
    11     6     7   ar
    12     7     8   ar
    13     8     9   ar
    14     8    10    1
    15    11    12    1
    16    12    13    1
    17    12    15    1
    18    13    14    1
    19    16    17    2
    20    16    18    1
    21    18    19    1
    22    19    20    1
    23    20    21    1
    24    21    22    1
    25    22    23    1
    26    23    24    1
