@<TRIPOS>MOLECULE
31641_ChemDiv_8009-3251
 27 32 0 0 0
SMALL
GASTEIGER
Energy = 0

@<TRIPOS>ATOM
      1 N          -0.0580   -0.0630    0.0000 N.am    1  LIG1       -0.2599
      2 C           0.6210    0.6830    0.0000 C.3     1  LIG1        0.0955
      3 C           0.1080    1.5580    0.0000 C.3     1  LIG1        0.0991
      4 C          -0.8630    1.3330    0.0000 C.ar    1  LIG1       -0.0017
      5 C          -0.9580    0.3630    0.0000 C.ar    1  LIG1        0.0500
      6 C          -1.8630   -0.0630    0.0000 C.ar    1  LIG1        0.0143
      7 C          -2.6790    0.5000    0.0000 C.ar    1  LIG1       -0.0030
      8 C          -2.5920    1.4960    0.0000 C.ar    1  LIG1       -0.0221
      9 C          -1.6670    1.9210    0.0000 C.ar    1  LIG1       -0.0070
     10 C          -3.4290    2.0580    0.0000 C.3     1  LIG1        0.0310
     11 C           0.6210    2.4210    0.0000 C.3     1  LIG1        0.1448
     12 N           1.6210    2.4210    0.0000 N.4     1  LIG1        0.3823
     13 C           2.1210    1.5580    0.0000 C.3     1  LIG1        0.1406
     14 C           1.6210    0.7080    0.0000 C.3     1  LIG1        0.0834
     15 C           2.1460    3.3040    0.0000 C.3     1  LIG1        0.2022
     16 C           0.1080   -1.0630    0.0000 C.2     1  LIG1        0.2283
     17 C           1.0460   -1.4130    0.0000 C.3     1  LIG1        0.0694
     18 C           0.5630   -2.2460    0.0000 C.3     1  LIG1        0.0086
     19 C           1.1210   -3.1790    0.0000 C.3     1  LIG1        0.0005
     20 C           2.0170   -2.6540    0.0000 C.3     1  LIG1        0.0000
     21 C           2.5540   -1.7540    0.0000 C.3     1  LIG1        0.0005
     22 C           2.0000   -0.9420    0.0000 C.3     1  LIG1        0.0086
     23 C           3.4250   -1.8460    0.0000 C.3     1  LIG1        0.0000
     24 C           2.5540   -2.3960    0.0000 C.3     1  LIG1        0.0005
     25 C           1.9710   -1.5880    0.0000 C.3     1  LIG1        0.0086
     26 C           2.0290   -3.3000    0.0000 C.3     1  LIG1        0.0000
     27 O          -0.6380   -1.7000    0.0000 O.2     1  LIG1       -0.2746
@<TRIPOS>BOND
     1     1     2    1
     2     1     5    1
     3     1    16   am
     4     2     3    1
     5     2    14    1
     6     3     4    1
     7     3    11    1
     8     4     5   ar
     9     4     9   ar
    10     5     6   ar
    11     6     7   ar
    12     7     8   ar
    13     8     9   ar
    14     8    10    1
    15    11    12    1
    16    12    13    1
    17    12    15    1
    18    13    14    1
    19    16    17    1
    20    16    27    2
    21    17    18    1
    22    17    22    1
    23    17    25    1
    24    18    19    1
    25    19    20    1
    26    19    26    1
    27    20    21    1
    28    21    22    1
    29    21    23    1
    30    23    24    1
    31    24    25    1
    32    24    26    1
