@<TRIPOS>MOLECULE
31655_ChemDiv_5237-0515
 32 35 0 0 0
SMALL
GASTEIGER
Energy = 0

@<TRIPOS>ATOM
      1 C           0.2290    1.5080    0.0000 C.2     1  LIG1        0.0707
      2 C           1.1540    1.0920    0.0000 C.2     1  LIG1        0.2728
      3 N           1.8290    1.8330    0.0000 N.am    1  LIG1       -0.1552
      4 N           1.3210    2.7000    0.0000 N.2     1  LIG1       -0.1755
      5 C           0.3380    2.4960    0.0000 C.2     1  LIG1        0.0817
      6 C          -0.4210    3.1500    0.0000 C.3     1  LIG1        0.0539
      7 C           2.8330    1.7290    0.0000 C.ar    1  LIG1        0.0771
      8 C           3.4250    2.5330    0.0000 C.ar    1  LIG1        0.0168
      9 C           4.4290    2.4290    0.0000 C.ar    1  LIG1        0.0013
     10 C           4.8540    1.5210    0.0000 C.ar    1  LIG1        0.0001
     11 C           4.2500    0.7130    0.0000 C.ar    1  LIG1        0.0013
     12 C           3.2460    0.8210    0.0000 C.ar    1  LIG1        0.0168
     13 O           1.3540    0.1250    0.0000 O.2     1  LIG1       -0.2678
     14 C          -0.6380    1.0080    0.0000 C.2     1  LIG1        0.0089
     15 C          -0.6380    0.0500    0.0000 C.ar    1  LIG1        0.0383
     16 C          -1.4830   -0.4330    0.0000 C.ar    1  LIG1        0.1023
     17 N          -1.4830   -1.3630    0.0000 N.ar    1  LIG1       -0.1692
     18 N           0.1920   -1.3630    0.0000 N.ar    1  LIG1       -0.2491
     19 C           0.1920   -0.4330    0.0000 C.ar    1  LIG1        0.0966
     20 C           0.8750   -2.0210    0.0000 C.3     1  LIG1        0.1334
     21 C           1.7290   -1.5420    0.0000 C.3     1  LIG1        0.0680
     22 C           2.4420   -2.2210    0.0000 C.2     1  LIG1        0.0524
     23 O           3.3920   -1.9670    0.0000 O.co2   1  LIG1       -0.5491
     24 O           2.1790   -3.1460    0.0000 O.co2   1  LIG1       -0.5491
     25 C          -2.3250    0.0460    0.0000 C.ar    1  LIG1        0.0196
     26 C          -3.1540   -0.4330    0.0000 C.ar    1  LIG1        0.0047
     27 C          -4.0040    0.0290    0.0000 C.ar    1  LIG1        0.0369
     28 C          -4.0130    0.9750    0.0000 C.ar    1  LIG1        0.1387
     29 C          -3.1710    1.4630    0.0000 C.ar    1  LIG1        0.0369
     30 C          -2.3290    0.9830    0.0000 C.ar    1  LIG1        0.0047
     31 O          -4.8580    1.4670    0.0000 O.3     1  LIG1       -0.4714
     32 C          -4.8580    2.4420    0.0000 C.3     1  LIG1        0.2525
@<TRIPOS>BOND
     1     1     2    1
     2     1     5    1
     3     1    14    2
     4     2     3   am
     5     2    13    2
     6     3     4    1
     7     3     7    1
     8     4     5    2
     9     5     6    1
    10     7     8   ar
    11     7    12   ar
    12     8     9   ar
    13     9    10   ar
    14    10    11   ar
    15    11    12   ar
    16    14    15    1
    17    15    16   ar
    18    15    19   ar
    19    16    17   ar
    20    16    25    1
    21    17    18   ar
    22    18    19   ar
    23    18    20    1
    24    20    21    1
    25    21    22    1
    26    22    23   ar
    27    22    24   ar
    28    25    26   ar
    29    25    30   ar
    30    26    27   ar
    31    27    28   ar
    32    28    29   ar
    33    28    31    1
    34    29    30   ar
    35    31    32    1
