@<TRIPOS>MOLECULE
31658_ChemDiv_5461-0009
 23 24 0 0 0
SMALL
GASTEIGER
Energy = 0

@<TRIPOS>ATOM
      1 N          -2.8630   -2.8830    0.0000 N.ar    1  LIG1       -0.2860
      2 C          -2.5880   -1.9210    0.0000 C.ar    1  LIG1        0.1938
      3 N          -3.4130   -1.3630    0.0000 N.ar    1  LIG1       -0.1220
      4 N          -4.2000   -2.0000    0.0000 N.ar    1  LIG1       -0.1250
      5 C          -3.8460   -2.9290    0.0000 C.ar    1  LIG1        0.2031
      6 S          -1.6170   -1.6670    0.0000 S.3     1  LIG1       -0.0658
      7 C          -1.3580   -0.6960    0.0000 C.3     1  LIG1        0.1519
      8 C          -0.3750   -0.4380    0.0000 C.2     1  LIG1        0.2570
      9 N          -0.1170    0.5330    0.0000 N.am    1  LIG1       -0.1785
     10 C           0.8540    0.7920    0.0000 C.ar    1  LIG1        0.0735
     11 C           1.5670    0.0830    0.0000 C.ar    1  LIG1        0.0177
     12 C           2.5130    0.3380    0.0000 C.ar    1  LIG1        0.0153
     13 C           3.2250   -0.3630    0.0000 C.2     1  LIG1        0.0729
     14 O           4.1960   -0.1000    0.0000 O.co2   1  LIG1       -0.5446
     15 O           2.9790   -1.3330    0.0000 O.co2   1  LIG1       -0.5446
     16 C           2.7710    1.3080    0.0000 C.ar    1  LIG1        0.0023
     17 C           2.0880    2.0040    0.0000 C.ar    1  LIG1        0.0153
     18 C           2.3540    2.9790    0.0000 C.2     1  LIG1        0.0729
     19 O           1.6420    3.6750    0.0000 O.co2   1  LIG1       -0.5446
     20 O           3.3170    3.2250    0.0000 O.co2   1  LIG1       -0.5446
     21 C           1.1170    1.7460    0.0000 C.ar    1  LIG1        0.0177
     22 O           0.3250   -1.1500    0.0000 O.2     1  LIG1       -0.2720
     23 C          -2.2380   -3.6710    0.0000 C.3     1  LIG1        0.1341
@<TRIPOS>BOND
     1     1     2   ar
     2     1     5   ar
     3     1    23    1
     4     2     3   ar
     5     2     6    1
     6     3     4   ar
     7     4     5   ar
     8     6     7    1
     9     7     8    1
    10     8     9   am
    11     8    22    2
    12     9    10    1
    13    10    11   ar
    14    10    21   ar
    15    11    12   ar
    16    12    13    1
    17    12    16   ar
    18    13    14   ar
    19    13    15   ar
    20    16    17   ar
    21    17    18    1
    22    17    21   ar
    23    18    19   ar
    24    18    20   ar
