@<TRIPOS>MOLECULE
31657_ChemDiv_5238-0049
 20 22 0 0 0
SMALL
GASTEIGER
Energy = 0

@<TRIPOS>ATOM
      1 C          -0.9170    0.8000    0.0000 C.ar    1  LIG1        0.0803
      2 C          -0.9170   -0.1960    0.0000 C.ar    1  LIG1        0.0697
      3 N           0.0330   -0.5040    0.0000 N.ar    1  LIG1       -0.2269
      4 C           0.6130    0.3040    0.0000 C.ar    1  LIG1        0.1832
      5 S           0.0330    1.1040    0.0000 S.2     1  LIG1       -0.0472
      6 N           1.6250    0.3040    0.0000 N.pl3   1  LIG1       -0.1877
      7 C           2.1130   -0.5630    0.0000 C.ar    1  LIG1        0.0831
      8 C           3.1170   -0.5630    0.0000 C.ar    1  LIG1        0.0729
      9 CL          3.6080    0.3040    0.0000 Cl      1  LIG1       -0.0809
     10 C           3.6080   -1.4290    0.0000 C.ar    1  LIG1        0.0127
     11 C           3.1170   -2.3000    0.0000 C.ar    1  LIG1        0.0010
     12 C           2.1080   -2.3000    0.0000 C.ar    1  LIG1        0.0014
     13 C           1.6080   -1.4290    0.0000 C.ar    1  LIG1        0.0174
     14 C          -1.7830   -0.7000    0.0000 C.3     1  LIG1        0.0469
     15 C          -2.6460   -0.2000    0.0000 C.3     1  LIG1        0.0129
     16 C          -2.6460    0.8000    0.0000 C.3     1  LIG1        0.0701
     17 C          -1.7830    1.3000    0.0000 C.2     1  LIG1        0.1802
     18 O          -1.7830    2.3040    0.0000 O.2     1  LIG1       -0.2908
     19 C          -3.1460   -1.0630    0.0000 C.3     1  LIG1        0.0008
     20 C          -3.6130    0.0630    0.0000 C.3     1  LIG1        0.0008
@<TRIPOS>BOND
     1     1     2   ar
     2     1     5   ar
     3     1    17    1
     4     2     3   ar
     5     2    14    1
     6     3     4   ar
     7     4     5   ar
     8     4     6    1
     9     6     7    1
    10     7     8   ar
    11     7    13   ar
    12     8     9    1
    13     8    10   ar
    14    10    11   ar
    15    11    12   ar
    16    12    13   ar
    17    14    15    1
    18    15    16    1
    19    15    19    1
    20    15    20    1
    21    16    17    1
    22    17    18    2
