@<TRIPOS>MOLECULE
31659_ChemDiv_5241-0491
 17 19 0 0 0
SMALL
GASTEIGER
Energy = 0

@<TRIPOS>ATOM
      1 N          -0.4000   -0.5330    0.0000 N.ar    1  LIG1       -0.2901
      2 C          -1.3540   -0.2290    0.0000 C.ar    1  LIG1        0.1677
      3 C          -1.3710    0.7790    0.0000 C.ar    1  LIG1        0.1517
      4 N          -0.4170    1.0920    0.0000 N.ar    1  LIG1       -0.2193
      5 C           0.1880    0.2790    0.0000 C.ar    1  LIG1        0.1800
      6 C          -2.2380    1.2750    0.0000 C.ar    1  LIG1        0.1919
      7 N          -3.0920    0.7630    0.0000 N.ar    1  LIG1       -0.2040
      8 C          -3.0920   -0.2290    0.0000 C.ar    1  LIG1        0.2016
      9 N          -2.2380   -0.7290    0.0000 N.ar    1  LIG1       -0.2048
     10 N          -2.5000    2.2630    0.0000 N.pl3   1  LIG1       -0.1054
     11 C           0.0880   -1.3830    0.0000 C.3     1  LIG1        0.1357
     12 C           1.1000   -1.3830    0.0000 C.ar    1  LIG1        0.0005
     13 C           1.5880   -2.2580    0.0000 C.ar    1  LIG1       -0.0024
     14 C           2.5750   -2.2580    0.0000 C.ar    1  LIG1       -0.0003
     15 C           3.0880   -1.3960    0.0000 C.ar    1  LIG1       -0.0000
     16 C           2.5750   -0.5330    0.0000 C.ar    1  LIG1       -0.0003
     17 C           1.5830   -0.5330    0.0000 C.ar    1  LIG1       -0.0024
@<TRIPOS>BOND
     1     1     2   ar
     2     1     5   ar
     3     1    11    1
     4     2     3   ar
     5     2     9   ar
     6     3     4   ar
     7     3     6   ar
     8     4     5   ar
     9     6     7   ar
    10     6    10    1
    11     7     8   ar
    12     8     9   ar
    13    11    12    1
    14    12    13   ar
    15    12    17   ar
    16    13    14   ar
    17    14    15   ar
    18    15    16   ar
    19    16    17   ar
