@<TRIPOS>MOLECULE
31651_ChemDiv_C074-0128
 31 34 0 0 0
SMALL
GASTEIGER
Energy = 0

@<TRIPOS>ATOM
      1 C          -0.0290    0.5750    0.0000 C.ar    1  LIG1        0.1514
      2 C          -0.0290    1.5790    0.0000 C.ar    1  LIG1        0.0595
      3 C          -0.9830    1.8920    0.0000 C.ar    1  LIG1        0.0224
      4 C          -1.5750    1.0830    0.0000 C.ar    1  LIG1        0.0815
      5 N          -0.9830    0.2710    0.0000 N.ar    1  LIG1       -0.2902
      6 C          -1.3040   -0.6790    0.0000 C.ar    1  LIG1        0.0656
      7 C          -2.2710   -0.8790    0.0000 C.ar    1  LIG1        0.0207
      8 C          -2.5750   -1.8040    0.0000 C.ar    1  LIG1        0.0384
      9 C          -1.8920   -2.5710    0.0000 C.ar    1  LIG1        0.1386
     10 C          -0.9130   -2.3580    0.0000 C.ar    1  LIG1        0.0384
     11 C          -0.6130   -1.4330    0.0000 C.ar    1  LIG1        0.0207
     12 O          -2.1670   -3.5290    0.0000 O.3     1  LIG1       -0.4755
     13 C          -3.1540   -3.7710    0.0000 C.3     1  LIG1        0.2055
     14 C          -3.4380   -4.7330    0.0000 C.3     1  LIG1        0.0512
     15 C          -1.2920    2.8460    0.0000 C.ar    1  LIG1        0.0016
     16 C          -2.2710    3.0460    0.0000 C.ar    1  LIG1        0.0001
     17 C          -2.5750    3.9960    0.0000 C.ar    1  LIG1        0.0000
     18 C          -1.9080    4.7330    0.0000 C.ar    1  LIG1        0.0000
     19 C          -0.9290    4.5380    0.0000 C.ar    1  LIG1        0.0000
     20 C          -0.6210    3.5880    0.0000 C.ar    1  LIG1        0.0001
     21 C           0.8330    2.0790    0.0000 C.ar    1  LIG1        0.1118
     22 N           1.6920    1.5790    0.0000 N.ar    1  LIG1       -0.2175
     23 C           1.6920    0.5750    0.0000 C.ar    1  LIG1        0.2007
     24 N           0.8330    0.0750    0.0000 N.ar    1  LIG1       -0.2062
     25 S           0.8330    3.0790    0.0000 S.3     1  LIG1       -0.0829
     26 C           1.6920    3.5790    0.0000 C.3     1  LIG1        0.1728
     27 C           2.5710    3.0710    0.0000 C.2     1  LIG1        0.3285
     28 O           3.4210    3.5630    0.0000 O.2     1  LIG1       -0.2491
     29 O           2.5580    2.0750    0.0000 O.3     1  LIG1       -0.4479
     30 C           3.4330    1.5750    0.0000 C.3     1  LIG1        0.2086
     31 C           3.4210    0.5750    0.0000 C.3     1  LIG1        0.0513
@<TRIPOS>BOND
     1     1     2   ar
     2     1     5   ar
     3     1    24   ar
     4     2     3   ar
     5     2    21   ar
     6     3     4   ar
     7     3    15    1
     8     4     5   ar
     9     5     6    1
    10     6     7   ar
    11     6    11   ar
    12     7     8   ar
    13     8     9   ar
    14     9    10   ar
    15     9    12    1
    16    10    11   ar
    17    12    13    1
    18    13    14    1
    19    15    16   ar
    20    15    20   ar
    21    16    17   ar
    22    17    18   ar
    23    18    19   ar
    24    19    20   ar
    25    21    22   ar
    26    21    25    1
    27    22    23   ar
    28    23    24   ar
    29    25    26    1
    30    26    27    1
    31    27    28    2
    32    27    29    1
    33    29    30    1
    34    30    31    1
