@<TRIPOS>MOLECULE
31661_ChemDiv_5241-0541
 28 32 0 0 0
SMALL
GASTEIGER
Energy = 0

@<TRIPOS>ATOM
      1 S           2.4500    0.1540    0.0000 S.2     1  LIG1       -0.0287
      2 C           1.6960    0.7460    0.0000 C.ar    1  LIG1        0.2083
      3 N           0.7460    0.4960    0.0000 N.am    1  LIG1       -0.1477
      4 C          -0.1000    0.9830    0.0000 C.2     1  LIG1        0.2885
      5 C          -0.9330    0.4960    0.0000 C.ar    1  LIG1        0.1362
      6 N          -0.9330   -0.4880    0.0000 N.ar    1  LIG1       -0.2435
      7 C          -1.7880   -0.9670    0.0000 C.ar    1  LIG1        0.0770
      8 C          -2.6330   -0.4710    0.0000 C.ar    1  LIG1        0.0948
      9 C          -2.6330    0.4960    0.0000 C.ar    1  LIG1        0.0219
     10 C          -4.3250    0.4960    0.0000 C.ar    1  LIG1        0.0192
     11 C          -4.3250   -0.4710    0.0000 C.ar    1  LIG1        0.0813
     12 N          -3.4830   -0.9670    0.0000 N.ar    1  LIG1       -0.2442
     13 C          -5.1790   -0.9670    0.0000 C.ar    1  LIG1        0.0191
     14 C          -6.0210   -0.4880    0.0000 C.ar    1  LIG1        0.0015
     15 C          -6.0210    0.4960    0.0000 C.ar    1  LIG1        0.0001
     16 C          -5.1790    0.9830    0.0000 C.ar    1  LIG1        0.0015
     17 C          -1.7790    0.9830    0.0000 C.ar    1  LIG1        0.0254
     18 C          -1.8040   -1.9540    0.0000 C.3     1  LIG1        0.0537
     19 O          -0.1000    1.9580    0.0000 O.2     1  LIG1       -0.2663
     20 N           2.0330    1.6750    0.0000 N.ar    1  LIG1       -0.1235
     21 N           3.0130    1.6210    0.0000 N.ar    1  LIG1       -0.1395
     22 C           3.2750    0.6880    0.0000 C.ar    1  LIG1        0.1349
     23 C           4.1830    0.3420    0.0000 C.ar    1  LIG1        0.0257
     24 C           4.3420   -0.6170    0.0000 C.ar    1  LIG1        0.0021
     25 C           5.2670   -0.9630    0.0000 C.ar    1  LIG1        0.0001
     26 C           6.0210   -0.3380    0.0000 C.ar    1  LIG1        0.0000
     27 C           5.8420    0.6290    0.0000 C.ar    1  LIG1        0.0001
     28 C           4.9330    0.9710    0.0000 C.ar    1  LIG1        0.0021
@<TRIPOS>BOND
     1     1     2   ar
     2     1    22   ar
     3     2     3    1
     4     2    20   ar
     5     3     4   am
     6     4     5    1
     7     4    19    2
     8     5     6   ar
     9     5    17   ar
    10     6     7   ar
    11     7     8   ar
    12     7    18    1
    13     8     9   ar
    14     8    12   ar
    15     9    10   ar
    16     9    17   ar
    17    10    11   ar
    18    10    16   ar
    19    11    12   ar
    20    11    13   ar
    21    13    14   ar
    22    14    15   ar
    23    15    16   ar
    24    20    21   ar
    25    21    22   ar
    26    22    23    1
    27    23    24   ar
    28    23    28   ar
    29    24    25   ar
    30    25    26   ar
    31    26    27   ar
    32    27    28   ar
