@<TRIPOS>MOLECULE
31665_ChemDiv_8011-9086
 31 35 0 0 0
SMALL
GASTEIGER
Energy = 0

@<TRIPOS>ATOM
      1 N           2.1710   -0.8330    0.0000 N.am    1  LIG1       -0.2229
      2 C           3.1170   -0.8330    0.0000 C.2     1  LIG1        0.2551
      3 C           3.5580   -1.6540    0.0000 C.ar    1  LIG1        0.0584
      4 C           3.1380   -2.4580    0.0000 C.ar    1  LIG1        0.0584
      5 C           1.7330   -1.6540    0.0000 C.2     1  LIG1        0.2551
      6 O           0.7540   -1.6540    0.0000 O.2     1  LIG1       -0.2695
      7 C           3.6500   -3.2830    0.0000 C.ar    1  LIG1        0.0047
      8 C           4.6130   -3.2830    0.0000 C.ar    1  LIG1        0.0001
      9 C           5.0920   -2.4710    0.0000 C.ar    1  LIG1        0.0001
     10 C           4.5670   -1.6540    0.0000 C.ar    1  LIG1        0.0047
     11 O           3.6130   -0.0040    0.0000 O.2     1  LIG1       -0.2695
     12 C           1.7580   -0.0330    0.0000 C.3     1  LIG1        0.1020
     13 C           0.7500   -0.0330    0.0000 C.3     1  LIG1        0.0316
     14 C           0.2250   -0.8580    0.0000 C.3     1  LIG1        0.0874
     15 C          -0.7250   -0.8580    0.0000 C.2     1  LIG1        0.2293
     16 N          -1.2250   -0.0500    0.0000 N.am    1  LIG1       -0.2598
     17 C          -0.7580    0.7790    0.0000 C.3     1  LIG1        0.0955
     18 C          -1.2250    1.6250    0.0000 C.3     1  LIG1        0.0991
     19 C          -2.6670    0.7790    0.0000 C.ar    1  LIG1       -0.0017
     20 C          -2.2170   -0.0500    0.0000 C.ar    1  LIG1        0.0500
     21 C          -2.6670   -0.8710    0.0000 C.ar    1  LIG1        0.0143
     22 C          -3.6500   -0.8710    0.0000 C.ar    1  LIG1       -0.0030
     23 C          -4.1170   -0.0500    0.0000 C.ar    1  LIG1       -0.0221
     24 C          -3.6500    0.7790    0.0000 C.ar    1  LIG1       -0.0070
     25 C          -5.0960   -0.0500    0.0000 C.3     1  LIG1        0.0310
     26 C          -0.7380    2.4380    0.0000 C.3     1  LIG1        0.1448
     27 N           0.2210    2.4380    0.0000 N.4     1  LIG1        0.3823
     28 C           0.7080    1.6250    0.0000 C.3     1  LIG1        0.1406
     29 C           0.2210    0.7790    0.0000 C.3     1  LIG1        0.0834
     30 C           0.7250    3.2880    0.0000 C.3     1  LIG1        0.2022
     31 O          -1.1750   -1.7170    0.0000 O.2     1  LIG1       -0.2745
@<TRIPOS>BOND
     1     1     2   am
     2     1     5   am
     3     1    12    1
     4     2     3    1
     5     2    11    2
     6     3     4   ar
     7     3    10   ar
     8     4     5    1
     9     4     7   ar
    10     5     6    2
    11     7     8   ar
    12     8     9   ar
    13     9    10   ar
    14    12    13    1
    15    13    14    1
    16    14    15    1
    17    15    16   am
    18    15    31    2
    19    16    17    1
    20    16    20    1
    21    17    18    1
    22    17    29    1
    23    18    19    1
    24    18    26    1
    25    19    20   ar
    26    19    24   ar
    27    20    21   ar
    28    21    22   ar
    29    22    23   ar
    30    23    24   ar
    31    23    25    1
    32    26    27    1
    33    27    28    1
    34    27    30    1
    35    28    29    1
