@<TRIPOS>MOLECULE
31664_ChemDiv_8006-8452
 30 34 0 0 0
SMALL
GASTEIGER
Energy = 0

@<TRIPOS>ATOM
      1 C          -2.7380    0.0540    0.0000 C.ar    1  LIG1        0.1656
      2 C          -3.2330    0.9170    0.0000 C.ar    1  LIG1        0.1383
      3 C          -4.2210    0.6920    0.0000 C.ar    1  LIG1        0.0382
      4 C          -4.3210   -0.2750    0.0000 C.ar    1  LIG1        0.0627
      5 N          -3.4330   -0.6920    0.0000 N.ar    1  LIG1       -0.3094
      6 C          -3.2630   -1.6830    0.0000 C.3     1  LIG1        0.1319
      7 C          -5.2420   -0.6920    0.0000 C.ar    1  LIG1        0.0173
      8 C          -6.0630   -0.1040    0.0000 C.ar    1  LIG1        0.0015
      9 C          -5.9330    0.8380    0.0000 C.ar    1  LIG1        0.0001
     10 C          -5.0460    1.2920    0.0000 C.ar    1  LIG1        0.0031
     11 N          -2.7380    1.7830    0.0000 N.ar    1  LIG1       -0.1429
     12 N          -1.7500    1.7830    0.0000 N.ar    1  LIG1       -0.1217
     13 C          -1.2540    0.9170    0.0000 C.ar    1  LIG1        0.2123
     14 N          -1.7500    0.0540    0.0000 N.ar    1  LIG1       -0.2008
     15 S          -0.2380    0.9170    0.0000 S.3     1  LIG1       -0.0641
     16 C           0.2580    0.0540    0.0000 C.3     1  LIG1        0.1520
     17 C           1.2710    0.0540    0.0000 C.2     1  LIG1        0.2575
     18 N           1.7630   -0.8170    0.0000 N.am    1  LIG1       -0.1712
     19 C           2.7580   -0.8170    0.0000 C.ar    1  LIG1        0.1117
     20 C           3.3380   -0.0040    0.0000 C.ar    1  LIG1        0.0860
     21 C           4.3290   -0.3500    0.0000 C.ar    1  LIG1       -0.0088
     22 C           4.3000   -1.3040    0.0000 C.ar    1  LIG1        0.0052
     23 S           3.3540   -1.6380    0.0000 S.2     1  LIG1       -0.0744
     24 C           5.1540   -1.8460    0.0000 C.3     1  LIG1        0.0327
     25 C           6.0540   -1.3670    0.0000 C.3     1  LIG1        0.0055
     26 C           6.0630   -0.3500    0.0000 C.3     1  LIG1        0.0051
     27 C           5.2130    0.1580    0.0000 C.3     1  LIG1        0.0273
     28 C           3.0210    0.9210    0.0000 C.1     1  LIG1        0.1019
     29 N           2.6960    1.8500    0.0000 N.1     1  LIG1       -0.1908
     30 O           1.7630    0.9170    0.0000 O.2     1  LIG1       -0.2720
@<TRIPOS>BOND
     1     1     2   ar
     2     1     5   ar
     3     1    14   ar
     4     2     3   ar
     5     2    11   ar
     6     3     4   ar
     7     3    10   ar
     8     4     5   ar
     9     4     7   ar
    10     5     6    1
    11     7     8   ar
    12     8     9   ar
    13     9    10   ar
    14    11    12   ar
    15    12    13   ar
    16    13    14   ar
    17    13    15    1
    18    15    16    1
    19    16    17    1
    20    17    18   am
    21    17    30    2
    22    18    19    1
    23    19    20   ar
    24    19    23   ar
    25    20    21   ar
    26    20    28    1
    27    21    22   ar
    28    21    27    1
    29    22    23   ar
    30    22    24    1
    31    24    25    1
    32    25    26    1
    33    26    27    1
    34    28    29    3
