@<TRIPOS>MOLECULE
31669_ChemDiv_C104-0022
 22 24 0 0 0
SMALL
GASTEIGER
Energy = 0

@<TRIPOS>ATOM
      1 N           0.5000   -0.2880    0.0000 N.am    1  LIG1       -0.2431
      2 C           0.7710   -1.2580    0.0000 C.2     1  LIG1        0.3268
      3 N           1.7380   -1.4960    0.0000 N.am    1  LIG1       -0.1916
      4 C           2.0080   -2.4580    0.0000 C.3     1  LIG1        0.0803
      5 C           2.9750   -2.7080    0.0000 C.3     1  LIG1        0.0218
      6 C           1.3080   -3.1750    0.0000 C.3     1  LIG1        0.0218
      7 C           2.4960   -1.5880    0.0000 C.3     1  LIG1        0.0218
      8 O           0.0710   -1.9670    0.0000 O.2     1  LIG1       -0.2504
      9 C           1.1210    0.4880    0.0000 C.3     1  LIG1        0.0970
     10 C           0.5580    1.3290    0.0000 C.3     1  LIG1        0.0992
     11 C          -0.4000    1.0580    0.0000 C.ar    1  LIG1       -0.0017
     12 C          -0.4380    0.0630    0.0000 C.ar    1  LIG1        0.0515
     13 C          -1.3210   -0.4080    0.0000 C.ar    1  LIG1        0.0143
     14 C          -2.1630    0.1210    0.0000 C.ar    1  LIG1       -0.0030
     15 C          -2.1330    1.1210    0.0000 C.ar    1  LIG1       -0.0221
     16 C          -1.2540    1.5880    0.0000 C.ar    1  LIG1       -0.0070
     17 C          -2.9790    1.6500    0.0000 C.3     1  LIG1        0.0310
     18 C           1.0080    2.2290    0.0000 C.3     1  LIG1        0.1448
     19 N           2.0130    2.2880    0.0000 N.4     1  LIG1        0.3823
     20 C           2.5670    1.4500    0.0000 C.3     1  LIG1        0.1406
     21 C           2.1170    0.5580    0.0000 C.3     1  LIG1        0.0834
     22 C           2.4500    3.1790    0.0000 C.3     1  LIG1        0.2022
@<TRIPOS>BOND
     1     1     2   am
     2     1     9    1
     3     1    12    1
     4     2     3   am
     5     2     8    2
     6     3     4    1
     7     4     5    1
     8     4     6    1
     9     4     7    1
    10     9    10    1
    11     9    21    1
    12    10    11    1
    13    10    18    1
    14    11    12   ar
    15    11    16   ar
    16    12    13   ar
    17    13    14   ar
    18    14    15   ar
    19    15    16   ar
    20    15    17    1
    21    18    19    1
    22    19    20    1
    23    19    22    1
    24    20    21    1
