@<TRIPOS>MOLECULE
31663_ChemDiv_5254-2771
 28 32 0 0 0
SMALL
GASTEIGER
Energy = 0

@<TRIPOS>ATOM
      1 C           2.8540   -0.3580    0.0000 C.ar    1  LIG1        0.1683
      2 N           1.9920    0.1250    0.0000 N.ar    1  LIG1       -0.3014
      3 C           2.1710    1.1040    0.0000 C.ar    1  LIG1        0.0793
      4 C           3.1540    1.2250    0.0000 C.ar    1  LIG1        0.0987
      5 N           3.5920    0.3290    0.0000 N.ar    1  LIG1       -0.2250
      6 C           3.5580    2.1670    0.0000 C.ar    1  LIG1        0.0206
      7 C           2.9290    2.9380    0.0000 C.ar    1  LIG1        0.0016
      8 C           1.9500    2.8000    0.0000 C.ar    1  LIG1        0.0016
      9 C           1.5710    1.9130    0.0000 C.ar    1  LIG1        0.0188
     10 C           1.0880   -0.3000    0.0000 C.3     1  LIG1        0.1950
     11 C           0.2630    0.2630    0.0000 C.2     1  LIG1        0.2687
     12 N          -0.6250   -0.1630    0.0000 N.am    1  LIG1       -0.1776
     13 C          -1.4830    0.3460    0.0000 C.ar    1  LIG1        0.0731
     14 C          -2.3460   -0.1630    0.0000 C.ar    1  LIG1        0.0120
     15 C          -3.2170    0.3460    0.0000 C.ar    1  LIG1       -0.0248
     16 C          -3.2170    1.3460    0.0000 C.ar    1  LIG1       -0.0260
     17 C          -2.3580    1.8500    0.0000 C.ar    1  LIG1       -0.0032
     18 C          -1.4830    1.3460    0.0000 C.ar    1  LIG1        0.0163
     19 C          -4.1790    1.6580    0.0000 C.3     1  LIG1        0.0264
     20 C          -4.7670    0.8420    0.0000 C.3     1  LIG1        0.0093
     21 C          -4.1790    0.0210    0.0000 C.3     1  LIG1        0.0264
     22 O           0.3540    1.2670    0.0000 O.2     1  LIG1       -0.2709
     23 C           2.9920   -1.3420    0.0000 C.ar    1  LIG1        0.1941
     24 C           3.8750   -1.8210    0.0000 C.ar    1  LIG1        0.2341
     25 N           3.6790   -2.8000    0.0000 N.ar    1  LIG1       -0.0297
     26 O           2.6880   -2.9330    0.0000 O.2     1  LIG1       -0.2401
     27 N           2.2500   -2.0290    0.0000 N.ar    1  LIG1       -0.0437
     28 N           4.7630   -1.3880    0.0000 N.pl3   1  LIG1       -0.1018
@<TRIPOS>BOND
     1     1     2   ar
     2     1     5   ar
     3     1    23    1
     4     2     3   ar
     5     2    10    1
     6     3     4   ar
     7     3     9   ar
     8     4     5   ar
     9     4     6   ar
    10     6     7   ar
    11     7     8   ar
    12     8     9   ar
    13    10    11    1
    14    11    12   am
    15    11    22    2
    16    12    13    1
    17    13    14   ar
    18    13    18   ar
    19    14    15   ar
    20    15    16   ar
    21    15    21    1
    22    16    17   ar
    23    16    19    1
    24    17    18   ar
    25    19    20    1
    26    20    21    1
    27    23    24   ar
    28    23    27   ar
    29    24    25   ar
    30    24    28    1
    31    25    26   ar
    32    26    27   ar
