@<TRIPOS>MOLECULE
31667_ChemDiv_8012-0449
 33 37 0 0 0
SMALL
GASTEIGER
Energy = 0

@<TRIPOS>ATOM
      1 N           2.8710   -0.8330    0.0000 N.am    1  LIG1       -0.2229
      2 C           2.3880   -0.0080    0.0000 C.2     1  LIG1        0.2551
      3 C           3.8710    0.8540    0.0000 C.ar    1  LIG1        0.0584
      4 C           4.3210   -0.0080    0.0000 C.ar    1  LIG1        0.0584
      5 C           3.8380   -0.8330    0.0000 C.2     1  LIG1        0.2551
      6 O           4.3170   -1.6500    0.0000 O.2     1  LIG1       -0.2695
      7 C           5.2920   -0.0080    0.0000 C.ar    1  LIG1        0.0047
      8 C           5.7880    0.8540    0.0000 C.ar    1  LIG1        0.0001
      9 C           5.3210    1.6580    0.0000 C.ar    1  LIG1        0.0001
     10 C           4.3210    1.6580    0.0000 C.ar    1  LIG1        0.0047
     11 O           1.4670   -0.0080    0.0000 O.2     1  LIG1       -0.2695
     12 C           2.4170   -1.6710    0.0000 C.3     1  LIG1        0.1015
     13 C           1.4500   -1.6710    0.0000 C.3     1  LIG1        0.0220
     14 C           0.9830   -2.4830    0.0000 C.3     1  LIG1        0.0023
     15 C          -0.0750   -2.4830    0.0000 C.3     1  LIG1        0.0096
     16 C          -0.5290   -1.6710    0.0000 C.3     1  LIG1        0.0856
     17 C          -1.4670   -1.6710    0.0000 C.2     1  LIG1        0.2293
     18 N          -1.9380   -0.8330    0.0000 N.am    1  LIG1       -0.2598
     19 C          -1.4500   -0.0040    0.0000 C.3     1  LIG1        0.0955
     20 C          -1.9250    0.8380    0.0000 C.3     1  LIG1        0.0991
     21 C          -3.3750   -0.0040    0.0000 C.ar    1  LIG1       -0.0017
     22 C          -2.9000   -0.8330    0.0000 C.ar    1  LIG1        0.0500
     23 C          -3.3920   -1.6710    0.0000 C.ar    1  LIG1        0.0143
     24 C          -4.3670   -1.6710    0.0000 C.ar    1  LIG1       -0.0030
     25 C          -4.8500   -0.8330    0.0000 C.ar    1  LIG1       -0.0221
     26 C          -4.3380   -0.0040    0.0000 C.ar    1  LIG1       -0.0070
     27 C          -5.7920   -0.8330    0.0000 C.3     1  LIG1        0.0310
     28 C          -1.4330    1.6580    0.0000 C.3     1  LIG1        0.1448
     29 N          -0.4670    1.6580    0.0000 N.4     1  LIG1        0.3823
     30 C           0.0000    0.8380    0.0000 C.3     1  LIG1        0.1406
     31 C          -0.5000   -0.0040    0.0000 C.3     1  LIG1        0.0834
     32 C           0.0170    2.4880    0.0000 C.3     1  LIG1        0.2022
     33 O          -1.9380   -2.4710    0.0000 O.2     1  LIG1       -0.2745
@<TRIPOS>BOND
     1     1     2   am
     2     1     5   am
     3     1    12    1
     4     2     3    1
     5     2    11    2
     6     3     4   ar
     7     3    10   ar
     8     4     5    1
     9     4     7   ar
    10     5     6    2
    11     7     8   ar
    12     8     9   ar
    13     9    10   ar
    14    12    13    1
    15    13    14    1
    16    14    15    1
    17    15    16    1
    18    16    17    1
    19    17    18   am
    20    17    33    2
    21    18    19    1
    22    18    22    1
    23    19    20    1
    24    19    31    1
    25    20    21    1
    26    20    28    1
    27    21    22   ar
    28    21    26   ar
    29    22    23   ar
    30    23    24   ar
    31    24    25   ar
    32    25    26   ar
    33    25    27    1
    34    28    29    1
    35    29    30    1
    36    29    32    1
    37    30    31    1
