@<TRIPOS>MOLECULE
31660_ChemDiv_5471-0053
 30 34 0 0 0
SMALL
GASTEIGER
Energy = 0

@<TRIPOS>ATOM
      1 C           2.7500   -0.6670    0.0000 C.ar    1  LIG1        0.1655
      2 C           3.2500    0.2000    0.0000 C.ar    1  LIG1        0.1383
      3 C           4.2210   -0.0040    0.0000 C.ar    1  LIG1        0.0382
      4 C           4.3500   -0.9880    0.0000 C.ar    1  LIG1        0.0626
      5 N           3.4380   -1.4250    0.0000 N.ar    1  LIG1       -0.3132
      6 C           3.2500   -2.3960    0.0000 C.3     1  LIG1        0.0870
      7 C           4.0040   -3.0290    0.0000 C.3     1  LIG1        0.0245
      8 C           2.3290   -2.7380    0.0000 C.3     1  LIG1        0.0245
      9 C           5.2540   -1.4250    0.0000 C.ar    1  LIG1        0.0173
     10 C           6.0420   -0.8130    0.0000 C.ar    1  LIG1        0.0015
     11 C           5.9380    0.1750    0.0000 C.ar    1  LIG1        0.0001
     12 C           5.0290    0.5790    0.0000 C.ar    1  LIG1        0.0031
     13 N           2.7500    1.0580    0.0000 N.ar    1  LIG1       -0.1429
     14 N           1.7580    1.0580    0.0000 N.ar    1  LIG1       -0.1217
     15 C           1.2500    0.2000    0.0000 C.ar    1  LIG1        0.2123
     16 N           1.7580   -0.6670    0.0000 N.ar    1  LIG1       -0.2008
     17 S           0.2710    0.2000    0.0000 S.3     1  LIG1       -0.0641
     18 C          -0.2380    1.0580    0.0000 C.3     1  LIG1        0.1521
     19 C          -1.2500    1.0580    0.0000 C.2     1  LIG1        0.2587
     20 N          -1.7290    1.9250    0.0000 N.am    1  LIG1       -0.1536
     21 C          -2.7210    1.9290    0.0000 C.ar    1  LIG1        0.1852
     22 N          -3.1880    2.7500    0.0000 N.ar    1  LIG1       -0.2272
     23 C          -4.2630    2.4630    0.0000 C.ar    1  LIG1        0.0630
     24 C          -4.3040    1.5040    0.0000 C.ar    1  LIG1        0.0235
     25 S          -3.3130    1.1330    0.0000 S.2     1  LIG1       -0.0544
     26 C          -5.1750    1.0380    0.0000 C.3     1  LIG1        0.0343
     27 C          -6.0420    1.5460    0.0000 C.3     1  LIG1        0.0057
     28 C          -5.9880    2.5580    0.0000 C.3     1  LIG1        0.0067
     29 C          -5.0960    3.0330    0.0000 C.3     1  LIG1        0.0461
     30 O          -1.7290    0.2000    0.0000 O.2     1  LIG1       -0.2720
@<TRIPOS>BOND
     1     1     2   ar
     2     1     5   ar
     3     1    16   ar
     4     2     3   ar
     5     2    13   ar
     6     3     4   ar
     7     3    12   ar
     8     4     5   ar
     9     4     9   ar
    10     5     6    1
    11     6     7    1
    12     6     8    1
    13     9    10   ar
    14    10    11   ar
    15    11    12   ar
    16    13    14   ar
    17    14    15   ar
    18    15    16   ar
    19    15    17    1
    20    17    18    1
    21    18    19    1
    22    19    20   am
    23    19    30    2
    24    20    21    1
    25    21    22   ar
    26    21    25   ar
    27    22    23   ar
    28    23    24   ar
    29    23    29    1
    30    24    25   ar
    31    24    26    1
    32    26    27    1
    33    27    28    1
    34    28    29    1
