@<TRIPOS>MOLECULE
31671_ChemDiv_6049-2028
 21 21 0 0 0
SMALL
GASTEIGER
Energy = 0

@<TRIPOS>ATOM
      1 C          -2.2630   -0.0250    0.0000 C.2     1  LIG1        0.2252
      2 N          -1.2710   -0.1380    0.0000 N.am    1  LIG1       -0.2777
      3 C          -0.6250    0.6830    0.0000 C.3     1  LIG1        0.1148
      4 C           0.3290    0.6830    0.0000 C.3     1  LIG1        0.1148
      5 N           0.9500   -0.1540    0.0000 N.am    1  LIG1       -0.2777
      6 C           1.9330   -0.0830    0.0000 C.2     1  LIG1        0.2252
      7 O           2.3460    0.8460    0.0000 O.2     1  LIG1       -0.2749
      8 C           2.5210   -0.9290    0.0000 C.3     1  LIG1        0.0767
      9 C           2.1080   -1.8460    0.0000 C.3     1  LIG1        0.0091
     10 C           2.6830   -2.6420    0.0000 C.3     1  LIG1        0.0005
     11 C           3.5080   -0.8130    0.0000 C.3     1  LIG1        0.0091
     12 C           4.0830   -1.6420    0.0000 C.3     1  LIG1        0.0005
     13 C           0.7420   -1.0670    0.0000 C.3     1  LIG1        0.0952
     14 C          -0.1710   -1.5210    0.0000 C.3     1  LIG1        0.0430
     15 C          -1.0380   -1.0790    0.0000 C.3     1  LIG1        0.0952
     16 O          -2.8380   -0.8540    0.0000 O.2     1  LIG1       -0.2749
     17 C          -2.6710    0.9210    0.0000 C.3     1  LIG1        0.0767
     18 C          -2.0960    1.7290    0.0000 C.3     1  LIG1        0.0091
     19 C          -2.5130    2.6460    0.0000 C.3     1  LIG1        0.0005
     20 C          -3.6750    0.9960    0.0000 C.3     1  LIG1        0.0091
     21 C          -4.0880    1.9080    0.0000 C.3     1  LIG1        0.0005
@<TRIPOS>BOND
     1     1     2   am
     2     1    16    2
     3     1    17    1
     4     2     3    1
     5     2    15    1
     6     3     4    1
     7     4     5    1
     8     5     6   am
     9     5    13    1
    10     6     7    2
    11     6     8    1
    12     8     9    1
    13     8    11    1
    14     9    10    1
    15    11    12    1
    16    13    14    1
    17    14    15    1
    18    17    18    1
    19    17    20    1
    20    18    19    1
    21    20    21    1
