@<TRIPOS>MOLECULE
31677_ChemDiv_5324-0051
 16 16 0 0 0
SMALL
GASTEIGER
Energy = 0

@<TRIPOS>ATOM
      1 N          -0.4420    0.2540    0.0000 N.4     1  LIG1        0.3126
      2 C          -0.4420   -0.7460    0.0000 C.3     1  LIG1        0.2196
      3 C           0.4380   -1.2500    0.0000 C.2     1  LIG1        0.3739
      4 O           1.3000   -0.7460    0.0000 O.2     1  LIG1       -0.2435
      5 O           0.4380   -2.2500    0.0000 O.3     1  LIG1       -0.4445
      6 C           1.2790   -2.7540    0.0000 C.3     1  LIG1        0.2088
      7 C           1.2790   -3.7500    0.0000 C.3     1  LIG1        0.0513
      8 C          -1.2830    0.7540    0.0000 C.3     1  LIG1        0.1313
      9 C          -1.2830    1.7630    0.0000 C.3     1  LIG1        0.1548
     10 N          -0.4420    2.2540    0.0000 N.am    1  LIG1       -0.2682
     11 C          -0.4420    3.2630    0.0000 C.2     1  LIG1        0.2265
     12 O           0.4380    3.7540    0.0000 O.2     1  LIG1       -0.2748
     13 C          -1.3000    3.7540    0.0000 C.3     1  LIG1        0.0948
     14 C           0.4540    1.7630    0.0000 C.3     1  LIG1        0.1548
     15 C           0.4540    0.7540    0.0000 C.3     1  LIG1        0.1313
     16 C          -1.2830   -0.2540    0.0000 C.3     1  LIG1        0.1712
@<TRIPOS>BOND
     1     1     2    1
     2     1     8    1
     3     1    15    1
     4     1    16    1
     5     2     3    1
     6     3     4    2
     7     3     5    1
     8     5     6    1
     9     6     7    1
    10     8     9    1
    11     9    10    1
    12    10    11   am
    13    10    14    1
    14    11    12    2
    15    11    13    1
    16    14    15    1
