@<TRIPOS>MOLECULE
31675_ChemDiv_6526-0645
 21 24 0 0 0
SMALL
GASTEIGER
Energy = 0

@<TRIPOS>ATOM
      1 N           0.9290   -0.1960    0.0000 N.ar    1  LIG1       -0.3264
      2 C           1.1670    0.7670    0.0000 C.ar    1  LIG1        0.0449
      3 C           0.3210    1.3250    0.0000 C.ar    1  LIG1        0.0476
      4 C          -0.4580    0.6670    0.0000 C.ar    1  LIG1        0.0184
      5 C          -0.0500   -0.2500    0.0000 C.ar    1  LIG1        0.0598
      6 C          -0.6580   -1.0630    0.0000 C.ar    1  LIG1        0.0172
      7 C          -1.6790   -0.9080    0.0000 C.ar    1  LIG1        0.0015
      8 C          -2.0500    0.0040    0.0000 C.ar    1  LIG1        0.0001
      9 C          -1.4420    0.8170    0.0000 C.ar    1  LIG1        0.0014
     10 C           0.3210    2.2880    0.0000 C.3     1  LIG1        0.1677
     11 N           1.2000    2.7960    0.0000 N.4     1  LIG1        0.3858
     12 C           2.0460    2.2880    0.0000 C.3     1  LIG1        0.1457
     13 C           2.0460    1.2750    0.0000 C.3     1  LIG1        0.1062
     14 C           1.2000    3.8130    0.0000 C.3     1  LIG1        0.2027
     15 C           1.6080   -0.9630    0.0000 C.3     1  LIG1        0.1324
     16 C           1.3000   -1.8750    0.0000 C.ar    1  LIG1        0.0004
     17 C           0.3540   -2.1290    0.0000 C.ar    1  LIG1       -0.0024
     18 C           0.0500   -3.0420    0.0000 C.ar    1  LIG1       -0.0003
     19 C           0.7250   -3.8080    0.0000 C.ar    1  LIG1       -0.0000
     20 C           1.7080   -3.5500    0.0000 C.ar    1  LIG1       -0.0003
     21 C           1.9830   -2.6380    0.0000 C.ar    1  LIG1       -0.0024
@<TRIPOS>BOND
     1     1     2   ar
     2     1     5   ar
     3     1    15    1
     4     2     3   ar
     5     2    13    1
     6     3     4   ar
     7     3    10    1
     8     4     5   ar
     9     4     9   ar
    10     5     6   ar
    11     6     7   ar
    12     7     8   ar
    13     8     9   ar
    14    10    11    1
    15    11    12    1
    16    11    14    1
    17    12    13    1
    18    15    16    1
    19    16    17   ar
    20    16    21   ar
    21    17    18   ar
    22    18    19   ar
    23    19    20   ar
    24    20    21   ar
