@<TRIPOS>MOLECULE
31689_ChemDiv_8008-6049
 26 30 0 0 0
SMALL
GASTEIGER
Energy = 0

@<TRIPOS>ATOM
      1 C           0.3630    1.9210    0.0000 C.ar    1  LIG1        0.1682
      2 N          -0.2210    1.1130    0.0000 N.ar    1  LIG1       -0.3058
      3 C           0.0790    0.1500    0.0000 C.3     1  LIG1        0.1352
      4 C          -0.5830   -0.5830    0.0000 C.ar    1  LIG1        0.0142
      5 C          -1.5670   -0.3830    0.0000 C.ar    1  LIG1        0.0587
      6 C          -2.2290   -1.1210    0.0000 C.ar    1  LIG1        0.0513
      7 C          -1.9170   -2.0750    0.0000 C.ar    1  LIG1        0.1772
      8 C          -0.9380   -2.2790    0.0000 C.ar    1  LIG1        0.1762
      9 C          -0.2630   -1.5420    0.0000 C.ar    1  LIG1        0.0386
     10 O          -0.8330   -3.2710    0.0000 O.3     1  LIG1       -0.4346
     11 C          -1.7380   -3.6750    0.0000 C.3     1  LIG1        0.4294
     12 O          -2.4170   -2.9330    0.0000 O.3     1  LIG1       -0.4346
     13 CL         -1.8710    0.5670    0.0000 Cl      1  LIG1       -0.0824
     14 C          -1.1830    1.4130    0.0000 C.ar    1  LIG1        0.0791
     15 C          -1.1830    2.4290    0.0000 C.ar    1  LIG1        0.0987
     16 N          -0.2210    2.7170    0.0000 N.ar    1  LIG1       -0.2250
     17 C          -2.0460    2.9170    0.0000 C.ar    1  LIG1        0.0206
     18 C          -2.9130    2.4290    0.0000 C.ar    1  LIG1        0.0016
     19 C          -2.9130    1.4130    0.0000 C.ar    1  LIG1        0.0016
     20 C          -2.0460    0.9170    0.0000 C.ar    1  LIG1        0.0188
     21 C           1.3580    1.9210    0.0000 C.ar    1  LIG1        0.1941
     22 C           1.9630    2.7170    0.0000 C.ar    1  LIG1        0.2341
     23 N           2.9080    2.4130    0.0000 N.ar    1  LIG1       -0.0297
     24 O           2.9080    1.4130    0.0000 O.2     1  LIG1       -0.2401
     25 N           1.9630    1.1130    0.0000 N.ar    1  LIG1       -0.0437
     26 N           1.6460    3.6790    0.0000 N.pl3   1  LIG1       -0.1018
@<TRIPOS>BOND
     1     1     2   ar
     2     1    16   ar
     3     1    21    1
     4     2     3    1
     5     2    14   ar
     6     3     4    1
     7     4     5   ar
     8     4     9   ar
     9     5     6   ar
    10     5    13    1
    11     6     7   ar
    12     7     8   ar
    13     7    12    1
    14     8     9   ar
    15     8    10    1
    16    10    11    1
    17    11    12    1
    18    14    15   ar
    19    14    20   ar
    20    15    16   ar
    21    15    17   ar
    22    17    18   ar
    23    18    19   ar
    24    19    20   ar
    25    21    22   ar
    26    21    25   ar
    27    22    23   ar
    28    22    26    1
    29    23    24   ar
    30    24    25   ar
