@<TRIPOS>MOLECULE
31685_ChemDiv_6265-0262
 29 33 0 0 0
SMALL
GASTEIGER
Energy = 0

@<TRIPOS>ATOM
      1 C          -0.2420    1.6790    0.0000 C.ar    1  LIG1        0.1683
      2 N          -0.8380    0.8710    0.0000 N.ar    1  LIG1       -0.3014
      3 C          -1.7920    1.1750    0.0000 C.ar    1  LIG1        0.0793
      4 C          -1.7920    2.1790    0.0000 C.ar    1  LIG1        0.0987
      5 N          -0.8380    2.4920    0.0000 N.ar    1  LIG1       -0.2250
      6 C          -2.6670    2.6920    0.0000 C.ar    1  LIG1        0.0206
      7 C          -3.5330    2.1790    0.0000 C.ar    1  LIG1        0.0016
      8 C          -3.5330    1.1750    0.0000 C.ar    1  LIG1        0.0016
      9 C          -2.6670    0.6750    0.0000 C.ar    1  LIG1        0.0188
     10 C          -0.5290   -0.0830    0.0000 C.3     1  LIG1        0.1950
     11 C          -1.1960   -0.8250    0.0000 C.2     1  LIG1        0.2687
     12 N          -0.8960   -1.7830    0.0000 N.am    1  LIG1       -0.1776
     13 C           0.0750   -2.0420    0.0000 C.ar    1  LIG1        0.0732
     14 C           0.7750   -1.3250    0.0000 C.ar    1  LIG1        0.0161
     15 C           1.7380   -1.5960    0.0000 C.ar    1  LIG1        0.0288
     16 C           1.9880   -2.5540    0.0000 C.ar    1  LIG1        0.0753
     17 C           2.9830   -2.6000    0.0000 C.2     1  LIG1        0.3413
     18 O           3.3380   -1.6750    0.0000 O.3     1  LIG1       -0.4404
     19 C           2.5710   -1.0540    0.0000 C.3     1  LIG1        0.2356
     20 O           3.5290   -3.4460    0.0000 O.2     1  LIG1       -0.2449
     21 C           1.2830   -3.2540    0.0000 C.ar    1  LIG1        0.0076
     22 C           0.3290   -2.9960    0.0000 C.ar    1  LIG1        0.0168
     23 O          -2.1710   -0.6130    0.0000 O.2     1  LIG1       -0.2709
     24 C           0.7580    1.6790    0.0000 C.ar    1  LIG1        0.1941
     25 C           1.3500    2.4920    0.0000 C.ar    1  LIG1        0.2341
     26 N           2.3000    2.1790    0.0000 N.ar    1  LIG1       -0.0297
     27 O           2.3000    1.1790    0.0000 O.2     1  LIG1       -0.2401
     28 N           1.3500    0.8710    0.0000 N.ar    1  LIG1       -0.0437
     29 N           1.0330    3.4500    0.0000 N.pl3   1  LIG1       -0.1018
@<TRIPOS>BOND
     1     1     2   ar
     2     1     5   ar
     3     1    24    1
     4     2     3   ar
     5     2    10    1
     6     3     4   ar
     7     3     9   ar
     8     4     5   ar
     9     4     6   ar
    10     6     7   ar
    11     7     8   ar
    12     8     9   ar
    13    10    11    1
    14    11    12   am
    15    11    23    2
    16    12    13    1
    17    13    14   ar
    18    13    22   ar
    19    14    15   ar
    20    15    16   ar
    21    15    19    1
    22    16    17    1
    23    16    21   ar
    24    17    18    1
    25    17    20    2
    26    18    19    1
    27    21    22   ar
    28    24    25   ar
    29    24    28   ar
    30    25    26   ar
    31    25    29    1
    32    26    27   ar
    33    27    28   ar
