@<TRIPOS>MOLECULE
31682_ChemDiv_8009-9511
 35 39 0 0 0
SMALL
GASTEIGER
Energy = 0

@<TRIPOS>ATOM
      1 C           2.5170   -0.0750    0.0000 C.ar    1  LIG1        0.1656
      2 C           2.5170   -1.0080    0.0000 C.ar    1  LIG1        0.1383
      3 C           4.1540   -1.0080    0.0000 C.ar    1  LIG1        0.0387
      4 C           4.1540   -0.0750    0.0000 C.ar    1  LIG1        0.0627
      5 N           3.3500    0.4000    0.0000 N.ar    1  LIG1       -0.3094
      6 C           3.3500    1.3750    0.0000 C.3     1  LIG1        0.1319
      7 C           4.9880    0.4000    0.0000 C.ar    1  LIG1        0.0178
      8 C           5.8210   -0.0750    0.0000 C.ar    1  LIG1        0.0082
      9 C           5.8210   -1.0080    0.0000 C.ar    1  LIG1        0.0347
     10 C           4.9880   -1.4880    0.0000 C.ar    1  LIG1        0.0098
     11 BR          6.6710   -1.4710    0.0000 Br      1  LIG1       -0.0490
     12 N           1.6750   -1.4880    0.0000 N.ar    1  LIG1       -0.1429
     13 N           0.8420   -1.0080    0.0000 N.ar    1  LIG1       -0.1217
     14 C           0.8420   -0.0750    0.0000 C.ar    1  LIG1        0.2123
     15 N           1.6750    0.4000    0.0000 N.ar    1  LIG1       -0.2008
     16 S           0.0080    0.4000    0.0000 S.3     1  LIG1       -0.0641
     17 C          -0.8670   -0.1040    0.0000 C.3     1  LIG1        0.1520
     18 C          -0.8670   -1.0080    0.0000 C.2     1  LIG1        0.2575
     19 N          -1.6750   -1.5170    0.0000 N.am    1  LIG1       -0.1717
     20 C          -2.5000   -1.0380    0.0000 C.ar    1  LIG1        0.1085
     21 C          -2.5000   -0.0920    0.0000 C.ar    1  LIG1        0.0937
     22 C          -4.1670   -0.0920    0.0000 C.ar    1  LIG1       -0.0006
     23 C          -4.1670   -1.0380    0.0000 C.ar    1  LIG1        0.0616
     24 S          -3.3380   -1.5170    0.0000 S.2     1  LIG1       -0.0691
     25 C          -5.0040   -1.5170    0.0000 C.3     1  LIG1        0.1727
     26 N          -5.8380   -1.0380    0.0000 N.4     1  LIG1        0.3861
     27 C          -5.8380   -0.0920    0.0000 C.3     1  LIG1        0.1441
     28 C          -5.0040    0.3880    0.0000 C.3     1  LIG1        0.0897
     29 C          -6.6710   -1.5170    0.0000 C.3     1  LIG1        0.2028
     30 C          -2.5000    0.9880    0.0000 C.2     1  LIG1        0.3427
     31 O          -3.3670    1.4750    0.0000 O.2     1  LIG1       -0.2448
     32 O          -1.6750    1.5210    0.0000 O.3     1  LIG1       -0.4454
     33 C          -0.8250    1.0420    0.0000 C.3     1  LIG1        0.2089
     34 C           0.0380    1.5210    0.0000 C.3     1  LIG1        0.0513
     35 O           0.0710   -1.5170    0.0000 O.2     1  LIG1       -0.2720
@<TRIPOS>BOND
     1     1     2   ar
     2     1     5   ar
     3     1    15   ar
     4     2     3   ar
     5     2    12   ar
     6     3     4   ar
     7     3    10   ar
     8     4     5   ar
     9     4     7   ar
    10     5     6    1
    11     7     8   ar
    12     8     9   ar
    13     9    10   ar
    14     9    11    1
    15    12    13   ar
    16    13    14   ar
    17    14    15   ar
    18    14    16    1
    19    16    17    1
    20    17    18    1
    21    18    19   am
    22    18    35    2
    23    19    20    1
    24    20    21   ar
    25    20    24   ar
    26    21    22   ar
    27    21    30    1
    28    22    23   ar
    29    22    28    1
    30    23    24   ar
    31    23    25    1
    32    25    26    1
    33    26    27    1
    34    26    29    1
    35    27    28    1
    36    30    31    2
    37    30    32    1
    38    32    33    1
    39    33    34    1
