@<TRIPOS>MOLECULE
31684_ChemDiv_5471-0134
 35 38 0 0 0
SMALL
GASTEIGER
Energy = 0

@<TRIPOS>ATOM
      1 C          -0.7960   -1.6630    0.0000 C.ar    1  LIG1        0.1317
      2 C          -1.6920   -1.1580    0.0000 C.ar    1  LIG1        0.2062
      3 C          -2.5420   -1.6630    0.0000 C.ar    1  LIG1        0.0733
      4 C          -2.5420   -2.6500    0.0000 C.ar    1  LIG1        0.1465
      5 N          -1.6920   -3.1500    0.0000 N.ar    1  LIG1       -0.3112
      6 C          -0.7960   -2.6500    0.0000 C.ar    1  LIG1        0.0867
      7 C          -1.6920   -4.1460    0.0000 C.3     1  LIG1        0.1076
      8 C          -2.5420   -4.6420    0.0000 C.3     1  LIG1        0.0265
      9 N          -3.4130   -3.1500    0.0000 N.ar    1  LIG1       -0.2325
     10 C          -4.2880   -2.6500    0.0000 C.ar    1  LIG1        0.0610
     11 C          -4.2880   -1.6630    0.0000 C.ar    1  LIG1        0.0150
     12 C          -3.4130   -1.1580    0.0000 C.ar    1  LIG1        0.0074
     13 C          -5.1580   -3.1500    0.0000 C.3     1  LIG1        0.0521
     14 O          -1.6920   -0.1500    0.0000 O.2     1  LIG1       -0.2862
     15 C           0.0750   -1.1380    0.0000 C.2     1  LIG1        0.3462
     16 O           0.9250   -1.6460    0.0000 O.3     1  LIG1       -0.4396
     17 C           1.8000   -1.1380    0.0000 C.3     1  LIG1        0.2463
     18 C           1.8000   -0.1500    0.0000 C.2     1  LIG1        0.2863
     19 N           2.6540    0.3670    0.0000 N.am    1  LIG1       -0.1694
     20 C           2.6540    1.3460    0.0000 C.ar    1  LIG1        0.1067
     21 C           3.4580    1.8460    0.0000 C.ar    1  LIG1        0.0743
     22 C           3.1630    2.8960    0.0000 C.ar    1  LIG1       -0.0139
     23 C           2.1830    2.9380    0.0000 C.ar    1  LIG1        0.0047
     24 S           1.8500    1.9290    0.0000 S.2     1  LIG1       -0.0750
     25 C           1.7040    3.7920    0.0000 C.3     1  LIG1        0.0327
     26 C           2.1830    4.6420    0.0000 C.3     1  LIG1        0.0055
     27 C           3.1920    4.6170    0.0000 C.3     1  LIG1        0.0050
     28 C           3.7000    3.7420    0.0000 C.3     1  LIG1        0.0268
     29 C           4.3500    1.3960    0.0000 C.2     1  LIG1        0.2856
     30 O           5.1540    1.9630    0.0000 O.2     1  LIG1       -0.2666
     31 N           4.4170    0.3920    0.0000 N.am    1  LIG1       -0.0837
     32 O           0.9330    0.3170    0.0000 O.2     1  LIG1       -0.2691
     33 C           2.6710   -1.6210    0.0000 C.3     1  LIG1        0.0534
     34 C           2.6750   -2.6130    0.0000 C.3     1  LIG1        0.0044
     35 O           0.0750   -0.1500    0.0000 O.2     1  LIG1       -0.2447
@<TRIPOS>BOND
     1     1     2   ar
     2     1     6   ar
     3     1    15    1
     4     2     3   ar
     5     2    14    2
     6     3     4   ar
     7     3    12   ar
     8     4     5   ar
     9     4     9   ar
    10     5     6   ar
    11     5     7    1
    12     7     8    1
    13     9    10   ar
    14    10    11   ar
    15    10    13    1
    16    11    12   ar
    17    15    16    1
    18    15    35    2
    19    16    17    1
    20    17    18    1
    21    17    33    1
    22    18    19   am
    23    18    32    2
    24    19    20    1
    25    20    21   ar
    26    20    24   ar
    27    21    22   ar
    28    21    29    1
    29    22    23   ar
    30    22    28    1
    31    23    24   ar
    32    23    25    1
    33    25    26    1
    34    26    27    1
    35    27    28    1
    36    29    30    2
    37    29    31   am
    38    33    34    1
