@<TRIPOS>MOLECULE
31688_ChemDiv_5481-0078
 22 24 0 0 0
SMALL
GASTEIGER
Energy = 0

@<TRIPOS>ATOM
      1 N          -1.7420    1.4960    0.0000 N.ar    1  LIG1       -0.1601
      2 N          -1.7420    0.4960    0.0000 N.ar    1  LIG1       -0.1200
      3 C          -2.6080   -0.0040    0.0000 C.ar    1  LIG1        0.2956
      4 C          -3.4710    0.4960    0.0000 C.ar    1  LIG1        0.0689
      5 C          -3.4710    1.4960    0.0000 C.ar    1  LIG1        0.0674
      6 C          -2.6080    1.9960    0.0000 C.ar    1  LIG1        0.2812
      7 O          -2.6080    2.9960    0.0000 O.2     1  LIG1       -0.2653
      8 O          -2.6080   -1.0080    0.0000 O.3     1  LIG1       -0.2637
      9 C          -0.8710    1.9960    0.0000 C.3     1  LIG1        0.2781
     10 N          -0.0040    1.4960    0.0000 N.4     1  LIG1        0.3967
     11 C          -0.0040    0.5040    0.0000 C.3     1  LIG1        0.1414
     12 C           0.8500    0.0040    0.0000 C.3     1  LIG1        0.0633
     13 C           1.7210    0.5040    0.0000 C.3     1  LIG1        0.0162
     14 C           2.5880    0.0040    0.0000 C.3     1  LIG1        0.0268
     15 C           2.5880   -0.9960    0.0000 C.ar    1  LIG1       -0.0222
     16 C           1.7290   -1.4920    0.0000 C.ar    1  LIG1       -0.0043
     17 C           1.7290   -2.4920    0.0000 C.ar    1  LIG1       -0.0003
     18 C           2.6000   -2.9920    0.0000 C.ar    1  LIG1       -0.0000
     19 C           3.4670   -2.4920    0.0000 C.ar    1  LIG1       -0.0003
     20 C           3.4670   -1.4920    0.0000 C.ar    1  LIG1       -0.0043
     21 C           1.7210    1.5080    0.0000 C.3     1  LIG1        0.0633
     22 C           0.8500    2.0080    0.0000 C.3     1  LIG1        0.1414
@<TRIPOS>BOND
     1     1     2   ar
     2     1     6   ar
     3     1     9    1
     4     2     3   ar
     5     3     4   ar
     6     3     8    1
     7     4     5   ar
     8     5     6   ar
     9     6     7    2
    10     9    10    1
    11    10    11    1
    12    10    22    1
    13    11    12    1
    14    12    13    1
    15    13    14    1
    16    13    21    1
    17    14    15    1
    18    15    16   ar
    19    15    20   ar
    20    16    17   ar
    21    17    18   ar
    22    18    19   ar
    23    19    20   ar
    24    21    22    1
