@<TRIPOS>MOLECULE
31687_ChemDiv_7286-2750
 25 29 0 0 0
SMALL
GASTEIGER
Energy = 0

@<TRIPOS>ATOM
      1 N           0.0960    0.9830    0.0000 N.ar    1  LIG1       -0.3068
      2 C           0.6880    1.7880    0.0000 C.ar    1  LIG1        0.1517
      3 N           0.0960    2.5920    0.0000 N.ar    1  LIG1       -0.2262
      4 C          -0.8500    2.2880    0.0000 C.ar    1  LIG1        0.0987
      5 C          -0.8500    1.2880    0.0000 C.ar    1  LIG1        0.0791
      6 C          -1.7170    0.7830    0.0000 C.ar    1  LIG1        0.0188
      7 C          -2.5750    1.2880    0.0000 C.ar    1  LIG1        0.0016
      8 C          -2.5750    2.2880    0.0000 C.ar    1  LIG1        0.0016
      9 C          -1.7170    2.7920    0.0000 C.ar    1  LIG1        0.0206
     10 C           1.6880    1.7880    0.0000 C.ar    1  LIG1        0.0841
     11 S           2.2790    0.9830    0.0000 S.2     1  LIG1       -0.0614
     12 C           3.2250    1.2880    0.0000 C.ar    1  LIG1        0.1346
     13 N           3.2250    2.2880    0.0000 N.ar    1  LIG1       -0.2346
     14 C           2.2790    2.5960    0.0000 C.ar    1  LIG1        0.1090
     15 C           0.4130    0.0250    0.0000 C.3     1  LIG1        0.1348
     16 C          -0.2670   -0.7210    0.0000 C.ar    1  LIG1        0.0099
     17 C           0.0500   -1.6630    0.0000 C.ar    1  LIG1        0.0356
     18 C          -0.6330   -2.4040    0.0000 C.ar    1  LIG1        0.0466
     19 C          -1.6080   -2.1920    0.0000 C.ar    1  LIG1        0.1769
     20 C          -1.9250   -1.2460    0.0000 C.ar    1  LIG1        0.1762
     21 C          -1.2460   -0.5000    0.0000 C.ar    1  LIG1        0.0383
     22 O          -2.9170   -1.2460    0.0000 O.3     1  LIG1       -0.4346
     23 C          -3.2290   -2.1920    0.0000 C.3     1  LIG1        0.4294
     24 O          -2.4170   -2.7880    0.0000 O.3     1  LIG1       -0.4346
     25 BR          1.0250   -1.8750    0.0000 Br      1  LIG1       -0.0492
@<TRIPOS>BOND
     1     1     2   ar
     2     1     5   ar
     3     1    15    1
     4     2     3   ar
     5     2    10    1
     6     3     4   ar
     7     4     5   ar
     8     4     9   ar
     9     5     6   ar
    10     6     7   ar
    11     7     8   ar
    12     8     9   ar
    13    10    11   ar
    14    10    14   ar
    15    11    12   ar
    16    12    13   ar
    17    13    14   ar
    18    15    16    1
    19    16    17   ar
    20    16    21   ar
    21    17    18   ar
    22    17    25    1
    23    18    19   ar
    24    19    20   ar
    25    19    24    1
    26    20    21   ar
    27    20    22    1
    28    22    23    1
    29    23    24    1
