@<TRIPOS>MOLECULE
31697_ChemDiv_5339-0052
 22 24 0 0 0
SMALL
GASTEIGER
Energy = 0

@<TRIPOS>ATOM
      1 C          -0.0790   -0.1500    0.0000 C.ar    1  LIG1        0.1499
      2 N           0.8880    0.1540    0.0000 N.ar    1  LIG1       -0.2194
      3 C           1.4790   -0.6580    0.0000 C.ar    1  LIG1        0.1798
      4 N           0.8880   -1.4710    0.0000 N.ar    1  LIG1       -0.2944
      5 C          -0.0790   -1.1500    0.0000 C.ar    1  LIG1        0.1673
      6 N          -0.9330   -1.6500    0.0000 N.ar    1  LIG1       -0.2048
      7 C          -1.8080   -1.1500    0.0000 C.ar    1  LIG1        0.2015
      8 N          -1.8080   -0.1500    0.0000 N.ar    1  LIG1       -0.2059
      9 C          -0.9330    0.3500    0.0000 C.ar    1  LIG1        0.1704
     10 N          -0.9330    1.3420    0.0000 N.pl3   1  LIG1       -0.2141
     11 C          -0.0830    1.8540    0.0000 C.3     1  LIG1        0.1402
     12 C          -0.0830    2.8540    0.0000 C.ar    1  LIG1       -0.0006
     13 C           0.8000    3.3540    0.0000 C.ar    1  LIG1       -0.0026
     14 C           0.8000    4.3500    0.0000 C.ar    1  LIG1       -0.0003
     15 C          -0.0790    4.8500    0.0000 C.ar    1  LIG1       -0.0000
     16 C          -0.9330    4.3380    0.0000 C.ar    1  LIG1       -0.0003
     17 C          -0.9290    3.3540    0.0000 C.ar    1  LIG1       -0.0026
     18 C           1.1920   -2.4210    0.0000 C.3     1  LIG1        0.1090
     19 C           0.5250   -3.1670    0.0000 C.3     1  LIG1        0.0246
     20 C           0.8250   -4.1170    0.0000 C.3     1  LIG1        0.0019
     21 C           0.1580   -4.8500    0.0000 C.3     1  LIG1        0.0001
     22 C           1.8040   -4.3210    0.0000 C.3     1  LIG1        0.0001
@<TRIPOS>BOND
     1     1     2   ar
     2     1     5   ar
     3     1     9   ar
     4     2     3   ar
     5     3     4   ar
     6     4     5   ar
     7     4    18    1
     8     5     6   ar
     9     6     7   ar
    10     7     8   ar
    11     8     9   ar
    12     9    10    1
    13    10    11    1
    14    11    12    1
    15    12    13   ar
    16    12    17   ar
    17    13    14   ar
    18    14    15   ar
    19    15    16   ar
    20    16    17   ar
    21    18    19    1
    22    19    20    1
    23    20    21    1
    24    20    22    1
