@<TRIPOS>MOLECULE
31691_ChemDiv_8009-2856
 23 25 0 0 0
SMALL
GASTEIGER
Energy = 0

@<TRIPOS>ATOM
      1 C          -0.5210    0.6830    0.0000 C.ar    1  LIG1        0.1679
      2 C           0.4790    0.6830    0.0000 C.ar    1  LIG1        0.1941
      3 C           1.0630    1.4830    0.0000 C.ar    1  LIG1        0.2341
      4 N           2.0250    1.1790    0.0000 N.ar    1  LIG1       -0.0297
      5 O           2.0250    0.1830    0.0000 O.2     1  LIG1       -0.2401
      6 N           1.0630   -0.1210    0.0000 N.ar    1  LIG1       -0.0437
      7 N           0.7540    2.4420    0.0000 N.pl3   1  LIG1       -0.1018
      8 N          -1.1040    1.5000    0.0000 N.ar    1  LIG1       -0.2250
      9 C          -2.0580    1.1790    0.0000 C.ar    1  LIG1        0.0987
     10 C          -2.0580    0.1830    0.0000 C.ar    1  LIG1        0.0788
     11 N          -1.1040   -0.1210    0.0000 N.ar    1  LIG1       -0.3120
     12 C          -0.7960   -1.0830    0.0000 C.3     1  LIG1        0.0870
     13 C           0.1880   -1.2790    0.0000 C.3     1  LIG1        0.0226
     14 C           0.4960   -2.2330    0.0000 C.3     1  LIG1        0.0019
     15 C           1.4670   -2.4380    0.0000 C.3     1  LIG1        0.0001
     16 C           2.1290   -1.6880    0.0000 C.3     1  LIG1        0.0000
     17 C           3.1170   -1.9040    0.0000 C.3     1  LIG1        0.0000
     18 C           3.7790   -1.1580    0.0000 C.3     1  LIG1        0.0000
     19 C          -1.4630   -1.8080    0.0000 C.3     1  LIG1        0.0245
     20 C          -2.9250   -0.3210    0.0000 C.ar    1  LIG1        0.0188
     21 C          -3.7830    0.1830    0.0000 C.ar    1  LIG1        0.0016
     22 C          -3.7830    1.1790    0.0000 C.ar    1  LIG1        0.0016
     23 C          -2.9250    1.6880    0.0000 C.ar    1  LIG1        0.0206
@<TRIPOS>BOND
     1     1     2    1
     2     1     8   ar
     3     1    11   ar
     4     2     3   ar
     5     2     6   ar
     6     3     4   ar
     7     3     7    1
     8     4     5   ar
     9     5     6   ar
    10     8     9   ar
    11     9    10   ar
    12     9    23   ar
    13    10    11   ar
    14    10    20   ar
    15    11    12    1
    16    12    13    1
    17    12    19    1
    18    13    14    1
    19    14    15    1
    20    15    16    1
    21    16    17    1
    22    17    18    1
    23    20    21   ar
    24    21    22   ar
    25    22    23   ar
