@<TRIPOS>MOLECULE
31695_ChemDiv_8012-3158
 25 28 0 0 0
SMALL
GASTEIGER
Energy = 0

@<TRIPOS>ATOM
      1 C          -1.9080    0.5380    0.0000 C.ar    1  LIG1        0.2084
      2 N          -0.9080    0.5380    0.0000 N.ar    1  LIG1       -0.2024
      3 N          -0.6000    1.4920    0.0000 N.ar    1  LIG1       -0.0424
      4 N          -1.4130    2.0710    0.0000 N.ar    1  LIG1       -0.0226
      5 N          -2.2210    1.4920    0.0000 N.ar    1  LIG1       -0.1063
      6 C          -0.4080   -0.3290    0.0000 C.3     1  LIG1        0.2174
      7 C           0.6080   -0.3290    0.0000 C.2     1  LIG1        0.2705
      8 N           1.1170   -1.1960    0.0000 N.am    1  LIG1       -0.1775
      9 C           2.1170   -1.1960    0.0000 C.ar    1  LIG1        0.0734
     10 C           2.6210   -0.3290    0.0000 C.ar    1  LIG1        0.0153
     11 C           3.6250   -0.3290    0.0000 C.ar    1  LIG1        0.0013
     12 C           4.1290   -1.1960    0.0000 C.ar    1  LIG1        0.0001
     13 C           3.6250   -2.0670    0.0000 C.ar    1  LIG1        0.0013
     14 C           2.6210   -2.0670    0.0000 C.ar    1  LIG1        0.0166
     15 C           4.1170    0.5250    0.0000 C.ar    1  LIG1        0.0000
     16 C           3.6250    1.3920    0.0000 C.ar    1  LIG1        0.0000
     17 C           2.6250    1.4040    0.0000 C.ar    1  LIG1        0.0000
     18 C           2.1290    0.5380    0.0000 C.ar    1  LIG1        0.0013
     19 O           1.1170    0.5380    0.0000 O.2     1  LIG1       -0.2708
     20 C          -2.4750   -0.2790    0.0000 C.ar    1  LIG1        0.1973
     21 C          -3.4750   -0.3630    0.0000 C.ar    1  LIG1        0.2342
     22 N          -3.7040   -1.3170    0.0000 N.ar    1  LIG1       -0.0297
     23 O          -2.8580   -1.8380    0.0000 O.2     1  LIG1       -0.2401
     24 N          -2.0920   -1.1960    0.0000 N.ar    1  LIG1       -0.0436
     25 N          -4.1330    0.3960    0.0000 N.pl3   1  LIG1       -0.1018
@<TRIPOS>BOND
     1     1     2   ar
     2     1     5   ar
     3     1    20    1
     4     2     3   ar
     5     2     6    1
     6     3     4   ar
     7     4     5   ar
     8     6     7    1
     9     7     8   am
    10     7    19    2
    11     8     9    1
    12     9    10   ar
    13     9    14   ar
    14    10    11   ar
    15    10    18   ar
    16    11    12   ar
    17    11    15   ar
    18    12    13   ar
    19    13    14   ar
    20    15    16   ar
    21    16    17   ar
    22    17    18   ar
    23    20    21   ar
    24    20    24   ar
    25    21    22   ar
    26    21    25    1
    27    22    23   ar
    28    23    24   ar
