@<TRIPOS>MOLECULE
31690_ChemDiv_5493-0044
 32 35 0 0 0
SMALL
GASTEIGER
Energy = 0

@<TRIPOS>ATOM
      1 N           1.6580    0.0130    0.0000 N.am    1  LIG1        0.1610
      2 C           2.1670   -0.8540    0.0000 C.2     1  LIG1        0.4705
      3 C           3.1580   -0.8540    0.0000 C.3     1  LIG1        0.2361
      4 C           3.6420    0.0130    0.0000 C.2     1  LIG1        0.2686
      5 N           3.1330    0.9000    0.0000 N.am    1  LIG1       -0.1065
      6 C           2.1460    0.8750    0.0000 C.2     1  LIG1        0.3991
      7 S           1.6380    1.7420    0.0000 S.3     1  LIG1       -0.0118
      8 C           0.6420    1.7420    0.0000 C.3     1  LIG1        0.1564
      9 C           0.1380    2.5960    0.0000 C.2     1  LIG1        0.2589
     10 N          -0.8540    2.5960    0.0000 N.am    1  LIG1       -0.1535
     11 C          -1.3380    1.7420    0.0000 C.ar    1  LIG1        0.1858
     12 N          -0.9250    0.8130    0.0000 N.ar    1  LIG1       -0.2225
     13 C          -1.7420    0.1540    0.0000 C.ar    1  LIG1        0.0893
     14 C          -2.5670    0.6290    0.0000 C.ar    1  LIG1        0.0500
     15 S          -2.3210    1.6210    0.0000 S.2     1  LIG1       -0.0497
     16 C          -3.4000    0.1380    0.0000 C.ar    1  LIG1        0.0145
     17 C          -3.4540   -0.9000    0.0000 C.ar    1  LIG1        0.0762
     18 C          -4.2880   -1.4250    0.0000 C.2     1  LIG1        0.3413
     19 O          -5.1750   -0.9670    0.0000 O.2     1  LIG1       -0.2449
     20 O          -4.2580   -2.4130    0.0000 O.3     1  LIG1       -0.4413
     21 C          -3.3380   -2.8670    0.0000 C.3     1  LIG1        0.2560
     22 C          -2.6130   -1.3830    0.0000 C.ar    1  LIG1        0.0080
     23 C          -1.6880   -0.8540    0.0000 C.ar    1  LIG1        0.0199
     24 O           0.6420    3.4580    0.0000 O.2     1  LIG1       -0.2720
     25 O           4.6250   -0.0130    0.0000 O.2     1  LIG1       -0.2717
     26 C           3.6670   -1.7170    0.0000 C.ar    1  LIG1        0.0002
     27 C           3.1960   -2.6040    0.0000 C.ar    1  LIG1       -0.0032
     28 C           3.6880   -3.4540    0.0000 C.ar    1  LIG1       -0.0003
     29 C           4.7040   -3.4380    0.0000 C.ar    1  LIG1       -0.0000
     30 C           5.1710   -2.5670    0.0000 C.ar    1  LIG1       -0.0003
     31 C           4.6540   -1.7170    0.0000 C.ar    1  LIG1       -0.0032
     32 O           1.6580   -1.7170    0.0000 O.2     1  LIG1       -0.2109
@<TRIPOS>BOND
     1     1     2   am
     2     1     6    2
     3     2     3    1
     4     2    32    2
     5     3     4    1
     6     3    26    1
     7     4     5   am
     8     4    25    2
     9     5     6    1
    10     6     7    1
    11     7     8    1
    12     8     9    1
    13     9    10   am
    14     9    24    2
    15    10    11    1
    16    11    12   ar
    17    11    15   ar
    18    12    13   ar
    19    13    14   ar
    20    13    23   ar
    21    14    15   ar
    22    14    16   ar
    23    16    17   ar
    24    17    18    1
    25    17    22   ar
    26    18    19    2
    27    18    20    1
    28    20    21    1
    29    22    23   ar
    30    26    27   ar
    31    26    31   ar
    32    27    28   ar
    33    28    29   ar
    34    29    30   ar
    35    30    31   ar
