@<TRIPOS>MOLECULE
31692_ChemDiv_5496-0403
 19 21 0 0 0
SMALL
GASTEIGER
Energy = 0

@<TRIPOS>ATOM
      1 N           2.4040   -0.2080    0.0000 N.am    1  LIG1       -0.1876
      2 C           2.1000   -1.1580    0.0000 C.2     1  LIG1        0.3806
      3 S           1.0920   -1.1580    0.0000 S.3     1  LIG1       -0.0142
      4 C           0.7880   -0.2080    0.0000 C.3     1  LIG1        0.1449
      5 C           1.5920    0.3830    0.0000 C.2     1  LIG1        0.2449
      6 O           1.5920    1.3830    0.0000 O.2     1  LIG1       -0.2734
      7 C          -0.1540    0.1080    0.0000 C.3     1  LIG1        0.1077
      8 C          -0.3790    1.0790    0.0000 C.2     1  LIG1        0.2469
      9 N          -1.3170    1.3880    0.0000 N.am    1  LIG1       -0.1792
     10 C          -2.0330    0.6880    0.0000 C.ar    1  LIG1        0.0734
     11 C          -1.7750   -0.2670    0.0000 C.ar    1  LIG1        0.0166
     12 C          -2.5000   -0.9790    0.0000 C.ar    1  LIG1        0.0013
     13 C          -3.4670   -0.7170    0.0000 C.ar    1  LIG1        0.0001
     14 C          -3.7170    0.2500    0.0000 C.ar    1  LIG1        0.0013
     15 C          -3.0040    0.9580    0.0000 C.ar    1  LIG1        0.0166
     16 O           0.3630    1.7500    0.0000 O.2     1  LIG1       -0.2729
     17 N           2.8920   -1.7460    0.0000 N.2     1  LIG1        0.0788
     18 C           3.7130   -1.1580    0.0000 C.3     1  LIG1        0.4174
     19 C           3.4080   -0.2080    0.0000 C.3     1  LIG1        0.1967
@<TRIPOS>BOND
     1     1     2    1
     2     1     5   am
     3     1    19    1
     4     2     3    1
     5     2    17    2
     6     3     4    1
     7     4     5    1
     8     4     7    1
     9     5     6    2
    10     7     8    1
    11     8     9   am
    12     8    16    2
    13     9    10    1
    14    10    11   ar
    15    10    15   ar
    16    11    12   ar
    17    12    13   ar
    18    13    14   ar
    19    14    15   ar
    20    17    18    1
    21    18    19    1
