@<TRIPOS>MOLECULE
31709_ChemDiv_5340-1230
 17 17 0 0 0
SMALL
GASTEIGER
Energy = 0

@<TRIPOS>ATOM
      1 C          -0.4330   -0.2460    0.0000 C.ar    1  LIG1        0.2239
      2 O           0.4380   -0.7500    0.0000 O.2     1  LIG1       -0.4402
      3 C           1.3210   -0.2460    0.0000 C.ar    1  LIG1        0.2239
      4 C           1.3210    0.7710    0.0000 C.ar    1  LIG1        0.0863
      5 C           0.4380    1.2790    0.0000 C.ar    1  LIG1        0.2023
      6 C          -0.4330    0.7710    0.0000 C.ar    1  LIG1        0.0863
      7 O           0.4380    2.2880    0.0000 O.2     1  LIG1       -0.2863
      8 C           2.1750   -0.7500    0.0000 C.2     1  LIG1        0.3764
      9 O           3.0920   -0.2580    0.0000 O.2     1  LIG1       -0.2414
     10 O           2.1170   -1.7250    0.0000 O.3     1  LIG1       -0.4433
     11 C           2.9290   -2.2830    0.0000 C.3     1  LIG1        0.2090
     12 C           3.8130   -1.8500    0.0000 C.3     1  LIG1        0.0513
     13 C          -1.3000   -0.7500    0.0000 C.2     1  LIG1        0.3764
     14 O          -1.3000   -1.7290    0.0000 O.2     1  LIG1       -0.2414
     15 O          -2.1170   -0.2040    0.0000 O.3     1  LIG1       -0.4433
     16 C          -3.0040   -0.6420    0.0000 C.3     1  LIG1        0.2090
     17 C          -3.8170   -0.0960    0.0000 C.3     1  LIG1        0.0513
@<TRIPOS>BOND
     1     1     2   ar
     2     1     6   ar
     3     1    13    1
     4     2     3   ar
     5     3     4   ar
     6     3     8    1
     7     4     5   ar
     8     5     6   ar
     9     5     7    2
    10     8     9    2
    11     8    10    1
    12    10    11    1
    13    11    12    1
    14    13    14    2
    15    13    15    1
    16    15    16    1
    17    16    17    1
