@<TRIPOS>MOLECULE
31705_ChemDiv_5339-0332
 14 14 0 0 0
SMALL
GASTEIGER
Energy = 0

@<TRIPOS>ATOM
      1 N          -0.8670    1.2540    0.0000 N.ar    1  LIG1       -0.1859
      2 C          -0.8670    0.2580    0.0000 C.ar    1  LIG1        0.3506
      3 N           0.0170   -0.2380    0.0000 N.ar    1  LIG1       -0.2781
      4 C           0.8920    0.2580    0.0000 C.ar    1  LIG1        0.0818
      5 C           0.8920    1.2540    0.0000 C.ar    1  LIG1        0.0444
      6 C           0.0170    1.7500    0.0000 C.ar    1  LIG1        0.1129
      7 S           0.0000    2.7330    0.0000 S.3     1  LIG1       -0.0938
      8 C           0.8500    3.2420    0.0000 C.3     1  LIG1        0.0757
      9 C           0.0000   -1.2460    0.0000 C.3     1  LIG1        0.1165
     10 C           0.8670   -1.7420    0.0000 C.3     1  LIG1        0.0663
     11 C           0.8670   -2.7420    0.0000 C.2     1  LIG1        0.0523
     12 O           0.0000   -3.2330    0.0000 O.co2   1  LIG1       -0.5491
     13 O           1.7290   -3.2380    0.0000 O.co2   1  LIG1       -0.5491
     14 O          -1.7330   -0.2380    0.0000 O.2     1  LIG1       -0.2444
@<TRIPOS>BOND
     1     1     2   ar
     2     1     6   ar
     3     2     3   ar
     4     2    14    2
     5     3     4   ar
     6     3     9    1
     7     4     5   ar
     8     5     6   ar
     9     6     7    1
    10     7     8    1
    11     9    10    1
    12    10    11    1
    13    11    12   ar
    14    11    13   ar
