@<TRIPOS>MOLECULE
31701_ChemDiv_5339-0116
 23 25 0 0 0
SMALL
GASTEIGER
Energy = 0

@<TRIPOS>ATOM
      1 C           0.3420    1.3540    0.0000 C.ar    1  LIG1        0.1485
      2 C           0.3460    0.3500    0.0000 C.ar    1  LIG1        0.1676
      3 N           1.3080    0.0460    0.0000 N.ar    1  LIG1       -0.2901
      4 C           1.8880    0.8580    0.0000 C.ar    1  LIG1        0.1800
      5 N           1.2960    1.6630    0.0000 N.ar    1  LIG1       -0.2194
      6 C           1.6170   -0.9080    0.0000 C.3     1  LIG1        0.1374
      7 C           0.9500   -1.6580    0.0000 C.ar    1  LIG1        0.0216
      8 C          -0.0210   -1.4540    0.0000 C.ar    1  LIG1        0.0563
      9 CL          0.4630   -0.5750    0.0000 Cl      1  LIG1       -0.0825
     10 C          -0.6830   -2.1880    0.0000 C.ar    1  LIG1        0.0112
     11 C          -0.3750   -3.1420    0.0000 C.ar    1  LIG1        0.0017
     12 C           0.6210   -3.3500    0.0000 C.ar    1  LIG1        0.0112
     13 C           1.2670   -2.6000    0.0000 C.ar    1  LIG1        0.0563
     14 CL          2.2500   -2.8040    0.0000 Cl      1  LIG1       -0.0825
     15 N          -0.5170   -0.1500    0.0000 N.ar    1  LIG1       -0.2048
     16 C          -1.3880    0.3500    0.0000 C.ar    1  LIG1        0.2015
     17 N          -1.3880    1.3540    0.0000 N.ar    1  LIG1       -0.2073
     18 C          -0.5170    1.8580    0.0000 C.ar    1  LIG1        0.1543
     19 N          -0.5170    2.8670    0.0000 N.pl3   1  LIG1       -0.2919
     20 C          -1.3880    3.3540    0.0000 C.3     1  LIG1        0.0923
     21 C          -2.2540    2.8670    0.0000 C.3     1  LIG1        0.0232
     22 C           0.3420    3.3540    0.0000 C.3     1  LIG1        0.0923
     23 C           1.2080    2.8670    0.0000 C.3     1  LIG1        0.0232
@<TRIPOS>BOND
     1     1     2   ar
     2     1     5   ar
     3     1    18   ar
     4     2     3   ar
     5     2    15   ar
     6     3     4   ar
     7     3     6    1
     8     4     5   ar
     9     6     7    1
    10     7     8   ar
    11     7    13   ar
    12     8     9    1
    13     8    10   ar
    14    10    11   ar
    15    11    12   ar
    16    12    13   ar
    17    13    14    1
    18    15    16   ar
    19    16    17   ar
    20    17    18   ar
    21    18    19    1
    22    19    20    1
    23    19    22    1
    24    20    21    1
    25    22    23    1
