@<TRIPOS>MOLECULE
31717_ChemDiv_8012-8813
 24 27 0 0 0
SMALL
GASTEIGER
Energy = 0

@<TRIPOS>ATOM
      1 C           0.5380    1.8580    0.0000 C.ar    1  LIG1        0.1682
      2 N          -0.0500    1.0500    0.0000 N.ar    1  LIG1       -0.3058
      3 C          -1.0080    1.3500    0.0000 C.ar    1  LIG1        0.0791
      4 C          -1.0080    2.3580    0.0000 C.ar    1  LIG1        0.0987
      5 N          -0.0500    2.6710    0.0000 N.ar    1  LIG1       -0.2250
      6 C          -1.8790    2.8630    0.0000 C.ar    1  LIG1        0.0206
      7 C          -2.7380    2.3580    0.0000 C.ar    1  LIG1        0.0016
      8 C          -2.7380    1.3500    0.0000 C.ar    1  LIG1        0.0016
      9 C          -1.8790    0.8580    0.0000 C.ar    1  LIG1        0.0188
     10 C           0.2630    0.0960    0.0000 C.3     1  LIG1        0.1342
     11 C          -0.4040   -0.6420    0.0000 C.ar    1  LIG1        0.0005
     12 C          -1.3790   -0.4250    0.0000 C.ar    1  LIG1       -0.0017
     13 C          -2.0460   -1.1710    0.0000 C.ar    1  LIG1        0.0100
     14 C          -1.7330   -2.1130    0.0000 C.ar    1  LIG1        0.0684
     15 C          -2.4080   -2.8630    0.0000 C.1     1  LIG1        0.1004
     16 N          -3.0750   -3.6080    0.0000 N.1     1  LIG1       -0.1908
     17 C          -0.7540   -2.3210    0.0000 C.ar    1  LIG1        0.0100
     18 C          -0.0880   -1.5880    0.0000 C.ar    1  LIG1       -0.0017
     19 C           1.5420    1.8580    0.0000 C.ar    1  LIG1        0.1941
     20 C           2.1250    2.6710    0.0000 C.ar    1  LIG1        0.2341
     21 N           3.0710    2.3580    0.0000 N.ar    1  LIG1       -0.0297
     22 O           3.0710    1.3500    0.0000 O.2     1  LIG1       -0.2401
     23 N           2.1250    1.0500    0.0000 N.ar    1  LIG1       -0.0437
     24 N           1.8210    3.6130    0.0000 N.pl3   1  LIG1       -0.1018
@<TRIPOS>BOND
     1     1     2   ar
     2     1     5   ar
     3     1    19    1
     4     2     3   ar
     5     2    10    1
     6     3     4   ar
     7     3     9   ar
     8     4     5   ar
     9     4     6   ar
    10     6     7   ar
    11     7     8   ar
    12     8     9   ar
    13    10    11    1
    14    11    12   ar
    15    11    18   ar
    16    12    13   ar
    17    13    14   ar
    18    14    15    1
    19    14    17   ar
    20    15    16    3
    21    17    18   ar
    22    19    20   ar
    23    19    23   ar
    24    20    21   ar
    25    20    24    1
    26    21    22   ar
    27    22    23   ar
