@<TRIPOS>MOLECULE
31716_ChemDiv_8013-0459
 38 42 0 0 0
SMALL
GASTEIGER
Energy = 0

@<TRIPOS>ATOM
      1 S          -3.8830    1.5170    0.0000 S.O2    1  LIG1        0.0631
      2 C          -3.8830    0.5210    0.0000 C.ar    1  LIG1        0.1183
      3 C          -3.0250    0.0170    0.0000 C.ar    1  LIG1        0.0211
      4 C          -3.0250   -1.0040    0.0000 C.ar    1  LIG1        0.0207
      5 C          -2.1670   -1.4960    0.0000 C.ar    1  LIG1        0.1011
      6 N          -1.2960   -1.0040    0.0000 N.ar    1  LIG1       -0.1664
      7 N          -0.4380   -1.4960    0.0000 N.ar    1  LIG1       -0.2071
      8 C          -0.4380   -2.5080    0.0000 C.ar    1  LIG1        0.2768
      9 C          -1.2960   -3.0000    0.0000 C.ar    1  LIG1        0.0591
     10 C          -2.1670   -2.5080    0.0000 C.ar    1  LIG1        0.0240
     11 C          -3.0250   -3.0000    0.0000 C.ar    1  LIG1        0.0017
     12 C          -3.0250   -3.9960    0.0000 C.ar    1  LIG1        0.0001
     13 C          -2.1670   -4.5040    0.0000 C.ar    1  LIG1        0.0002
     14 C          -1.2960   -3.9960    0.0000 C.ar    1  LIG1        0.0048
     15 O           0.4580   -3.0000    0.0000 O.2     1  LIG1       -0.2655
     16 C           0.4580   -0.9750    0.0000 C.3     1  LIG1        0.2168
     17 C           1.3170   -1.4750    0.0000 C.2     1  LIG1        0.2667
     18 N           2.1750   -0.9750    0.0000 N.am    1  LIG1       -0.1972
     19 C           3.0460   -1.4750    0.0000 C.3     1  LIG1        0.1605
     20 C           3.9000   -0.9750    0.0000 C.ar    1  LIG1        0.0809
     21 N           4.7750   -1.4750    0.0000 N.ar    1  LIG1       -0.2464
     22 C           5.6380   -0.9750    0.0000 C.ar    1  LIG1        0.0985
     23 C           5.6380    0.0170    0.0000 C.ar    1  LIG1        0.0207
     24 C           4.7750    0.5210    0.0000 C.ar    1  LIG1        0.0029
     25 C           3.9000    0.0170    0.0000 C.ar    1  LIG1        0.0165
     26 O           1.3170   -2.4830    0.0000 O.2     1  LIG1       -0.2711
     27 C          -3.8830   -1.4960    0.0000 C.ar    1  LIG1        0.0013
     28 C          -4.7540   -1.0040    0.0000 C.ar    1  LIG1       -0.0029
     29 C          -4.7540    0.0170    0.0000 C.ar    1  LIG1       -0.0032
     30 C          -5.6420    0.5210    0.0000 C.3     1  LIG1        0.0324
     31 N          -3.8830    2.5170    0.0000 N.3     1  LIG1       -0.1504
     32 C          -4.7420    3.0080    0.0000 C.3     1  LIG1        0.1279
     33 C          -4.7420    4.0000    0.0000 C.3     1  LIG1        0.1613
     34 O          -3.8830    4.5040    0.0000 O.3     1  LIG1       -0.3507
     35 C          -3.0380    4.0000    0.0000 C.3     1  LIG1        0.1613
     36 C          -3.0380    3.0290    0.0000 C.3     1  LIG1        0.1279
     37 O          -2.8830    1.5170    0.0000 O.2     1  LIG1       -0.1528
     38 O          -4.8920    1.5170    0.0000 O.2     1  LIG1       -0.1528
@<TRIPOS>BOND
     1     1     2    1
     2     1    31    1
     3     1    37    2
     4     1    38    2
     5     2     3   ar
     6     2    29   ar
     7     3     4   ar
     8     4     5    1
     9     4    27   ar
    10     5     6   ar
    11     5    10   ar
    12     6     7   ar
    13     7     8   ar
    14     7    16    1
    15     8     9   ar
    16     8    15    2
    17     9    10   ar
    18     9    14   ar
    19    10    11   ar
    20    11    12   ar
    21    12    13   ar
    22    13    14   ar
    23    16    17    1
    24    17    18   am
    25    17    26    2
    26    18    19    1
    27    19    20    1
    28    20    21   ar
    29    20    25   ar
    30    21    22   ar
    31    22    23   ar
    32    23    24   ar
    33    24    25   ar
    34    27    28   ar
    35    28    29   ar
    36    29    30    1
    37    31    32    1
    38    31    36    1
    39    32    33    1
    40    33    34    1
    41    34    35    1
    42    35    36    1
