@<TRIPOS>MOLECULE
31719_ChemDiv_8013-2198
 25 28 0 0 0
SMALL
GASTEIGER
Energy = 0

@<TRIPOS>ATOM
      1 C           0.0000    1.4080    0.0000 C.ar    1  LIG1        0.1679
      2 C           0.9880    1.4080    0.0000 C.ar    1  LIG1        0.1941
      3 C           1.5830    2.2080    0.0000 C.ar    1  LIG1        0.2341
      4 N           2.5420    1.9040    0.0000 N.ar    1  LIG1       -0.0297
      5 O           2.5420    0.9170    0.0000 O.2     1  LIG1       -0.2401
      6 N           1.5830    0.5960    0.0000 N.ar    1  LIG1       -0.0437
      7 N           1.2710    3.1670    0.0000 N.pl3   1  LIG1       -0.1018
      8 N          -0.6000    2.2080    0.0000 N.ar    1  LIG1       -0.2250
      9 C          -1.5580    1.9040    0.0000 C.ar    1  LIG1        0.0987
     10 C          -1.5580    0.9170    0.0000 C.ar    1  LIG1        0.0789
     11 N          -0.6000    0.5960    0.0000 N.ar    1  LIG1       -0.3101
     12 C          -0.2830   -0.3630    0.0000 C.3     1  LIG1        0.1076
     13 C          -0.9500   -1.1040    0.0000 C.3     1  LIG1        0.0249
     14 C          -0.9630   -2.0960    0.0000 C.3     1  LIG1        0.0089
     15 C          -0.2500   -2.8000    0.0000 C.3     1  LIG1        0.0546
     16 C           0.7080   -2.5460    0.0000 C.ar    1  LIG1        0.1124
     17 S           1.5000   -3.1630    0.0000 S.2     1  LIG1       -0.0317
     18 C           2.3250   -2.6170    0.0000 C.ar    1  LIG1        0.2219
     19 N           2.0710   -1.6500    0.0000 N.ar    1  LIG1       -0.1225
     20 N           1.0630   -1.5960    0.0000 N.ar    1  LIG1       -0.1439
     21 N           3.2750   -2.9710    0.0000 N.pl3   1  LIG1       -0.0979
     22 C          -2.4130    0.4170    0.0000 C.ar    1  LIG1        0.0188
     23 C          -3.2790    0.9170    0.0000 C.ar    1  LIG1        0.0016
     24 C          -3.2790    1.9040    0.0000 C.ar    1  LIG1        0.0016
     25 C          -2.4130    2.4000    0.0000 C.ar    1  LIG1        0.0206
@<TRIPOS>BOND
     1     1     2    1
     2     1     8   ar
     3     1    11   ar
     4     2     3   ar
     5     2     6   ar
     6     3     4   ar
     7     3     7    1
     8     4     5   ar
     9     5     6   ar
    10     8     9   ar
    11     9    10   ar
    12     9    25   ar
    13    10    11   ar
    14    10    22   ar
    15    11    12    1
    16    12    13    1
    17    13    14    1
    18    14    15    1
    19    15    16    1
    20    16    17   ar
    21    16    20   ar
    22    17    18   ar
    23    18    19   ar
    24    18    21    1
    25    19    20   ar
    26    22    23   ar
    27    23    24   ar
    28    24    25   ar
