@<TRIPOS>MOLECULE
31718_ChemDiv_5498-2770
 34 38 0 0 0
SMALL
GASTEIGER
Energy = 0

@<TRIPOS>ATOM
      1 S           1.2750    1.0880    0.0000 S.O2    1  LIG1       -0.0577
      2 N           0.3830    1.5420    0.0000 N.pl3   1  LIG1       -0.5349
      3 C          -0.5130    1.0080    0.0000 C.ar    1  LIG1       -0.0986
      4 C          -1.3750    1.5080    0.0000 C.ar    1  LIG1        0.0255
      5 N          -1.3750    2.5000    0.0000 N.pl3   1  LIG1       -0.3042
      6 C          -2.2330    2.9960    0.0000 C.3     1  LIG1        0.1230
      7 C          -2.2330    3.9920    0.0000 C.3     1  LIG1        0.1636
      8 O          -1.3750    4.4830    0.0000 O.3     1  LIG1       -0.3501
      9 C          -0.5130    3.9920    0.0000 C.3     1  LIG1        0.1636
     10 C          -0.5130    2.9960    0.0000 C.3     1  LIG1        0.1230
     11 C          -2.2330    1.0080    0.0000 C.ar    1  LIG1        0.0127
     12 C          -2.2330    0.0170    0.0000 C.ar    1  LIG1        0.0027
     13 C          -1.3750   -0.4790    0.0000 C.ar    1  LIG1        0.0176
     14 C          -1.3750   -1.4750    0.0000 C.ar    1  LIG1        0.1010
     15 N          -0.5130   -1.9710    0.0000 N.ar    1  LIG1       -0.1668
     16 N          -0.5130   -2.9920    0.0000 N.ar    1  LIG1       -0.2146
     17 C          -1.3750   -3.4920    0.0000 C.ar    1  LIG1        0.2764
     18 C          -2.2330   -2.9920    0.0000 C.ar    1  LIG1        0.0591
     19 C          -2.2330   -1.9710    0.0000 C.ar    1  LIG1        0.0240
     20 C          -3.0960   -1.4750    0.0000 C.ar    1  LIG1        0.0017
     21 C          -3.9630   -1.9710    0.0000 C.ar    1  LIG1        0.0001
     22 C          -3.9630   -2.9920    0.0000 C.ar    1  LIG1        0.0002
     23 C          -3.0960   -3.4920    0.0000 C.ar    1  LIG1        0.0048
     24 O          -1.3750   -4.4830    0.0000 O.2     1  LIG1       -0.2655
     25 C           0.3830   -3.4920    0.0000 C.3     1  LIG1        0.1571
     26 C          -0.5130    0.0170    0.0000 C.ar    1  LIG1       -0.0211
     27 O           0.8130    0.1830    0.0000 O.2     1  LIG1       -0.1842
     28 O           1.7460    1.9750    0.0000 O.2     1  LIG1       -0.1842
     29 C           2.1670    0.6170    0.0000 C.ar    1  LIG1        0.0893
     30 C           2.2210   -0.3790    0.0000 C.ar    1  LIG1        0.0169
     31 C           3.1330   -0.8210    0.0000 C.ar    1  LIG1        0.0013
     32 C           3.9580   -0.2790    0.0000 C.ar    1  LIG1        0.0001
     33 C           3.9000    0.7000    0.0000 C.ar    1  LIG1        0.0013
     34 C           2.9920    1.1500    0.0000 C.ar    1  LIG1        0.0169
@<TRIPOS>BOND
     1     1     2    1
     2     1    27    2
     3     1    28    2
     4     1    29    1
     5     2     3    1
     6     3     4   ar
     7     3    26   ar
     8     4     5    1
     9     4    11   ar
    10     5     6    1
    11     5    10    1
    12     6     7    1
    13     7     8    1
    14     8     9    1
    15     9    10    1
    16    11    12   ar
    17    12    13   ar
    18    13    14    1
    19    13    26   ar
    20    14    15   ar
    21    14    19   ar
    22    15    16   ar
    23    16    17   ar
    24    16    25    1
    25    17    18   ar
    26    17    24    2
    27    18    19   ar
    28    18    23   ar
    29    19    20   ar
    30    20    21   ar
    31    21    22   ar
    32    22    23   ar
    33    29    30   ar
    34    29    34   ar
    35    30    31   ar
    36    31    32   ar
    37    32    33   ar
    38    33    34   ar
