@<TRIPOS>MOLECULE
31725_ChemDiv_D268-0373
 26 30 0 0 0
SMALL
GASTEIGER
Energy = 0

@<TRIPOS>ATOM
      1 C           0.6830    1.4000    0.0000 C.ar    1  LIG1        0.1682
      2 N           0.0960    0.5960    0.0000 N.ar    1  LIG1       -0.3058
      3 C           0.4000   -0.3630    0.0000 C.3     1  LIG1        0.1348
      4 C          -0.2670   -1.1040    0.0000 C.ar    1  LIG1        0.0099
      5 C           0.0460   -2.0420    0.0000 C.ar    1  LIG1        0.0356
      6 C          -0.6380   -2.7920    0.0000 C.ar    1  LIG1        0.0466
      7 C          -1.6250   -2.5790    0.0000 C.ar    1  LIG1        0.1769
      8 C          -1.9250   -1.6290    0.0000 C.ar    1  LIG1        0.1762
      9 C          -1.2540   -0.8880    0.0000 C.ar    1  LIG1        0.0383
     10 O          -2.9250   -1.6290    0.0000 O.3     1  LIG1       -0.4346
     11 C          -3.2290   -2.5790    0.0000 C.3     1  LIG1        0.4294
     12 O          -2.4250   -3.1670    0.0000 O.3     1  LIG1       -0.4346
     13 BR          1.0210   -2.2540    0.0000 Br      1  LIG1       -0.0492
     14 C          -0.8630    0.9000    0.0000 C.ar    1  LIG1        0.0791
     15 C          -0.8630    1.9000    0.0000 C.ar    1  LIG1        0.0987
     16 N           0.0960    2.2080    0.0000 N.ar    1  LIG1       -0.2250
     17 C          -1.7250    2.4000    0.0000 C.ar    1  LIG1        0.0206
     18 C          -2.5790    1.9000    0.0000 C.ar    1  LIG1        0.0016
     19 C          -2.5790    0.9000    0.0000 C.ar    1  LIG1        0.0016
     20 C          -1.7250    0.4000    0.0000 C.ar    1  LIG1        0.0188
     21 C           1.6750    1.4000    0.0000 C.ar    1  LIG1        0.1941
     22 C           2.2630    2.2210    0.0000 C.ar    1  LIG1        0.2341
     23 N           3.2250    1.9000    0.0000 N.ar    1  LIG1       -0.0297
     24 O           3.2250    0.9000    0.0000 O.2     1  LIG1       -0.2401
     25 N           2.2630    0.5960    0.0000 N.ar    1  LIG1       -0.0437
     26 N           1.9580    3.1710    0.0000 N.pl3   1  LIG1       -0.1018
@<TRIPOS>BOND
     1     1     2   ar
     2     1    16   ar
     3     1    21    1
     4     2     3    1
     5     2    14   ar
     6     3     4    1
     7     4     5   ar
     8     4     9   ar
     9     5     6   ar
    10     5    13    1
    11     6     7   ar
    12     7     8   ar
    13     7    12    1
    14     8     9   ar
    15     8    10    1
    16    10    11    1
    17    11    12    1
    18    14    15   ar
    19    14    20   ar
    20    15    16   ar
    21    15    17   ar
    22    17    18   ar
    23    18    19   ar
    24    19    20   ar
    25    21    22   ar
    26    21    25   ar
    27    22    23   ar
    28    22    26    1
    29    23    24   ar
    30    24    25   ar
