@<TRIPOS>MOLECULE
31721_ChemDiv_8014-1167
 34 38 0 0 0
SMALL
GASTEIGER
Energy = 0

@<TRIPOS>ATOM
      1 C           3.4460   -0.1040    0.0000 C.ar    1  LIG1        0.1683
      2 N           2.4750   -0.1670    0.0000 N.ar    1  LIG1       -0.3014
      3 C           2.2040   -1.1130    0.0000 C.ar    1  LIG1        0.0793
      4 C           3.0500   -1.6540    0.0000 C.ar    1  LIG1        0.0987
      5 N           3.8040   -1.0330    0.0000 N.ar    1  LIG1       -0.2250
      6 C           3.0420   -2.6630    0.0000 C.ar    1  LIG1        0.0206
      7 C           2.1500   -3.1460    0.0000 C.ar    1  LIG1        0.0016
      8 C           1.2630   -2.6000    0.0000 C.ar    1  LIG1        0.0016
      9 C           1.3040   -1.5960    0.0000 C.ar    1  LIG1        0.0188
     10 C           1.7460    0.5170    0.0000 C.3     1  LIG1        0.1950
     11 C           0.7750    0.1920    0.0000 C.2     1  LIG1        0.2692
     12 N           0.0130    0.8750    0.0000 N.am    1  LIG1       -0.1703
     13 C          -0.9540    0.5380    0.0000 C.ar    1  LIG1        0.1118
     14 C          -1.7380    1.1380    0.0000 C.ar    1  LIG1        0.0860
     15 C          -2.5380    0.5500    0.0000 C.ar    1  LIG1       -0.0088
     16 C          -2.2380   -0.4080    0.0000 C.ar    1  LIG1        0.0052
     17 S          -1.2540   -0.4080    0.0000 S.2     1  LIG1       -0.0744
     18 C          -2.9290   -1.1380    0.0000 C.3     1  LIG1        0.0327
     19 C          -3.8880   -0.9170    0.0000 C.3     1  LIG1        0.0052
     20 C          -4.5580   -1.6540    0.0000 C.3     1  LIG1        0.0003
     21 C          -5.3580   -2.3460    0.0000 C.3     1  LIG1        0.0000
     22 C          -5.1580   -0.9580    0.0000 C.3     1  LIG1        0.0000
     23 C          -3.8750   -2.4420    0.0000 C.3     1  LIG1        0.0000
     24 C          -4.1880    0.0330    0.0000 C.3     1  LIG1        0.0051
     25 C          -3.5290    0.7790    0.0000 C.3     1  LIG1        0.0273
     26 C          -1.6960    2.1460    0.0000 C.1     1  LIG1        0.1019
     27 N          -1.6710    3.1500    0.0000 N.1     1  LIG1       -0.1908
     28 O           0.5790   -0.7750    0.0000 O.2     1  LIG1       -0.2708
     29 C           4.0210    0.7080    0.0000 C.ar    1  LIG1        0.1941
     30 C           3.7460    1.6790    0.0000 C.ar    1  LIG1        0.2341
     31 N           4.5880    2.2210    0.0000 N.ar    1  LIG1       -0.0297
     32 O           5.3540    1.6580    0.0000 O.2     1  LIG1       -0.2401
     33 N           5.0130    0.7000    0.0000 N.ar    1  LIG1       -0.0437
     34 N           2.8210    2.0040    0.0000 N.pl3   1  LIG1       -0.1018
@<TRIPOS>BOND
     1     1     2   ar
     2     1     5   ar
     3     1    29    1
     4     2     3   ar
     5     2    10    1
     6     3     4   ar
     7     3     9   ar
     8     4     5   ar
     9     4     6   ar
    10     6     7   ar
    11     7     8   ar
    12     8     9   ar
    13    10    11    1
    14    11    12   am
    15    11    28    2
    16    12    13    1
    17    13    14   ar
    18    13    17   ar
    19    14    15   ar
    20    14    26    1
    21    15    16   ar
    22    15    25    1
    23    16    17   ar
    24    16    18    1
    25    18    19    1
    26    19    20    1
    27    19    24    1
    28    20    21    1
    29    20    22    1
    30    20    23    1
    31    24    25    1
    32    26    27    3
    33    29    30   ar
    34    29    33   ar
    35    30    31   ar
    36    30    34    1
    37    31    32   ar
    38    32    33   ar
