@<TRIPOS>MOLECULE
31722_ChemDiv_5685-0748
 28 32 0 0 0
SMALL
GASTEIGER
Energy = 0

@<TRIPOS>ATOM
      1 C          -0.3540    0.8830    0.0000 C.ar    1  LIG1        0.0958
      2 N           1.2580    0.3790    0.0000 N.ar    1  LIG1       -0.2639
      3 C           0.9580   -0.5670    0.0000 C.ar    1  LIG1        0.2962
      4 S           0.0080   -0.7670    0.0000 S.2     1  LIG1       -0.0291
      5 C          -0.6540   -0.0380    0.0000 C.ar    1  LIG1        0.0381
      6 C          -1.6040   -0.2540    0.0000 C.3     1  LIG1        0.0675
      7 C          -2.2580    0.4830    0.0000 C.3     1  LIG1        0.1237
      8 C          -3.2210    0.2790    0.0000 C.2     1  LIG1        0.3228
      9 O          -3.5170   -0.6630    0.0000 O.3     1  LIG1       -0.4244
     10 C          -2.8670   -1.3830    0.0000 C.ar    1  LIG1        0.1447
     11 C          -1.9000   -1.1790    0.0000 C.ar    1  LIG1        0.0174
     12 C          -1.2460   -1.9080    0.0000 C.ar    1  LIG1       -0.0009
     13 C          -1.5420   -2.8290    0.0000 C.ar    1  LIG1       -0.0001
     14 C          -2.5080   -3.0460    0.0000 C.ar    1  LIG1        0.0031
     15 C          -3.1630   -2.3080    0.0000 C.ar    1  LIG1        0.0373
     16 O          -3.8750    1.0000    0.0000 O.2     1  LIG1       -0.2496
     17 C          -1.9580    1.3920    0.0000 C.3     1  LIG1        0.1007
     18 S          -1.0000    1.5960    0.0000 S.3     1  LIG1       -0.0907
     19 C          -2.6290    2.1210    0.0000 C.2     1  LIG1        0.0610
     20 O          -2.3170    3.0500    0.0000 O.co2   1  LIG1       -0.5483
     21 O          -3.5790    1.9080    0.0000 O.co2   1  LIG1       -0.5483
     22 O           1.6290   -1.2830    0.0000 O.2     1  LIG1       -0.2591
     23 C           2.1250    0.8250    0.0000 C.ar    1  LIG1        0.0678
     24 C           2.1670    1.7880    0.0000 C.ar    1  LIG1        0.0176
     25 C           3.0380    2.2380    0.0000 C.ar    1  LIG1        0.0015
     26 C           3.8710    1.7040    0.0000 C.ar    1  LIG1        0.0001
     27 C           3.8250    0.7330    0.0000 C.ar    1  LIG1        0.0015
     28 C           2.9540    0.2880    0.0000 C.ar    1  LIG1        0.0176
@<TRIPOS>BOND
     1     1     2   ar
     2     1     5   ar
     3     1    18    1
     4     2     3   ar
     5     2    23    1
     6     3     4   ar
     7     3    22    2
     8     4     5   ar
     9     5     6    1
    10     6     7    1
    11     6    11    1
    12     7     8    1
    13     7    17    1
    14     8     9    1
    15     8    16    2
    16     9    10    1
    17    10    11   ar
    18    10    15   ar
    19    11    12   ar
    20    12    13   ar
    21    13    14   ar
    22    14    15   ar
    23    17    18    1
    24    17    19    1
    25    19    20   ar
    26    19    21   ar
    27    23    24   ar
    28    23    28   ar
    29    24    25   ar
    30    25    26   ar
    31    26    27   ar
    32    27    28   ar
