@<TRIPOS>MOLECULE
31724_ChemDiv_6193-0861
 24 27 0 0 0
SMALL
GASTEIGER
Energy = 0

@<TRIPOS>ATOM
      1 C           0.7750   -1.1630    0.0000 C.ar    1  LIG1        0.1131
      2 C           0.4750   -0.2040    0.0000 C.ar    1  LIG1        0.0397
      3 C          -0.4960    0.0080    0.0000 C.3     1  LIG1        0.0676
      4 C          -1.1750   -0.7290    0.0000 C.3     1  LIG1        0.1237
      5 C          -2.1500   -0.5170    0.0000 C.2     1  LIG1        0.3228
      6 O          -2.4500    0.4380    0.0000 O.3     1  LIG1       -0.4239
      7 C          -1.7710    1.1750    0.0000 C.ar    1  LIG1        0.1509
      8 C          -0.7960    0.9540    0.0000 C.ar    1  LIG1        0.0183
      9 C          -0.1170    1.6920    0.0000 C.ar    1  LIG1        0.0058
     10 C          -0.4170    2.6460    0.0000 C.ar    1  LIG1        0.0350
     11 C          -1.3920    2.8580    0.0000 C.ar    1  LIG1        0.0164
     12 C          -2.0710    2.1290    0.0000 C.ar    1  LIG1        0.0693
     13 BR         -3.0460    2.3420    0.0000 Br      1  LIG1       -0.0458
     14 BR          0.2670    3.3790    0.0000 Br      1  LIG1       -0.0490
     15 O          -2.8290   -1.2500    0.0000 O.2     1  LIG1       -0.2496
     16 C          -0.8710   -1.6880    0.0000 C.3     1  LIG1        0.1008
     17 S           0.1080   -1.9000    0.0000 S.3     1  LIG1       -0.0893
     18 C          -1.5460   -2.4210    0.0000 C.2     1  LIG1        0.0610
     19 O          -1.2380   -3.3750    0.0000 O.co2   1  LIG1       -0.5483
     20 O          -2.5250   -2.2080    0.0000 O.co2   1  LIG1       -0.5483
     21 S           1.2750    0.3880    0.0000 S.2     1  LIG1       -0.0277
     22 C           2.0880   -0.2040    0.0000 C.ar    1  LIG1        0.3108
     23 N           1.7790   -1.1630    0.0000 N.ar    1  LIG1       -0.1956
     24 O           3.0420    0.1040    0.0000 O.2     1  LIG1       -0.2576
@<TRIPOS>BOND
     1     1     2   ar
     2     1    17    1
     3     1    23   ar
     4     2     3    1
     5     2    21   ar
     6     3     4    1
     7     3     8    1
     8     4     5    1
     9     4    16    1
    10     5     6    1
    11     5    15    2
    12     6     7    1
    13     7     8   ar
    14     7    12   ar
    15     8     9   ar
    16     9    10   ar
    17    10    11   ar
    18    10    14    1
    19    11    12   ar
    20    12    13    1
    21    16    17    1
    22    16    18    1
    23    18    19   ar
    24    18    20   ar
    25    21    22   ar
    26    22    23   ar
    27    22    24    2
