@<TRIPOS>MOLECULE
31720_ChemDiv_5499-0731
 20 23 0 0 0
SMALL
GASTEIGER
Energy = 0

@<TRIPOS>ATOM
      1 C           0.1790   -0.9380    0.0000 C.ar    1  LIG1        0.0392
      2 C           0.4790   -1.8960    0.0000 C.ar    1  LIG1        0.1128
      3 N           1.4880   -1.8960    0.0000 N.ar    1  LIG1       -0.1956
      4 C           1.8000   -0.9380    0.0000 C.ar    1  LIG1        0.3108
      5 S           0.9880   -0.3580    0.0000 S.2     1  LIG1       -0.0277
      6 O           2.7460   -0.6330    0.0000 O.2     1  LIG1       -0.2576
      7 S          -0.1880   -2.6380    0.0000 S.3     1  LIG1       -0.0945
      8 C          -1.1580   -2.4210    0.0000 C.3     1  LIG1        0.0679
      9 C          -1.4630   -1.4710    0.0000 C.3     1  LIG1        0.0589
     10 C          -0.7960   -0.7380    0.0000 C.3     1  LIG1        0.0600
     11 C          -1.0960    0.2290    0.0000 C.ar    1  LIG1        0.0167
     12 C          -2.0670    0.4330    0.0000 C.ar    1  LIG1        0.1349
     13 O          -2.7500   -0.2960    0.0000 O.3     1  LIG1       -0.4757
     14 C          -2.4500   -1.2580    0.0000 C.3     1  LIG1        0.2067
     15 C          -2.3880    1.3670    0.0000 C.ar    1  LIG1        0.0371
     16 C          -1.7040    2.1170    0.0000 C.ar    1  LIG1        0.0098
     17 C          -0.7290    1.9000    0.0000 C.ar    1  LIG1        0.0345
     18 C          -0.4290    0.9420    0.0000 C.ar    1  LIG1        0.0058
     19 BR         -0.0460    2.6420    0.0000 Br      1  LIG1       -0.0490
     20 C          -1.9710   -2.3330    0.0000 C.3     1  LIG1        0.0053
@<TRIPOS>BOND
     1     1     2   ar
     2     1     5   ar
     3     1    10    1
     4     2     3   ar
     5     2     7    1
     6     3     4   ar
     7     4     5   ar
     8     4     6    2
     9     7     8    1
    10     8     9    1
    11     9    10    1
    12     9    14    1
    13     9    20    1
    14    10    11    1
    15    11    12   ar
    16    11    18   ar
    17    12    13    1
    18    12    15   ar
    19    13    14    1
    20    15    16   ar
    21    16    17   ar
    22    17    18   ar
    23    17    19    1
