@<TRIPOS>MOLECULE
31726_ChemDiv_6193-0974
 29 33 0 0 0
SMALL
GASTEIGER
Energy = 0

@<TRIPOS>ATOM
      1 C           0.5130   -1.0080    0.0000 C.ar    1  LIG1        0.0960
      2 N           1.5130   -1.0080    0.0000 N.ar    1  LIG1       -0.2639
      3 C           1.8210   -0.0540    0.0000 C.ar    1  LIG1        0.2962
      4 S           1.0130    0.5380    0.0000 S.2     1  LIG1       -0.0290
      5 C           0.2080   -0.0540    0.0000 C.ar    1  LIG1        0.0410
      6 C          -0.7580    0.1580    0.0000 C.3     1  LIG1        0.0943
      7 C          -1.4380   -0.5790    0.0000 C.3     1  LIG1        0.1930
      8 C          -1.1330   -1.5330    0.0000 C.3     1  LIG1        0.1301
      9 S          -0.1540   -1.7460    0.0000 S.3     1  LIG1       -0.0876
     10 C          -1.8040   -2.2670    0.0000 C.2     1  LIG1        0.0640
     11 O          -1.4960   -3.2210    0.0000 O.co2   1  LIG1       -0.5482
     12 O          -2.7880   -2.0540    0.0000 O.co2   1  LIG1       -0.5482
     13 O          -2.4130   -0.3670    0.0000 O.3     1  LIG1       -0.4472
     14 C          -2.7130    0.5880    0.0000 C.2     1  LIG1        0.3409
     15 C          -2.0330    1.3250    0.0000 C.ar    1  LIG1        0.0722
     16 C          -1.0580    1.1130    0.0000 C.ar    1  LIG1       -0.0076
     17 C          -0.3920    1.8460    0.0000 C.ar    1  LIG1        0.0031
     18 C          -0.6960    2.7960    0.0000 C.ar    1  LIG1        0.0343
     19 C          -1.6710    3.0130    0.0000 C.ar    1  LIG1        0.0069
     20 C          -2.3460    2.2670    0.0000 C.ar    1  LIG1        0.0066
     21 BR         -0.0170    3.5380    0.0000 Br      1  LIG1       -0.0490
     22 O          -3.6880    0.8130    0.0000 O.2     1  LIG1       -0.2449
     23 O           2.7750    0.2540    0.0000 O.2     1  LIG1       -0.2591
     24 C           2.0960   -1.8130    0.0000 C.ar    1  LIG1        0.0678
     25 C           1.6880   -2.7210    0.0000 C.ar    1  LIG1        0.0176
     26 C           2.2750   -3.5330    0.0000 C.ar    1  LIG1        0.0015
     27 C           3.2710   -3.4330    0.0000 C.ar    1  LIG1        0.0001
     28 C           3.6830   -2.5080    0.0000 C.ar    1  LIG1        0.0015
     29 C           3.0920   -1.7040    0.0000 C.ar    1  LIG1        0.0176
@<TRIPOS>BOND
     1     1     2   ar
     2     1     5   ar
     3     1     9    1
     4     2     3   ar
     5     2    24    1
     6     3     4   ar
     7     3    23    2
     8     4     5   ar
     9     5     6    1
    10     6     7    1
    11     6    16    1
    12     7     8    1
    13     7    13    1
    14     8     9    1
    15     8    10    1
    16    10    11   ar
    17    10    12   ar
    18    13    14    1
    19    14    15    1
    20    14    22    2
    21    15    16   ar
    22    15    20   ar
    23    16    17   ar
    24    17    18   ar
    25    18    19   ar
    26    18    21    1
    27    19    20   ar
    28    24    25   ar
    29    24    29   ar
    30    25    26   ar
    31    26    27   ar
    32    27    28   ar
    33    28    29   ar
