@<TRIPOS>MOLECULE
31723_ChemDiv_8016-7003
 32 37 0 0 0
SMALL
GASTEIGER
Energy = 0

@<TRIPOS>ATOM
      1 C           2.5040   -0.3420    0.0000 C.ar    1  LIG1        0.1683
      2 N           1.6790    0.2000    0.0000 N.ar    1  LIG1       -0.3014
      3 C           1.9380    1.1540    0.0000 C.ar    1  LIG1        0.0793
      4 C           2.9250    1.2040    0.0000 C.ar    1  LIG1        0.0987
      5 N           3.2790    0.2790    0.0000 N.ar    1  LIG1       -0.2250
      6 C           3.3750    2.0790    0.0000 C.ar    1  LIG1        0.0206
      7 C           2.8380    2.9040    0.0000 C.ar    1  LIG1        0.0016
      8 C           1.8500    2.8540    0.0000 C.ar    1  LIG1        0.0016
      9 C           1.4040    1.9790    0.0000 C.ar    1  LIG1        0.0188
     10 C           0.7630   -0.1540    0.0000 C.3     1  LIG1        0.1946
     11 C           0.0040    0.4670    0.0000 C.2     1  LIG1        0.2645
     12 N          -0.9170    0.1170    0.0000 N.am    1  LIG1       -0.2056
     13 C          -1.3580   -0.7500    0.0000 C.3     1  LIG1        0.0953
     14 C          -2.3420   -0.7920    0.0000 C.3     1  LIG1        0.0185
     15 C          -2.8670    0.0290    0.0000 C.3     1  LIG1        0.0017
     16 C          -3.8460   -0.0040    0.0000 C.3     1  LIG1        0.0001
     17 C          -4.3040   -0.8790    0.0000 C.3     1  LIG1        0.0000
     18 C          -3.7710   -1.7040    0.0000 C.3     1  LIG1        0.0001
     19 C          -2.7920   -1.6670    0.0000 C.3     1  LIG1        0.0017
     20 C          -3.4170   -2.9000    0.0000 C.3     1  LIG1        0.0000
     21 C          -2.9670   -2.0290    0.0000 C.3     1  LIG1        0.0001
     22 C          -2.0330   -1.7290    0.0000 C.3     1  LIG1        0.0017
     23 C          -3.7920   -0.9880    0.0000 C.3     1  LIG1        0.0000
     24 C          -1.0540   -1.6790    0.0000 C.3     1  LIG1        0.0217
     25 C          -0.0960   -1.8880    0.0000 C.3     1  LIG1        0.0018
     26 O           0.1540    1.4330    0.0000 O.2     1  LIG1       -0.2712
     27 C           2.5540   -1.3170    0.0000 C.ar    1  LIG1        0.1941
     28 C           3.3790   -1.8540    0.0000 C.ar    1  LIG1        0.2341
     29 N           3.1250   -2.8040    0.0000 N.ar    1  LIG1       -0.0297
     30 O           2.1420   -2.8540    0.0000 O.2     1  LIG1       -0.2401
     31 N           1.7920   -1.9420    0.0000 N.ar    1  LIG1       -0.0437
     32 N           4.3000   -1.5040    0.0000 N.pl3   1  LIG1       -0.1018
@<TRIPOS>BOND
     1     1     2   ar
     2     1     5   ar
     3     1    27    1
     4     2     3   ar
     5     2    10    1
     6     3     4   ar
     7     3     9   ar
     8     4     5   ar
     9     4     6   ar
    10     6     7   ar
    11     7     8   ar
    12     8     9   ar
    13    10    11    1
    14    11    12   am
    15    11    26    2
    16    12    13    1
    17    13    14    1
    18    13    24    1
    19    14    15    1
    20    14    19    1
    21    14    22    1
    22    15    16    1
    23    16    17    1
    24    16    23    1
    25    17    18    1
    26    18    19    1
    27    18    20    1
    28    20    21    1
    29    21    22    1
    30    21    23    1
    31    24    25    1
    32    27    28   ar
    33    27    31   ar
    34    28    29   ar
    35    28    32    1
    36    29    30   ar
    37    30    31   ar
