@<TRIPOS>MOLECULE
31739_ChemDiv_6049-1099
 24 26 0 0 0
SMALL
GASTEIGER
Energy = 0

@<TRIPOS>ATOM
      1 S          -2.5580    1.7330    0.0000 S.O2    1  LIG1        0.0935
      2 C          -2.0290    0.8420    0.0000 C.ar    1  LIG1        0.1251
      3 C          -2.5330   -0.0170    0.0000 C.ar    1  LIG1        0.0213
      4 C          -2.0290   -0.8830    0.0000 C.ar    1  LIG1        0.0180
      5 C          -1.0080   -0.8830    0.0000 C.ar    1  LIG1        0.0739
      6 N          -0.5170   -1.7500    0.0000 N.am    1  LIG1       -0.1728
      7 C           0.4830   -1.7500    0.0000 C.2     1  LIG1        0.3038
      8 C           0.9630   -0.8830    0.0000 C.ar    1  LIG1        0.2037
      9 O           1.9580   -0.8580    0.0000 O.2     1  LIG1       -0.4163
     10 C           2.4250    0.0080    0.0000 C.ar    1  LIG1        0.3458
     11 C           1.8670    0.8630    0.0000 C.ar    1  LIG1        0.0761
     12 C           0.9130    0.8080    0.0000 C.ar    1  LIG1        0.0094
     13 C           0.4460   -0.0670    0.0000 C.ar    1  LIG1        0.0426
     14 C           0.3790    1.6540    0.0000 C.ar    1  LIG1        0.0003
     15 C           0.8040    2.5380    0.0000 C.ar    1  LIG1        0.0000
     16 C           1.8170    2.5750    0.0000 C.ar    1  LIG1        0.0002
     17 C           2.3210    1.7460    0.0000 C.ar    1  LIG1        0.0065
     18 O           3.4250    0.0710    0.0000 O.2     1  LIG1       -0.2445
     19 O           1.0000   -2.6080    0.0000 O.2     1  LIG1       -0.2646
     20 C          -0.5170   -0.0170    0.0000 C.ar    1  LIG1        0.0180
     21 C          -1.0080    0.8630    0.0000 C.ar    1  LIG1        0.0213
     22 O          -1.6880    2.2580    0.0000 O.2     1  LIG1       -0.1503
     23 O          -3.4290    1.1960    0.0000 O.2     1  LIG1       -0.1503
     24 N          -3.0710    2.6130    0.0000 N.3     1  LIG1        0.0392
@<TRIPOS>BOND
     1     1     2    1
     2     1    22    2
     3     1    23    2
     4     1    24    1
     5     2     3   ar
     6     2    21   ar
     7     3     4   ar
     8     4     5   ar
     9     5     6    1
    10     5    20   ar
    11     6     7   am
    12     7     8    1
    13     7    19    2
    14     8     9   ar
    15     8    13   ar
    16     9    10   ar
    17    10    11   ar
    18    10    18    2
    19    11    12   ar
    20    11    17   ar
    21    12    13   ar
    22    12    14   ar
    23    14    15   ar
    24    15    16   ar
    25    16    17   ar
    26    20    21   ar
