@<TRIPOS>MOLECULE
31731_ChemDiv_5350-0860
 25 27 0 0 0
SMALL
GASTEIGER
Energy = 0

@<TRIPOS>ATOM
      1 C          -2.5960   -1.7170    0.0000 C.2     1  LIG1        0.0273
      2 C          -1.7250   -1.2170    0.0000 C.2     1  LIG1        0.1893
      3 C          -0.8670   -1.7170    0.0000 C.2     1  LIG1        0.0273
      4 C           0.0210   -1.2460    0.0000 C.2     1  LIG1       -0.0003
      5 C           0.8920   -1.7630    0.0000 C.ar    1  LIG1        0.0000
      6 C           1.7580   -1.2830    0.0000 C.ar    1  LIG1        0.0031
      7 C           2.6040   -1.8250    0.0000 C.ar    1  LIG1        0.0369
      8 C           2.6040   -2.7920    0.0000 C.ar    1  LIG1        0.1387
      9 C           1.7130   -3.2630    0.0000 C.ar    1  LIG1        0.0369
     10 C           0.8500   -2.7500    0.0000 C.ar    1  LIG1        0.0031
     11 O           3.4960   -3.2880    0.0000 O.3     1  LIG1       -0.4714
     12 C           4.3630   -2.7710    0.0000 C.3     1  LIG1        0.2525
     13 C          -0.8670   -2.7130    0.0000 C.3     1  LIG1        0.0873
     14 S          -1.7250   -3.2080    0.0000 S.3     1  LIG1       -0.1304
     15 C          -2.5960   -2.7130    0.0000 C.3     1  LIG1        0.0873
     16 O          -1.7250   -0.2130    0.0000 O.2     1  LIG1       -0.2872
     17 C          -3.4790   -1.2000    0.0000 C.2     1  LIG1       -0.0003
     18 C          -3.5040   -0.1880    0.0000 C.ar    1  LIG1        0.0000
     19 C          -4.3670    0.3000    0.0000 C.ar    1  LIG1        0.0031
     20 C          -4.3670    1.2960    0.0000 C.ar    1  LIG1        0.0369
     21 C          -3.5040    1.7830    0.0000 C.ar    1  LIG1        0.1387
     22 C          -2.6380    1.2960    0.0000 C.ar    1  LIG1        0.0369
     23 C          -2.6380    0.3000    0.0000 C.ar    1  LIG1        0.0031
     24 O          -3.5040    2.7920    0.0000 O.3     1  LIG1       -0.4714
     25 C          -4.3670    3.2920    0.0000 C.3     1  LIG1        0.2525
@<TRIPOS>BOND
     1     1     2    1
     2     1    15    1
     3     1    17    2
     4     2     3    1
     5     2    16    2
     6     3     4    2
     7     3    13    1
     8     4     5    1
     9     5     6   ar
    10     5    10   ar
    11     6     7   ar
    12     7     8   ar
    13     8     9   ar
    14     8    11    1
    15     9    10   ar
    16    11    12    1
    17    13    14    1
    18    14    15    1
    19    17    18    1
    20    18    19   ar
    21    18    23   ar
    22    19    20   ar
    23    20    21   ar
    24    21    22   ar
    25    21    24    1
    26    22    23   ar
    27    24    25    1
