@<TRIPOS>MOLECULE
31737_ChemDiv_5353-0231
 25 27 0 0 0
SMALL
GASTEIGER
Energy = 0

@<TRIPOS>ATOM
      1 C          -1.7420    0.5130    0.0000 C.ar    1  LIG1        0.2035
      2 C          -1.7420    1.5130    0.0000 C.ar    1  LIG1        0.0844
      3 C          -2.6130    2.0170    0.0000 C.ar    1  LIG1        0.2018
      4 C          -3.4750    1.5130    0.0000 C.ar    1  LIG1        0.0735
      5 C          -3.4880    0.5250    0.0000 C.ar    1  LIG1        0.1485
      6 O          -2.6130    0.0170    0.0000 O.2     1  LIG1       -0.4486
      7 C          -4.3500    0.0170    0.0000 C.ar    1  LIG1        0.0376
      8 C          -5.2000    0.5130    0.0000 C.ar    1  LIG1        0.0031
      9 C          -5.2000    1.5130    0.0000 C.ar    1  LIG1        0.0003
     10 C          -4.3500    2.0040    0.0000 C.ar    1  LIG1        0.0062
     11 O          -2.6130    3.0170    0.0000 O.2     1  LIG1       -0.2864
     12 C          -0.8750    0.0000    0.0000 C.2     1  LIG1        0.3038
     13 N           0.0000    0.5130    0.0000 N.am    1  LIG1       -0.1728
     14 C           0.8540    0.0000    0.0000 C.ar    1  LIG1        0.0739
     15 C           1.7210    0.5000    0.0000 C.ar    1  LIG1        0.0179
     16 C           2.5880    0.0000    0.0000 C.ar    1  LIG1        0.0159
     17 C           2.5880   -1.0080    0.0000 C.ar    1  LIG1        0.0479
     18 N           3.4630   -1.5040    0.0000 N.pl3   1  LIG1       -0.3075
     19 C           3.4630   -2.5080    0.0000 C.3     1  LIG1        0.0908
     20 C           4.3170   -3.0130    0.0000 C.3     1  LIG1        0.0232
     21 C           4.3330   -1.0080    0.0000 C.3     1  LIG1        0.0908
     22 C           5.1960   -1.5040    0.0000 C.3     1  LIG1        0.0232
     23 C           1.7210   -1.5040    0.0000 C.ar    1  LIG1        0.0159
     24 C           0.8500   -0.9920    0.0000 C.ar    1  LIG1        0.0179
     25 O          -0.8750   -0.9920    0.0000 O.2     1  LIG1       -0.2646
@<TRIPOS>BOND
     1     1     2   ar
     2     1     6   ar
     3     1    12    1
     4     2     3   ar
     5     3     4   ar
     6     3    11    2
     7     4     5   ar
     8     4    10   ar
     9     5     6   ar
    10     5     7   ar
    11     7     8   ar
    12     8     9   ar
    13     9    10   ar
    14    12    13   am
    15    12    25    2
    16    13    14    1
    17    14    15   ar
    18    14    24   ar
    19    15    16   ar
    20    16    17   ar
    21    17    18    1
    22    17    23   ar
    23    18    19    1
    24    18    21    1
    25    19    20    1
    26    21    22    1
    27    23    24   ar
