@<TRIPOS>MOLECULE
31747_ChemDiv_D268-0477
 27 31 0 0 0
SMALL
GASTEIGER
Energy = 0

@<TRIPOS>ATOM
      1 C           0.8500    1.7000    0.0000 C.ar    1  LIG1        0.1683
      2 N           0.2630    0.8920    0.0000 N.ar    1  LIG1       -0.3027
      3 C          -0.6920    1.1920    0.0000 C.ar    1  LIG1        0.0792
      4 C          -0.6920    2.2000    0.0000 C.ar    1  LIG1        0.0987
      5 N           0.2630    2.5000    0.0000 N.ar    1  LIG1       -0.2250
      6 C          -1.5630    2.7000    0.0000 C.ar    1  LIG1        0.0206
      7 C          -2.4130    2.2000    0.0000 C.ar    1  LIG1        0.0016
      8 C          -2.4130    1.1920    0.0000 C.ar    1  LIG1        0.0016
      9 C          -1.5630    0.6920    0.0000 C.ar    1  LIG1        0.0188
     10 C           0.5630   -0.0630    0.0000 C.3     1  LIG1        0.1733
     11 C          -0.1000   -0.8080    0.0000 C.ar    1  LIG1        0.1652
     12 N           0.2130   -1.7500    0.0000 N.ar    1  LIG1       -0.1909
     13 C          -0.4630   -2.4960    0.0000 C.ar    1  LIG1        0.2818
     14 C          -1.4420   -2.2880    0.0000 C.ar    1  LIG1        0.0755
     15 C          -1.7540   -1.3380    0.0000 C.ar    1  LIG1        0.0873
     16 N          -1.0880   -0.5880    0.0000 N.ar    1  LIG1       -0.2285
     17 C          -2.7250   -1.1250    0.0000 C.ar    1  LIG1        0.0193
     18 C          -3.3920   -1.8630    0.0000 C.ar    1  LIG1        0.0015
     19 C          -3.0920   -2.8250    0.0000 C.ar    1  LIG1        0.0003
     20 C          -2.1040   -3.0380    0.0000 C.ar    1  LIG1        0.0063
     21 O          -0.1630   -3.4500    0.0000 O.2     1  LIG1       -0.2651
     22 C           1.8380    1.7000    0.0000 C.ar    1  LIG1        0.1941
     23 C           2.4330    2.5040    0.0000 C.ar    1  LIG1        0.2341
     24 N           3.3880    2.2000    0.0000 N.ar    1  LIG1       -0.0297
     25 O           3.3880    1.1920    0.0000 O.2     1  LIG1       -0.2401
     26 N           2.4330    0.8920    0.0000 N.ar    1  LIG1       -0.0437
     27 N           2.1250    3.4540    0.0000 N.pl3   1  LIG1       -0.1018
@<TRIPOS>BOND
     1     1     2   ar
     2     1     5   ar
     3     1    22    1
     4     2     3   ar
     5     2    10    1
     6     3     4   ar
     7     3     9   ar
     8     4     5   ar
     9     4     6   ar
    10     6     7   ar
    11     7     8   ar
    12     8     9   ar
    13    10    11    1
    14    11    12   ar
    15    11    16   ar
    16    12    13   ar
    17    13    14   ar
    18    13    21    2
    19    14    15   ar
    20    14    20   ar
    21    15    16   ar
    22    15    17   ar
    23    17    18   ar
    24    18    19   ar
    25    19    20   ar
    26    22    23   ar
    27    22    26   ar
    28    23    24   ar
    29    23    27    1
    30    24    25   ar
    31    25    26   ar
