@<TRIPOS>MOLECULE
31743_ChemDiv_6049-1131
 28 30 0 0 0
SMALL
GASTEIGER
Energy = 0

@<TRIPOS>ATOM
      1 C           1.2750   -0.8880    0.0000 C.ar    1  LIG1        0.2037
      2 O           2.2710   -0.8630    0.0000 O.2     1  LIG1       -0.4163
      3 C           2.7380    0.0080    0.0000 C.ar    1  LIG1        0.3458
      4 C           2.1790    0.8630    0.0000 C.ar    1  LIG1        0.0761
      5 C           1.2210    0.8040    0.0000 C.ar    1  LIG1        0.0094
      6 C           0.7580   -0.0710    0.0000 C.ar    1  LIG1        0.0426
      7 C           0.6920    1.6500    0.0000 C.ar    1  LIG1        0.0003
      8 C           1.1130    2.5330    0.0000 C.ar    1  LIG1        0.0000
      9 C           2.1290    2.5750    0.0000 C.ar    1  LIG1        0.0002
     10 C           2.6330    1.7420    0.0000 C.ar    1  LIG1        0.0065
     11 O           3.7380    0.0750    0.0000 O.2     1  LIG1       -0.2445
     12 C           0.7920   -1.7580    0.0000 C.2     1  LIG1        0.3038
     13 N          -0.2080   -1.7580    0.0000 N.am    1  LIG1       -0.1728
     14 C          -0.7250   -0.8750    0.0000 C.ar    1  LIG1        0.0742
     15 C          -0.2250   -0.0040    0.0000 C.ar    1  LIG1        0.0231
     16 C          -0.7250    0.8710    0.0000 C.ar    1  LIG1        0.0771
     17 C          -0.2130    1.7420    0.0000 C.2     1  LIG1        0.3414
     18 O           0.7880    1.7420    0.0000 O.2     1  LIG1       -0.2449
     19 O          -0.7250    2.6130    0.0000 O.3     1  LIG1       -0.4413
     20 C          -1.7460    2.5960    0.0000 C.3     1  LIG1        0.2560
     21 C          -1.7210    0.8710    0.0000 C.ar    1  LIG1        0.0130
     22 C          -2.2380    0.0080    0.0000 C.ar    1  LIG1        0.0771
     23 C          -3.2420    0.0080    0.0000 C.2     1  LIG1        0.3414
     24 O          -3.7330    0.8830    0.0000 O.2     1  LIG1       -0.2449
     25 O          -3.7420   -0.8670    0.0000 O.3     1  LIG1       -0.4413
     26 C          -3.2170   -1.7420    0.0000 C.3     1  LIG1        0.2560
     27 C          -1.7210   -0.8580    0.0000 C.ar    1  LIG1        0.0231
     28 O           1.3130   -2.6130    0.0000 O.2     1  LIG1       -0.2646
@<TRIPOS>BOND
     1     1     2   ar
     2     1     6   ar
     3     1    12    1
     4     2     3   ar
     5     3     4   ar
     6     3    11    2
     7     4     5   ar
     8     4    10   ar
     9     5     6   ar
    10     5     7   ar
    11     7     8   ar
    12     8     9   ar
    13     9    10   ar
    14    12    13   am
    15    12    28    2
    16    13    14    1
    17    14    15   ar
    18    14    27   ar
    19    15    16   ar
    20    16    17    1
    21    16    21   ar
    22    17    18    2
    23    17    19    1
    24    19    20    1
    25    21    22   ar
    26    22    23    1
    27    22    27   ar
    28    23    24    2
    29    23    25    1
    30    25    26    1
