@<TRIPOS>MOLECULE
31745_ChemDiv_D268-0406
 28 32 0 0 0
SMALL
GASTEIGER
Energy = 0

@<TRIPOS>ATOM
      1 C          -3.1670    0.4290    0.0000 C.ar    1  LIG1        0.1682
      2 N          -2.3540   -0.1000    0.0000 N.ar    1  LIG1       -0.3058
      3 C          -2.6330   -1.0670    0.0000 C.ar    1  LIG1        0.0791
      4 C          -3.6330   -1.1130    0.0000 C.ar    1  LIG1        0.0987
      5 N          -3.9670   -0.1630    0.0000 N.ar    1  LIG1       -0.2250
      6 C          -4.0580   -2.0130    0.0000 C.ar    1  LIG1        0.0206
      7 C          -3.5580   -2.8630    0.0000 C.ar    1  LIG1        0.0016
      8 C          -2.5580   -2.8170    0.0000 C.ar    1  LIG1        0.0016
      9 C          -2.0710   -1.9170    0.0000 C.ar    1  LIG1        0.0188
     10 C          -1.5080    0.4290    0.0000 C.3     1  LIG1        0.1342
     11 C          -0.5420    0.1710    0.0000 C.ar    1  LIG1        0.0004
     12 C          -0.2830   -0.7790    0.0000 C.ar    1  LIG1       -0.0023
     13 C           0.6710   -1.0420    0.0000 C.ar    1  LIG1        0.0018
     14 C           1.3790   -0.3290    0.0000 C.ar    1  LIG1        0.0257
     15 C           2.3460   -0.5880    0.0000 C.ar    1  LIG1        0.1349
     16 S           3.1210    0.0500    0.0000 S.2     1  LIG1       -0.0274
     17 C           3.9580   -0.4920    0.0000 C.ar    1  LIG1        0.2222
     18 N           3.7170   -1.4630    0.0000 N.ar    1  LIG1       -0.1222
     19 N           2.7170   -1.5130    0.0000 N.ar    1  LIG1       -0.1395
     20 N           4.9040   -0.1290    0.0000 N.pl3   1  LIG1       -0.0979
     21 C           1.1080    0.6290    0.0000 C.ar    1  LIG1        0.0018
     22 C           0.1540    0.8790    0.0000 C.ar    1  LIG1       -0.0023
     23 C          -3.6920    1.2790    0.0000 C.ar    1  LIG1        0.1941
     24 C          -3.3040    2.2290    0.0000 C.ar    1  LIG1        0.2341
     25 N          -4.0920    2.8670    0.0000 N.ar    1  LIG1       -0.0297
     26 O          -4.9080    2.3540    0.0000 O.2     1  LIG1       -0.2401
     27 N          -4.6960    1.3540    0.0000 N.ar    1  LIG1       -0.0437
     28 N          -2.3580    2.5330    0.0000 N.pl3   1  LIG1       -0.1018
@<TRIPOS>BOND
     1     1     2   ar
     2     1     5   ar
     3     1    23    1
     4     2     3   ar
     5     2    10    1
     6     3     4   ar
     7     3     9   ar
     8     4     5   ar
     9     4     6   ar
    10     6     7   ar
    11     7     8   ar
    12     8     9   ar
    13    10    11    1
    14    11    12   ar
    15    11    22   ar
    16    12    13   ar
    17    13    14   ar
    18    14    15    1
    19    14    21   ar
    20    15    16   ar
    21    15    19   ar
    22    16    17   ar
    23    17    18   ar
    24    17    20    1
    25    18    19   ar
    26    21    22   ar
    27    23    24   ar
    28    23    27   ar
    29    24    25   ar
    30    24    28    1
    31    25    26   ar
    32    26    27   ar
