@<TRIPOS>MOLECULE
31749_ChemDiv_D268-0486
 29 33 0 0 0
SMALL
GASTEIGER
Energy = 0

@<TRIPOS>ATOM
      1 C           0.6880    2.1210    0.0000 C.ar    1  LIG1        0.1683
      2 N           0.1000    1.3130    0.0000 N.ar    1  LIG1       -0.3014
      3 C          -0.8580    1.6210    0.0000 C.ar    1  LIG1        0.0793
      4 C          -0.8580    2.6210    0.0000 C.ar    1  LIG1        0.0987
      5 N           0.1000    2.9250    0.0000 N.ar    1  LIG1       -0.2250
      6 C          -1.7210    3.1330    0.0000 C.ar    1  LIG1        0.0206
      7 C          -2.5750    2.6210    0.0000 C.ar    1  LIG1        0.0016
      8 C          -2.5750    1.6210    0.0000 C.ar    1  LIG1        0.0016
      9 C          -1.7210    1.1210    0.0000 C.ar    1  LIG1        0.0188
     10 C           0.4040    0.3630    0.0000 C.3     1  LIG1        0.1950
     11 C          -0.2710   -0.3790    0.0000 C.2     1  LIG1        0.2687
     12 N           0.0380   -1.3250    0.0000 N.am    1  LIG1       -0.1763
     13 C          -0.6330   -2.0670    0.0000 C.ar    1  LIG1        0.0892
     14 C          -1.6330   -2.1750    0.0000 C.ar    1  LIG1        0.1237
     15 C          -2.0460   -3.0880    0.0000 C.ar    1  LIG1        0.1101
     16 N          -3.0250   -2.9790    0.0000 N.ar    1  LIG1       -0.1901
     17 S          -3.2250   -2.0040    0.0000 S.2     1  LIG1        0.1166
     18 N          -2.3580   -1.5040    0.0000 N.ar    1  LIG1       -0.1888
     19 C          -1.4500   -3.8920    0.0000 C.ar    1  LIG1        0.0211
     20 C          -0.4580   -3.8000    0.0000 C.ar    1  LIG1       -0.0013
     21 C          -0.0380   -2.8750    0.0000 C.ar    1  LIG1       -0.0049
     22 C           0.9500   -2.7790    0.0000 C.3     1  LIG1        0.0324
     23 O          -1.2500   -0.1670    0.0000 O.2     1  LIG1       -0.2709
     24 C           1.6830    2.1210    0.0000 C.ar    1  LIG1        0.1941
     25 C           2.2630    2.9460    0.0000 C.ar    1  LIG1        0.2341
     26 N           3.2210    2.6330    0.0000 N.ar    1  LIG1       -0.0297
     27 O           3.2210    1.6210    0.0000 O.2     1  LIG1       -0.2401
     28 N           2.2630    1.3130    0.0000 N.ar    1  LIG1       -0.0437
     29 N           1.9630    3.8960    0.0000 N.pl3   1  LIG1       -0.1018
@<TRIPOS>BOND
     1     1     2   ar
     2     1     5   ar
     3     1    24    1
     4     2     3   ar
     5     2    10    1
     6     3     4   ar
     7     3     9   ar
     8     4     5   ar
     9     4     6   ar
    10     6     7   ar
    11     7     8   ar
    12     8     9   ar
    13    10    11    1
    14    11    12   am
    15    11    23    2
    16    12    13    1
    17    13    14   ar
    18    13    21   ar
    19    14    15   ar
    20    14    18   ar
    21    15    16   ar
    22    15    19   ar
    23    16    17   ar
    24    17    18   ar
    25    19    20   ar
    26    20    21   ar
    27    21    22    1
    28    24    25   ar
    29    24    28   ar
    30    25    26   ar
    31    25    29    1
    32    26    27   ar
    33    27    28   ar
