@<TRIPOS>MOLECULE
31741_ChemDiv_6049-1105
 20 22 0 0 0
SMALL
GASTEIGER
Energy = 0

@<TRIPOS>ATOM
      1 C           0.5000   -0.8750    0.0000 C.ar    1  LIG1        0.2037
      2 O           1.5080   -0.8500    0.0000 O.2     1  LIG1       -0.4163
      3 C           1.9790    0.0250    0.0000 C.ar    1  LIG1        0.3458
      4 C           1.4170    0.8920    0.0000 C.ar    1  LIG1        0.0761
      5 C           0.4460    0.8330    0.0000 C.ar    1  LIG1        0.0094
      6 C          -0.0210   -0.0540    0.0000 C.ar    1  LIG1        0.0426
      7 C          -0.0880    1.6880    0.0000 C.ar    1  LIG1        0.0003
      8 C           0.3420    2.5750    0.0000 C.ar    1  LIG1        0.0000
      9 C           1.3670    2.6210    0.0000 C.ar    1  LIG1        0.0002
     10 C           1.8750    1.7790    0.0000 C.ar    1  LIG1        0.0065
     11 O           2.9880    0.0920    0.0000 O.2     1  LIG1       -0.2445
     12 C           0.0170   -1.7500    0.0000 C.2     1  LIG1        0.3038
     13 N          -0.9920   -1.7500    0.0000 N.am    1  LIG1       -0.1728
     14 C          -1.4960   -0.8830    0.0000 C.ar    1  LIG1        0.0738
     15 C          -2.4830   -0.8830    0.0000 C.ar    1  LIG1        0.0166
     16 C          -2.9920   -0.0290    0.0000 C.ar    1  LIG1        0.0013
     17 C          -2.4830    0.8330    0.0000 C.ar    1  LIG1        0.0001
     18 C          -1.4880    0.8500    0.0000 C.ar    1  LIG1        0.0013
     19 C          -0.9830   -0.0210    0.0000 C.ar    1  LIG1        0.0166
     20 O           0.5380   -2.6170    0.0000 O.2     1  LIG1       -0.2646
@<TRIPOS>BOND
     1     1     2   ar
     2     1     6   ar
     3     1    12    1
     4     2     3   ar
     5     3     4   ar
     6     3    11    2
     7     4     5   ar
     8     4    10   ar
     9     5     6   ar
    10     5     7   ar
    11     7     8   ar
    12     8     9   ar
    13     9    10   ar
    14    12    13   am
    15    12    20    2
    16    13    14    1
    17    14    15   ar
    18    14    19   ar
    19    15    16   ar
    20    16    17   ar
    21    17    18   ar
    22    18    19   ar
