@<TRIPOS>MOLECULE
31758_ChemDiv_5504-0226
 22 23 0 0 0
SMALL
GASTEIGER
Energy = 0

@<TRIPOS>ATOM
      1 C          -2.3290    1.0040    0.0000 C.ar    1  LIG1        0.1177
      2 S          -2.0250    0.0580    0.0000 S.2     1  LIG1       -0.0449
      3 C          -2.8380   -0.5420    0.0000 C.ar    1  LIG1        0.1283
      4 N          -3.6540    0.0670    0.0000 N.ar    1  LIG1       -0.3167
      5 C          -3.3330    1.0040    0.0000 C.ar    1  LIG1        0.0599
      6 C          -4.2170    1.5210    0.0000 C.3     1  LIG1        0.0520
      7 C          -4.6130   -0.2380    0.0000 C.3     1  LIG1        0.1312
      8 S          -2.8460   -1.5380    0.0000 S.2     1  LIG1       -0.0247
      9 N          -1.4630    1.5210    0.0000 N.am    1  LIG1       -0.1529
     10 C          -0.6130    1.0210    0.0000 C.2     1  LIG1        0.3482
     11 N           0.2580    1.5250    0.0000 N.am    1  LIG1       -0.1607
     12 C           1.1330    1.0380    0.0000 C.ar    1  LIG1        0.0751
     13 C           1.9880    1.5420    0.0000 C.ar    1  LIG1        0.0180
     14 C           2.8580    1.0540    0.0000 C.ar    1  LIG1        0.0213
     15 C           2.8750    0.0670    0.0000 C.ar    1  LIG1        0.1251
     16 S           3.7500   -0.4250    0.0000 S.O2    1  LIG1        0.0935
     17 O           4.2380    0.4460    0.0000 O.2     1  LIG1       -0.1503
     18 O           3.2500   -1.2920    0.0000 O.2     1  LIG1       -0.1503
     19 N           4.6080   -0.9130    0.0000 N.3     1  LIG1        0.0392
     20 C           2.0040   -0.4420    0.0000 C.ar    1  LIG1        0.0213
     21 C           1.1330    0.0460    0.0000 C.ar    1  LIG1        0.0180
     22 O          -0.5960    0.0290    0.0000 O.2     1  LIG1       -0.2484
@<TRIPOS>BOND
     1     1     2   ar
     2     1     5   ar
     3     1     9    1
     4     2     3   ar
     5     3     4   ar
     6     3     8    2
     7     4     5   ar
     8     4     7    1
     9     5     6    1
    10     9    10   am
    11    10    11   am
    12    10    22    2
    13    11    12    1
    14    12    13   ar
    15    12    21   ar
    16    13    14   ar
    17    14    15   ar
    18    15    16    1
    19    15    20   ar
    20    16    17    2
    21    16    18    2
    22    16    19    1
    23    20    21   ar
