@<TRIPOS>MOLECULE
31767_ChemDiv_6049-1494
 23 25 0 0 0
SMALL
GASTEIGER
Energy = 0

@<TRIPOS>ATOM
      1 C          -0.3630    0.9670    0.0000 C.ar    1  LIG1        0.2037
      2 O           0.6130    1.2330    0.0000 O.2     1  LIG1       -0.4163
      3 C           0.8710    2.1830    0.0000 C.ar    1  LIG1        0.3458
      4 C           0.1630    2.9000    0.0000 C.ar    1  LIG1        0.0761
      5 C          -0.8040    2.6420    0.0000 C.ar    1  LIG1        0.0094
      6 C          -1.0670    1.6750    0.0000 C.ar    1  LIG1        0.0426
      7 C          -1.5130    3.3540    0.0000 C.ar    1  LIG1        0.0003
      8 C          -1.2540    4.3000    0.0000 C.ar    1  LIG1        0.0000
      9 C          -0.2790    4.5670    0.0000 C.ar    1  LIG1        0.0002
     10 C           0.4250    3.8630    0.0000 C.ar    1  LIG1        0.0065
     11 O           1.8460    2.4170    0.0000 O.2     1  LIG1       -0.2445
     12 C          -0.6330   -0.0040    0.0000 C.2     1  LIG1        0.3038
     13 N           0.0750   -0.7170    0.0000 N.am    1  LIG1       -0.1735
     14 C          -0.1830   -1.6670    0.0000 C.ar    1  LIG1        0.0658
     15 C           0.5250   -2.3790    0.0000 C.ar    1  LIG1       -0.0071
     16 C           0.2670   -3.3290    0.0000 C.ar    1  LIG1       -0.0072
     17 C          -0.7130   -3.5960    0.0000 C.ar    1  LIG1       -0.0224
     18 C          -1.4170   -2.8880    0.0000 C.ar    1  LIG1       -0.0072
     19 C          -1.1500   -1.9250    0.0000 C.ar    1  LIG1       -0.0071
     20 C          -1.8500   -1.2250    0.0000 C.3     1  LIG1        0.0324
     21 C          -0.9790   -4.5670    0.0000 C.3     1  LIG1        0.0310
     22 C           1.5000   -2.1460    0.0000 C.3     1  LIG1        0.0324
     23 O          -1.6000   -0.2630    0.0000 O.2     1  LIG1       -0.2646
@<TRIPOS>BOND
     1     1     2   ar
     2     1     6   ar
     3     1    12    1
     4     2     3   ar
     5     3     4   ar
     6     3    11    2
     7     4     5   ar
     8     4    10   ar
     9     5     6   ar
    10     5     7   ar
    11     7     8   ar
    12     8     9   ar
    13     9    10   ar
    14    12    13   am
    15    12    23    2
    16    13    14    1
    17    14    15   ar
    18    14    19   ar
    19    15    16   ar
    20    15    22    1
    21    16    17   ar
    22    17    18   ar
    23    17    21    1
    24    18    19   ar
    25    19    20    1
