@<TRIPOS>MOLECULE
31769_ChemDiv_D103-2219
 25 27 0 0 0
SMALL
GASTEIGER
Energy = 0

@<TRIPOS>ATOM
      1 S          -4.0000    0.7960    0.0000 S.O2    1  LIG1        0.0935
      2 C          -3.0000    0.8040    0.0000 C.ar    1  LIG1        0.1251
      3 C          -2.5000    1.6750    0.0000 C.ar    1  LIG1        0.0213
      4 C          -1.5000    1.6750    0.0000 C.ar    1  LIG1        0.0161
      5 C          -1.0000    0.8080    0.0000 C.ar    1  LIG1        0.0507
      6 N           0.0000    0.8210    0.0000 N.am    1  LIG1       -0.2779
      7 C           0.5080   -0.0540    0.0000 C.2     1  LIG1        0.2843
      8 C           1.5080   -0.0540    0.0000 C.ar    1  LIG1        0.2017
      9 C           1.9960    0.8210    0.0000 C.ar    1  LIG1        0.0843
     10 C           3.0080    0.8080    0.0000 C.ar    1  LIG1        0.2018
     11 C           3.4960   -0.0580    0.0000 C.ar    1  LIG1        0.0735
     12 C           2.9960   -0.9210    0.0000 C.ar    1  LIG1        0.1485
     13 O           2.0080   -0.9210    0.0000 O.2     1  LIG1       -0.4487
     14 C           3.4960   -1.7830    0.0000 C.ar    1  LIG1        0.0376
     15 C           4.4960   -1.7830    0.0000 C.ar    1  LIG1        0.0031
     16 C           4.9960   -0.9210    0.0000 C.ar    1  LIG1        0.0003
     17 C           4.4960   -0.0580    0.0000 C.ar    1  LIG1        0.0062
     18 O           3.5130    1.6830    0.0000 O.2     1  LIG1       -0.2864
     19 O           0.0130   -0.9210    0.0000 O.2     1  LIG1       -0.2665
     20 C          -1.4920   -0.0580    0.0000 C.ar    1  LIG1        0.0161
     21 C          -2.4920   -0.0580    0.0000 C.ar    1  LIG1        0.0213
     22 O          -3.9880   -0.2040    0.0000 O.2     1  LIG1       -0.1503
     23 O          -4.0000    1.7880    0.0000 O.2     1  LIG1       -0.1503
     24 N          -5.0000    0.7920    0.0000 N.3     1  LIG1        0.0392
     25 H           0.4960    1.6830    0.0000 H       1  LIG1        0.1553
@<TRIPOS>BOND
     1     1     2    1
     2     1    22    2
     3     1    23    2
     4     1    24    1
     5     2     3   ar
     6     2    21   ar
     7     3     4   ar
     8     4     5   ar
     9     5     6    1
    10     5    20   ar
    11     6     7   am
    12     6    25    1
    13     7     8    1
    14     7    19    2
    15     8     9   ar
    16     8    13   ar
    17     9    10   ar
    18    10    11   ar
    19    10    18    2
    20    11    12   ar
    21    11    17   ar
    22    12    13   ar
    23    12    14   ar
    24    14    15   ar
    25    15    16   ar
    26    16    17   ar
    27    20    21   ar
