@<TRIPOS>MOLECULE
31766_ChemDiv_5436-0848
 28 33 0 0 0
SMALL
GASTEIGER
Energy = 0

@<TRIPOS>ATOM
      1 C           1.7250    1.4670    0.0000 C.ar    1  LIG1        0.1472
      2 C           1.7250    0.4580    0.0000 C.ar    1  LIG1        0.0305
      3 C           2.5920   -0.0330    0.0000 C.ar    1  LIG1       -0.0170
      4 C           3.4790    0.4580    0.0000 C.ar    1  LIG1        0.0499
      5 C           3.4790    1.4670    0.0000 C.ar    1  LIG1        0.3414
      6 O           2.5920    1.9540    0.0000 O.2     1  LIG1       -0.4215
      7 O           4.3330    1.9540    0.0000 O.2     1  LIG1       -0.2449
      8 C           4.3330   -0.0290    0.0000 C.3     1  LIG1        0.0326
      9 C           4.3330   -1.0330    0.0000 C.3     1  LIG1        0.0052
     10 C           3.4790   -1.5460    0.0000 C.3     1  LIG1        0.0050
     11 C           2.6040   -1.0460    0.0000 C.3     1  LIG1        0.0264
     12 C           0.8710   -0.0330    0.0000 C.ar    1  LIG1        0.0058
     13 C           0.0080    0.4580    0.0000 C.ar    1  LIG1        0.0375
     14 C           0.0080    1.4670    0.0000 C.ar    1  LIG1        0.1443
     15 C           0.8710    1.9540    0.0000 C.ar    1  LIG1        0.0473
     16 C           0.8710    2.9420    0.0000 C.3     1  LIG1        0.0375
     17 O          -0.9460    1.7540    0.0000 O.2     1  LIG1       -0.4506
     18 C          -1.5330    0.9580    0.0000 C.ar    1  LIG1        0.1795
     19 C          -0.9460    0.1540    0.0000 C.ar    1  LIG1        0.0407
     20 C          -1.5500   -0.6540    0.0000 C.ar    1  LIG1        0.0064
     21 C          -2.5250   -0.5330    0.0000 C.ar    1  LIG1        0.0403
     22 C          -3.1250   -1.3460    0.0000 C.ar    1  LIG1        0.1764
     23 C          -2.7210   -2.2710    0.0000 C.ar    1  LIG1        0.1764
     24 O          -3.4880   -2.9380    0.0000 O.3     1  LIG1       -0.4346
     25 C          -4.3380   -2.4130    0.0000 C.3     1  LIG1        0.4294
     26 O          -4.1170   -1.4420    0.0000 O.3     1  LIG1       -0.4346
     27 C          -1.7290   -2.3920    0.0000 C.ar    1  LIG1        0.0402
     28 C          -1.1290   -1.5670    0.0000 C.ar    1  LIG1        0.0034
@<TRIPOS>BOND
     1     1     2   ar
     2     1     6   ar
     3     1    15   ar
     4     2     3   ar
     5     2    12   ar
     6     3     4   ar
     7     3    11    1
     8     4     5   ar
     9     4     8    1
    10     5     6   ar
    11     5     7    2
    12     8     9    1
    13     9    10    1
    14    10    11    1
    15    12    13   ar
    16    13    14   ar
    17    13    19   ar
    18    14    15   ar
    19    14    17   ar
    20    15    16    1
    21    17    18   ar
    22    18    19   ar
    23    19    20    1
    24    20    21   ar
    25    20    28   ar
    26    21    22   ar
    27    22    23   ar
    28    22    26    1
    29    23    24    1
    30    23    27   ar
    31    24    25    1
    32    25    26    1
    33    27    28   ar
