@<TRIPOS>MOLECULE
31763_ChemDiv_6049-1469
 28 30 0 0 0
SMALL
GASTEIGER
Energy = 0

@<TRIPOS>ATOM
      1 C          -0.2080    1.0920    0.0000 C.ar    1  LIG1        0.2037
      2 O           0.7670    1.3580    0.0000 O.2     1  LIG1       -0.4163
      3 C           1.0250    2.3130    0.0000 C.ar    1  LIG1        0.3458
      4 C           0.3170    3.0250    0.0000 C.ar    1  LIG1        0.0761
      5 C          -0.6500    2.7670    0.0000 C.ar    1  LIG1        0.0094
      6 C          -0.9130    1.8000    0.0000 C.ar    1  LIG1        0.0426
      7 C          -1.3580    3.4790    0.0000 C.ar    1  LIG1        0.0003
      8 C          -1.1000    4.4290    0.0000 C.ar    1  LIG1        0.0000
      9 C          -0.1250    4.6960    0.0000 C.ar    1  LIG1        0.0002
     10 C           0.5790    3.9920    0.0000 C.ar    1  LIG1        0.0065
     11 O           2.0040    2.5420    0.0000 O.2     1  LIG1       -0.2445
     12 C          -0.4790    0.1170    0.0000 C.2     1  LIG1        0.3038
     13 N           0.2290   -0.5960    0.0000 N.am    1  LIG1       -0.1726
     14 C          -0.0290   -1.5460    0.0000 C.ar    1  LIG1        0.0802
     15 C           0.6830   -2.2630    0.0000 C.ar    1  LIG1        0.0909
     16 C           1.6580   -2.0290    0.0000 C.2     1  LIG1        0.3426
     17 O           2.3420   -2.7580    0.0000 O.2     1  LIG1       -0.2448
     18 O           1.9460   -1.0750    0.0000 O.3     1  LIG1       -0.4413
     19 C           2.9210   -0.8420    0.0000 C.3     1  LIG1        0.2560
     20 C           0.4250   -3.2130    0.0000 C.ar    1  LIG1        0.0080
     21 C          -0.5500   -3.4710    0.0000 C.ar    1  LIG1        0.0067
     22 C          -1.2460   -2.7670    0.0000 C.ar    1  LIG1        0.0769
     23 C          -2.2130   -3.0290    0.0000 C.2     1  LIG1        0.3414
     24 O          -2.9250   -2.3250    0.0000 O.2     1  LIG1       -0.2449
     25 O          -2.4670   -3.9880    0.0000 O.3     1  LIG1       -0.4413
     26 C          -1.7540   -4.6960    0.0000 C.3     1  LIG1        0.2560
     27 C          -0.9830   -1.8000    0.0000 C.ar    1  LIG1        0.0233
     28 O          -1.4500   -0.1420    0.0000 O.2     1  LIG1       -0.2646
@<TRIPOS>BOND
     1     1     2   ar
     2     1     6   ar
     3     1    12    1
     4     2     3   ar
     5     3     4   ar
     6     3    11    2
     7     4     5   ar
     8     4    10   ar
     9     5     6   ar
    10     5     7   ar
    11     7     8   ar
    12     8     9   ar
    13     9    10   ar
    14    12    13   am
    15    12    28    2
    16    13    14    1
    17    14    15   ar
    18    14    27   ar
    19    15    16    1
    20    15    20   ar
    21    16    17    2
    22    16    18    1
    23    18    19    1
    24    20    21   ar
    25    21    22   ar
    26    22    23    1
    27    22    27   ar
    28    23    24    2
    29    23    25    1
    30    25    26    1
