@<TRIPOS>MOLECULE
31760_ChemDiv_5504-0392
 22 23 0 0 0
SMALL
GASTEIGER
Energy = 0

@<TRIPOS>ATOM
      1 C          -0.8670   -0.2540    0.0000 C.3     1  LIG1        0.1131
      2 C           0.0040   -0.7460    0.0000 C.2     1  LIG1        0.3201
      3 O           0.0040   -1.7540    0.0000 O.2     1  LIG1       -0.2498
      4 O           0.8630   -0.2250    0.0000 O.3     1  LIG1       -0.4417
      5 C           1.7330   -0.7080    0.0000 C.3     1  LIG1        0.2705
      6 C           2.5790   -0.2040    0.0000 C.3     1  LIG1        0.1868
      7 N           2.5750    0.7710    0.0000 N.4     1  LIG1        0.3802
      8 C           3.4460    1.2880    0.0000 C.3     1  LIG1        0.1389
      9 C           3.4290    2.2790    0.0000 C.3     1  LIG1        0.0688
     10 C           1.7080    1.2710    0.0000 C.3     1  LIG1        0.1389
     11 C           1.7080    2.2790    0.0000 C.3     1  LIG1        0.0688
     12 C          -1.7130   -0.7630    0.0000 C.ar    1  LIG1       -0.0126
     13 C          -2.5830   -0.2630    0.0000 C.ar    1  LIG1       -0.0038
     14 C          -3.4500   -0.7710    0.0000 C.ar    1  LIG1       -0.0003
     15 C          -3.4500   -1.7750    0.0000 C.ar    1  LIG1       -0.0000
     16 C          -2.5750   -2.2750    0.0000 C.ar    1  LIG1       -0.0003
     17 C          -1.7130   -1.7670    0.0000 C.ar    1  LIG1       -0.0038
     18 C           0.0040    0.2420    0.0000 C.3     1  LIG1        0.0468
     19 C          -0.0040    1.2330    0.0000 C.3     1  LIG1        0.1430
     20 O          -0.8830    1.7500    0.0000 O.3     1  LIG1       -0.3537
     21 C          -1.7330    1.2250    0.0000 C.3     1  LIG1        0.1430
     22 C          -1.7330    0.2210    0.0000 C.3     1  LIG1        0.0468
@<TRIPOS>BOND
     1     1     2    1
     2     1    12    1
     3     1    18    1
     4     1    22    1
     5     2     3    2
     6     2     4    1
     7     4     5    1
     8     5     6    1
     9     6     7    1
    10     7     8    1
    11     7    10    1
    12     8     9    1
    13    10    11    1
    14    12    13   ar
    15    12    17   ar
    16    13    14   ar
    17    14    15   ar
    18    15    16   ar
    19    16    17   ar
    20    18    19    1
    21    19    20    1
    22    20    21    1
    23    21    22    1
