@<TRIPOS>MOLECULE
31764_ChemDiv_5436-0820
 27 32 0 0 0
SMALL
GASTEIGER
Energy = 0

@<TRIPOS>ATOM
      1 C           2.2130    0.7290    0.0000 C.ar    1  LIG1       -0.0170
      2 C           1.3500    1.2290    0.0000 C.ar    1  LIG1        0.0308
      3 C           1.3500    2.2330    0.0000 C.ar    1  LIG1        0.1514
      4 O           2.2130    2.7250    0.0000 O.2     1  LIG1       -0.4212
      5 C           3.0670    2.2330    0.0000 C.ar    1  LIG1        0.3414
      6 C           3.0670    1.2290    0.0000 C.ar    1  LIG1        0.0499
      7 C           3.9500    0.7290    0.0000 C.3     1  LIG1        0.0326
      8 C           3.9500   -0.2790    0.0000 C.3     1  LIG1        0.0052
      9 C           3.0670   -0.7790    0.0000 C.3     1  LIG1        0.0050
     10 C           2.2130   -0.2790    0.0000 C.3     1  LIG1        0.0264
     11 O           3.9500    2.7250    0.0000 O.2     1  LIG1       -0.2448
     12 C           0.4790    2.7250    0.0000 C.ar    1  LIG1        0.0750
     13 C          -0.3880    2.2330    0.0000 C.ar    1  LIG1        0.1485
     14 C          -0.3880    1.2290    0.0000 C.ar    1  LIG1        0.0378
     15 C          -1.3290    0.9170    0.0000 C.ar    1  LIG1        0.0407
     16 C          -1.9330    1.7170    0.0000 C.ar    1  LIG1        0.1795
     17 O          -1.3290    2.5290    0.0000 O.2     1  LIG1       -0.4503
     18 C          -1.6920   -0.0210    0.0000 C.ar    1  LIG1        0.0064
     19 C          -2.6830   -0.1830    0.0000 C.ar    1  LIG1        0.0403
     20 C          -3.0210   -1.1170    0.0000 C.ar    1  LIG1        0.1764
     21 C          -2.3830   -1.8790    0.0000 C.ar    1  LIG1        0.1764
     22 O          -2.9420   -2.7210    0.0000 O.3     1  LIG1       -0.4346
     23 C          -3.8880   -2.4630    0.0000 C.3     1  LIG1        0.4294
     24 O          -3.9540   -1.4710    0.0000 O.3     1  LIG1       -0.4346
     25 C          -1.3920   -1.7250    0.0000 C.ar    1  LIG1        0.0402
     26 C          -1.0460   -0.7880    0.0000 C.ar    1  LIG1        0.0034
     27 C           0.4790    0.7290    0.0000 C.ar    1  LIG1        0.0058
@<TRIPOS>BOND
     1     1     2   ar
     2     1     6   ar
     3     1    10    1
     4     2     3   ar
     5     2    27   ar
     6     3     4   ar
     7     3    12   ar
     8     4     5   ar
     9     5     6   ar
    10     5    11    2
    11     6     7    1
    12     7     8    1
    13     8     9    1
    14     9    10    1
    15    12    13   ar
    16    13    14   ar
    17    13    17   ar
    18    14    15   ar
    19    14    27   ar
    20    15    16   ar
    21    15    18    1
    22    16    17   ar
    23    18    19   ar
    24    18    26   ar
    25    19    20   ar
    26    20    21   ar
    27    20    24    1
    28    21    22    1
    29    21    25   ar
    30    22    23    1
    31    23    24    1
    32    25    26   ar
