@<TRIPOS>MOLECULE
31774_ChemDiv_5436-0846
 29 34 0 0 0
SMALL
GASTEIGER
Energy = 0

@<TRIPOS>ATOM
      1 C           2.6040    0.5000    0.0000 C.ar    1  LIG1        0.0094
      2 C           1.7460    1.0040    0.0000 C.ar    1  LIG1        0.0351
      3 C           1.7460    2.0080    0.0000 C.ar    1  LIG1        0.1517
      4 O           2.6040    2.5040    0.0000 O.2     1  LIG1       -0.4209
      5 C           3.4710    2.0080    0.0000 C.ar    1  LIG1        0.3459
      6 C           3.4710    1.0040    0.0000 C.ar    1  LIG1        0.0824
      7 O           4.3330    2.5040    0.0000 O.2     1  LIG1       -0.2445
      8 C           0.8830    2.5040    0.0000 C.ar    1  LIG1        0.0750
      9 C           0.0040    2.0080    0.0000 C.ar    1  LIG1        0.1485
     10 C           0.0040    1.0040    0.0000 C.ar    1  LIG1        0.0378
     11 C          -0.9500    0.6960    0.0000 C.ar    1  LIG1        0.0407
     12 C          -1.5330    1.4960    0.0000 C.ar    1  LIG1        0.1795
     13 O          -0.9500    2.3130    0.0000 O.2     1  LIG1       -0.4503
     14 C          -1.5330   -0.1130    0.0000 C.ar    1  LIG1        0.0064
     15 C          -2.5250    0.0000    0.0000 C.ar    1  LIG1        0.0403
     16 C          -3.1170   -0.8080    0.0000 C.ar    1  LIG1        0.1764
     17 C          -2.7210   -1.7290    0.0000 C.ar    1  LIG1        0.1764
     18 O          -3.4880   -2.3960    0.0000 O.3     1  LIG1       -0.4346
     19 C          -4.3380   -1.8880    0.0000 C.3     1  LIG1        0.4294
     20 O          -4.1210   -0.9170    0.0000 O.3     1  LIG1       -0.4346
     21 C          -1.7250   -1.8500    0.0000 C.ar    1  LIG1        0.0402
     22 C          -1.1250   -1.0330    0.0000 C.ar    1  LIG1        0.0034
     23 C           0.8830    0.5000    0.0000 C.ar    1  LIG1        0.0062
     24 C           2.6040   -0.5040    0.0000 C.ar    1  LIG1        0.0003
     25 C           3.4630   -1.0000    0.0000 C.ar    1  LIG1        0.0000
     26 C           3.4630   -1.9960    0.0000 C.ar    1  LIG1        0.0000
     27 C           2.6040   -2.5000    0.0000 C.ar    1  LIG1        0.0000
     28 C           1.7460   -1.9960    0.0000 C.ar    1  LIG1        0.0000
     29 C           1.7460   -1.0000    0.0000 C.ar    1  LIG1        0.0000
@<TRIPOS>BOND
     1     1     2   ar
     2     1     6   ar
     3     1    24    1
     4     2     3   ar
     5     2    23   ar
     6     3     4   ar
     7     3     8   ar
     8     4     5   ar
     9     5     6   ar
    10     5     7    2
    11     8     9   ar
    12     9    10   ar
    13     9    13   ar
    14    10    11   ar
    15    10    23   ar
    16    11    12   ar
    17    11    14    1
    18    12    13   ar
    19    14    15   ar
    20    14    22   ar
    21    15    16   ar
    22    16    17   ar
    23    16    20    1
    24    17    18    1
    25    17    21   ar
    26    18    19    1
    27    19    20    1
    28    21    22   ar
    29    24    25   ar
    30    24    29   ar
    31    25    26   ar
    32    26    27   ar
    33    27    28   ar
    34    28    29   ar
