@<TRIPOS>MOLECULE
31775_ChemDiv_6481-8129
 22 24 0 0 0
SMALL
GASTEIGER
Energy = 0

@<TRIPOS>ATOM
      1 N          -0.0750   -1.7380    0.0000 N.ar    1  LIG1       -0.2021
      2 C          -0.8830   -1.1540    0.0000 C.ar    1  LIG1        0.2048
      3 S          -1.6960   -1.7380    0.0000 S.2     1  LIG1        0.0513
      4 N          -1.3920   -2.6830    0.0000 N.ar    1  LIG1       -0.1872
      5 C          -0.3790   -2.6830    0.0000 C.ar    1  LIG1        0.1718
      6 C           0.1210   -3.5540    0.0000 C.ar    1  LIG1        0.0365
      7 C           1.1210   -3.5540    0.0000 C.ar    1  LIG1        0.0031
      8 C           1.6170   -4.4210    0.0000 C.ar    1  LIG1        0.0001
      9 C           1.1210   -5.2830    0.0000 C.ar    1  LIG1        0.0000
     10 C           0.1210   -5.2830    0.0000 C.ar    1  LIG1        0.0001
     11 C          -0.3790   -4.4210    0.0000 C.ar    1  LIG1        0.0031
     12 N          -0.8960   -0.1540    0.0000 N.am    1  LIG1       -0.1523
     13 C          -0.0290    0.3460    0.0000 C.2     1  LIG1        0.2589
     14 O           0.8420   -0.1540    0.0000 O.2     1  LIG1       -0.2720
     15 C          -0.0290    1.3460    0.0000 C.3     1  LIG1        0.1568
     16 S           0.8330    1.8460    0.0000 S.3     1  LIG1       -0.0028
     17 C           0.8330    2.8540    0.0000 C.ar    1  LIG1        0.4817
     18 N           1.5830    3.5250    0.0000 N.ar    1  LIG1        0.2062
     19 C           1.1790    4.4210    0.0000 C.ar    1  LIG1        0.7262
     20 N           0.1790    4.3250    0.0000 N.ar    1  LIG1        0.3230
     21 N          -0.0290    3.3540    0.0000 N.ar    1  LIG1        0.1680
     22 N           1.6920    5.2830    0.0000 N.pl3   1  LIG1        0.0250
@<TRIPOS>BOND
     1     1     2   ar
     2     1     5   ar
     3     2     3   ar
     4     2    12    1
     5     3     4   ar
     6     4     5   ar
     7     5     6    1
     8     6     7   ar
     9     6    11   ar
    10     7     8   ar
    11     8     9   ar
    12     9    10   ar
    13    10    11   ar
    14    12    13   am
    15    13    14    2
    16    13    15    1
    17    15    16    1
    18    16    17    1
    19    17    18   ar
    20    17    21   ar
    21    18    19   ar
    22    19    20   ar
    23    19    22    1
    24    20    21   ar
