@<TRIPOS>MOLECULE
31779_ChemDiv_5264-1013
 22 24 0 0 0
SMALL
GASTEIGER
Energy = 0

@<TRIPOS>ATOM
      1 C          -0.3040   -2.0630    0.0000 C.2     1  LIG1        0.3435
      2 N           0.7830   -1.7790    0.0000 N.am    1  LIG1       -0.1610
      3 C           1.0380   -0.8170    0.0000 C.ar    1  LIG1        0.0749
      4 C           1.9960   -0.5630    0.0000 C.ar    1  LIG1        0.0154
      5 C           2.2630    0.3960    0.0000 C.ar    1  LIG1        0.0013
      6 C           1.5630    1.1040    0.0000 C.ar    1  LIG1        0.0001
      7 C           0.6000    0.8540    0.0000 C.ar    1  LIG1        0.0013
      8 C           0.3420   -0.1040    0.0000 C.ar    1  LIG1        0.0166
      9 C           3.2210    0.6580    0.0000 C.ar    1  LIG1        0.0000
     10 C           3.9170   -0.0540    0.0000 C.ar    1  LIG1        0.0000
     11 C           3.6630   -1.0170    0.0000 C.ar    1  LIG1        0.0000
     12 C           2.7040   -1.2670    0.0000 C.ar    1  LIG1        0.0013
     13 O          -0.3040   -3.0540    0.0000 O.2     1  LIG1       -0.2488
     14 N          -1.1000   -1.4580    0.0000 N.am    1  LIG1       -0.1869
     15 C          -0.9670   -0.4710    0.0000 C.3     1  LIG1        0.1188
     16 C          -1.7540    0.1420    0.0000 C.3     1  LIG1        0.0480
     17 C          -1.6210    1.1210    0.0000 C.3     1  LIG1        0.1095
     18 N          -2.4080    1.7330    0.0000 N.ar    1  LIG1       -0.3078
     19 C          -2.3750    2.7250    0.0000 C.ar    1  LIG1        0.1786
     20 N          -3.3210    3.0580    0.0000 N.ar    1  LIG1       -0.2223
     21 C          -3.9210    2.2670    0.0000 C.ar    1  LIG1        0.1193
     22 C          -3.3580    1.4500    0.0000 C.ar    1  LIG1        0.0980
@<TRIPOS>BOND
     1     1     2   am
     2     1    13    2
     3     1    14   am
     4     2     3    1
     5     3     4   ar
     6     3     8   ar
     7     4     5   ar
     8     4    12   ar
     9     5     6   ar
    10     5     9   ar
    11     6     7   ar
    12     7     8   ar
    13     9    10   ar
    14    10    11   ar
    15    11    12   ar
    16    14    15    1
    17    15    16    1
    18    16    17    1
    19    17    18    1
    20    18    19   ar
    21    18    22   ar
    22    19    20   ar
    23    20    21   ar
    24    21    22   ar
