@<TRIPOS>MOLECULE
31773_ChemDiv_5400-0816
 15 16 0 0 0
SMALL
GASTEIGER
Energy = 0

@<TRIPOS>ATOM
      1 N           1.1630   -0.0540    0.0000 N.ar    1  LIG1       -0.1577
      2 C           1.1630   -0.9750    0.0000 C.ar    1  LIG1        0.2329
      3 S           0.3790   -1.4290    0.0000 S.2     1  LIG1        0.2386
      4 N          -0.4130   -0.9750    0.0000 N.ar    1  LIG1       -0.1062
      5 C          -0.4130   -0.0540    0.0000 C.ar    1  LIG1        0.3249
      6 C          -1.1170    0.6580    0.0000 C.ar    1  LIG1        0.0846
      7 C          -0.8580    1.6250    0.0000 C.ar    1  LIG1        0.0077
      8 C          -1.5580    2.3380    0.0000 C.ar    1  LIG1        0.0003
      9 C          -2.5420    2.0750    0.0000 C.ar    1  LIG1        0.0000
     10 C          -2.7920    1.0960    0.0000 C.ar    1  LIG1        0.0003
     11 C          -2.0830    0.3920    0.0000 C.ar    1  LIG1        0.0077
     12 C          -1.2380   -1.4420    0.0000 C.3     1  LIG1        0.4186
     13 N           1.9500   -1.4290    0.0000 N.pl3   1  LIG1       -0.2801
     14 C           1.9500   -2.3330    0.0000 C.3     1  LIG1        0.1143
     15 C           2.7880   -0.9460    0.0000 C.3     1  LIG1        0.1143
@<TRIPOS>BOND
     1     1     2   ar
     2     1     5   ar
     3     2     3   ar
     4     2    13    1
     5     3     4   ar
     6     4     5   ar
     7     4    12    1
     8     5     6    1
     9     6     7   ar
    10     6    11   ar
    11     7     8   ar
    12     8     9   ar
    13     9    10   ar
    14    10    11   ar
    15    13    14    1
    16    13    15    1
