@<TRIPOS>MOLECULE
31772_ChemDiv_5436-0821
 21 24 0 0 0
SMALL
GASTEIGER
Energy = 0

@<TRIPOS>ATOM
      1 C          -1.7960    0.9830    0.0000 C.ar    1  LIG1        0.0406
      2 C          -0.8540    1.2880    0.0000 C.ar    1  LIG1        0.0378
      3 C          -0.8540    2.2830    0.0000 C.ar    1  LIG1        0.1485
      4 O          -1.7960    2.5880    0.0000 O.2     1  LIG1       -0.4503
      5 C          -2.3960    1.7880    0.0000 C.ar    1  LIG1        0.1795
      6 C           0.0130    2.7880    0.0000 C.ar    1  LIG1        0.0750
      7 C           0.8920    2.2830    0.0000 C.ar    1  LIG1        0.1517
      8 O           1.7420    2.7880    0.0000 O.2     1  LIG1       -0.4209
      9 C           2.6130    2.2830    0.0000 C.ar    1  LIG1        0.3459
     10 C           2.6130    1.2880    0.0000 C.ar    1  LIG1        0.0824
     11 C           1.7420    0.7960    0.0000 C.ar    1  LIG1        0.0097
     12 C           0.8920    1.2880    0.0000 C.ar    1  LIG1        0.0351
     13 C           0.0130    0.7960    0.0000 C.ar    1  LIG1        0.0062
     14 O           3.4880    2.7880    0.0000 O.2     1  LIG1       -0.2445
     15 C          -2.1630    0.0500    0.0000 C.ar    1  LIG1        0.0032
     16 C          -3.1420   -0.1130    0.0000 C.ar    1  LIG1        0.0010
     17 C          -3.4920   -1.0580    0.0000 C.ar    1  LIG1        0.0114
     18 C          -2.8630   -1.8290    0.0000 C.ar    1  LIG1        0.0577
     19 C          -1.8750   -1.6630    0.0000 C.ar    1  LIG1        0.0114
     20 C          -1.5210   -0.7290    0.0000 C.ar    1  LIG1        0.0010
     21 CL         -3.2040   -2.7830    0.0000 Cl      1  LIG1       -0.0822
@<TRIPOS>BOND
     1     1     2   ar
     2     1     5   ar
     3     1    15    1
     4     2     3   ar
     5     2    13   ar
     6     3     4   ar
     7     3     6   ar
     8     4     5   ar
     9     6     7   ar
    10     7     8   ar
    11     7    12   ar
    12     8     9   ar
    13     9    10   ar
    14     9    14    2
    15    10    11   ar
    16    11    12   ar
    17    12    13   ar
    18    15    16   ar
    19    15    20   ar
    20    16    17   ar
    21    17    18   ar
    22    18    19   ar
    23    18    21    1
    24    19    20   ar
