@<TRIPOS>MOLECULE
31778_ChemDiv_6299-0100
 20 21 0 0 0
SMALL
GASTEIGER
Energy = 0

@<TRIPOS>ATOM
      1 C          -1.3000    0.0040    0.0000 C.3     1  LIG1        0.1131
      2 C          -0.4290   -0.4920    0.0000 C.2     1  LIG1        0.3201
      3 O          -0.4290   -1.4920    0.0000 O.2     1  LIG1       -0.2498
      4 O           0.4330    0.0040    0.0000 O.3     1  LIG1       -0.4417
      5 C           1.2960   -0.4920    0.0000 C.3     1  LIG1        0.2705
      6 C           2.1670    0.0040    0.0000 C.3     1  LIG1        0.1874
      7 N           3.0290   -0.4920    0.0000 N.4     1  LIG1        0.3897
      8 C           3.8920    0.0040    0.0000 C.3     1  LIG1        0.2027
      9 C           3.0290    0.5080    0.0000 C.3     1  LIG1        0.2027
     10 C          -2.1670   -0.4960    0.0000 C.ar    1  LIG1       -0.0126
     11 C          -2.1670   -1.5000    0.0000 C.ar    1  LIG1       -0.0038
     12 C          -3.0330   -2.0000    0.0000 C.ar    1  LIG1       -0.0003
     13 C          -3.8960   -1.5000    0.0000 C.ar    1  LIG1       -0.0000
     14 C          -3.8960   -0.4960    0.0000 C.ar    1  LIG1       -0.0003
     15 C          -3.0330    0.0040    0.0000 C.ar    1  LIG1       -0.0038
     16 C          -2.1670    0.5080    0.0000 C.3     1  LIG1        0.0468
     17 C          -2.1670    1.5080    0.0000 C.3     1  LIG1        0.1430
     18 O          -1.3000    2.0040    0.0000 O.3     1  LIG1       -0.3537
     19 C          -0.4290    1.5080    0.0000 C.3     1  LIG1        0.1430
     20 C          -0.4290    0.5080    0.0000 C.3     1  LIG1        0.0468
@<TRIPOS>BOND
     1     1     2    1
     2     1    10    1
     3     1    16    1
     4     1    20    1
     5     2     3    2
     6     2     4    1
     7     4     5    1
     8     5     6    1
     9     6     7    1
    10     7     8    1
    11     7     9    1
    12    10    11   ar
    13    10    15   ar
    14    11    12   ar
    15    12    13   ar
    16    13    14   ar
    17    14    15   ar
    18    16    17    1
    19    17    18    1
    20    18    19    1
    21    19    20    1
