@<TRIPOS>MOLECULE
31776_ChemDiv_5436-0923
 28 32 0 0 0
SMALL
GASTEIGER
Energy = 0

@<TRIPOS>ATOM
      1 C           1.7420    1.1750    0.0000 C.ar    1  LIG1        0.0094
      2 C           0.8710    1.6750    0.0000 C.ar    1  LIG1        0.0351
      3 C           0.8710    2.6830    0.0000 C.ar    1  LIG1        0.1517
      4 O           1.7420    3.1670    0.0000 O.2     1  LIG1       -0.4209
      5 C           2.6080    2.6830    0.0000 C.ar    1  LIG1        0.3459
      6 C           2.6080    1.6750    0.0000 C.ar    1  LIG1        0.0824
      7 O           3.4750    3.1670    0.0000 O.2     1  LIG1       -0.2445
      8 C           0.0040    3.1670    0.0000 C.ar    1  LIG1        0.0750
      9 C          -0.8500    2.6830    0.0000 C.ar    1  LIG1        0.1485
     10 C          -0.8500    1.6750    0.0000 C.ar    1  LIG1        0.0378
     11 C          -1.8130    1.3710    0.0000 C.ar    1  LIG1        0.0406
     12 C          -2.4040    2.1830    0.0000 C.ar    1  LIG1        0.1795
     13 O          -1.8130    2.9880    0.0000 O.2     1  LIG1       -0.4503
     14 C          -2.1630    0.4420    0.0000 C.ar    1  LIG1        0.0033
     15 C          -1.5170   -0.3420    0.0000 C.ar    1  LIG1        0.0032
     16 C          -1.8750   -1.2710    0.0000 C.ar    1  LIG1        0.0369
     17 C          -2.8500   -1.4380    0.0000 C.ar    1  LIG1        0.1387
     18 C          -3.4790   -0.6500    0.0000 C.ar    1  LIG1        0.0369
     19 C          -3.1460    0.2670    0.0000 C.ar    1  LIG1        0.0032
     20 O          -3.2080   -2.3880    0.0000 O.3     1  LIG1       -0.4714
     21 C          -2.5580   -3.1630    0.0000 C.3     1  LIG1        0.2525
     22 C           0.0040    1.1750    0.0000 C.ar    1  LIG1        0.0062
     23 C           1.7420    0.1830    0.0000 C.ar    1  LIG1        0.0003
     24 C           0.8710   -0.3170    0.0000 C.ar    1  LIG1        0.0000
     25 C           0.8710   -1.3170    0.0000 C.ar    1  LIG1        0.0000
     26 C           1.7330   -1.8170    0.0000 C.ar    1  LIG1        0.0000
     27 C           2.6080   -1.3130    0.0000 C.ar    1  LIG1        0.0000
     28 C           2.6080   -0.3170    0.0000 C.ar    1  LIG1        0.0000
@<TRIPOS>BOND
     1     1     2   ar
     2     1     6   ar
     3     1    23    1
     4     2     3   ar
     5     2    22   ar
     6     3     4   ar
     7     3     8   ar
     8     4     5   ar
     9     5     6   ar
    10     5     7    2
    11     8     9   ar
    12     9    10   ar
    13     9    13   ar
    14    10    11   ar
    15    10    22   ar
    16    11    12   ar
    17    11    14    1
    18    12    13   ar
    19    14    15   ar
    20    14    19   ar
    21    15    16   ar
    22    16    17   ar
    23    17    18   ar
    24    17    20    1
    25    18    19   ar
    26    20    21    1
    27    23    24   ar
    28    23    28   ar
    29    24    25   ar
    30    25    26   ar
    31    26    27   ar
    32    27    28   ar
