@<TRIPOS>MOLECULE
31783_ChemDiv_5293-0002
 31 35 0 0 0
SMALL
GASTEIGER
Energy = 0

@<TRIPOS>ATOM
      1 S           3.0330    0.3830    0.0000 S.O2    1  LIG1        0.0633
      2 C           2.5290   -0.5040    0.0000 C.ar    1  LIG1        0.1224
      3 C           1.5500   -0.5040    0.0000 C.ar    1  LIG1        0.0230
      4 C           1.0330   -1.3630    0.0000 C.ar    1  LIG1        0.0389
      5 C           0.0750   -1.5880    0.0000 C.ar    1  LIG1        0.0389
      6 C          -0.0080   -2.5790    0.0000 C.ar    1  LIG1        0.1454
      7 O           0.8630   -2.9960    0.0000 O.2     1  LIG1       -0.4535
      8 C           1.5500   -2.2330    0.0000 C.ar    1  LIG1        0.1454
      9 C           2.5290   -2.2330    0.0000 C.ar    1  LIG1        0.0389
     10 C           3.0330   -1.3630    0.0000 C.ar    1  LIG1        0.0230
     11 C          -0.9290   -2.9960    0.0000 C.ar    1  LIG1        0.0389
     12 C          -1.7330   -2.4420    0.0000 C.ar    1  LIG1        0.0230
     13 C          -1.6460   -1.4500    0.0000 C.ar    1  LIG1        0.1224
     14 S          -2.5130   -0.8920    0.0000 S.O2    1  LIG1        0.0633
     15 N          -3.3460   -0.3380    0.0000 N.3     1  LIG1       -0.1555
     16 C          -4.2380   -0.7830    0.0000 C.3     1  LIG1        0.0958
     17 C          -5.0710   -0.2250    0.0000 C.3     1  LIG1        0.0192
     18 C          -4.9830    0.7540    0.0000 C.3     1  LIG1        0.0030
     19 C          -4.1290    1.2170    0.0000 C.3     1  LIG1        0.0192
     20 C          -3.2920    0.6710    0.0000 C.3     1  LIG1        0.0958
     21 O          -3.0670   -1.7580    0.0000 O.2     1  LIG1       -0.1528
     22 O          -1.9540   -0.0580    0.0000 O.2     1  LIG1       -0.1528
     23 C          -0.7630   -1.0330    0.0000 C.ar    1  LIG1        0.0230
     24 N           3.5670    1.2460    0.0000 N.3     1  LIG1       -0.1555
     25 C           3.0790    2.1420    0.0000 C.3     1  LIG1        0.0958
     26 C           3.5670    3.0000    0.0000 C.3     1  LIG1        0.0192
     27 C           4.5630    2.9710    0.0000 C.3     1  LIG1        0.0030
     28 C           5.0670    2.1130    0.0000 C.3     1  LIG1        0.0192
     29 C           4.5630    1.2460    0.0000 C.3     1  LIG1        0.0958
     30 O           2.1750    0.8880    0.0000 O.2     1  LIG1       -0.1528
     31 O           3.9210   -0.1460    0.0000 O.2     1  LIG1       -0.1528
@<TRIPOS>BOND
     1     1     2    1
     2     1    24    1
     3     1    30    2
     4     1    31    2
     5     2     3   ar
     6     2    10   ar
     7     3     4   ar
     8     4     5   ar
     9     4     8   ar
    10     5     6   ar
    11     5    23   ar
    12     6     7   ar
    13     6    11   ar
    14     7     8   ar
    15     8     9   ar
    16     9    10   ar
    17    11    12   ar
    18    12    13   ar
    19    13    14    1
    20    13    23   ar
    21    14    15    1
    22    14    21    2
    23    14    22    2
    24    15    16    1
    25    15    20    1
    26    16    17    1
    27    17    18    1
    28    18    19    1
    29    19    20    1
    30    24    25    1
    31    24    29    1
    32    25    26    1
    33    26    27    1
    34    27    28    1
    35    28    29    1
