@<TRIPOS>MOLECULE
31780_ChemDiv_5504-0492
 17 18 0 0 0
SMALL
GASTEIGER
Energy = 0

@<TRIPOS>ATOM
      1 C1         -0.0130   -0.9500    0.0000 C.ar    1  <1>         0.1703
      2 C2         -0.0130   -1.9130    0.0000 C.ar    1  <1>         0.2528
      3 N1         -0.8420   -2.3960    0.0000 N.ar    1  <1>        -0.1950
      4 C3         -1.6580   -1.9130    0.0000 C.ar    1  <1>         0.1442
      5 N2         -1.6790   -0.9540    0.0000 N.ar    1  <1>        -0.2128
      6 C4         -0.8540   -0.4670    0.0000 C.ar    1  <1>         0.1716
      7 N3         -0.8540    0.5040    0.0000 N.pl3   1  <1>        -0.2150
      8 C5         -0.0380    0.9710    0.0000 C.3     1  <1>         0.1302
      9 C6         -0.0380    1.9330    0.0000 C.2     1  <1>         0.0701
     10 O1         -0.8670    2.4080    0.0000 O.co2   1  <1>        -0.5474
     11 O2          0.7880    2.4130    0.0000 O.co2   1  <1>        -0.5474
     12 C7          0.8000    0.5080    0.0000 C.3     1  <1>         0.0295
     13 C8         -2.5000   -2.4080    0.0000 C.3     1  <1>         0.0738
     14 O3          0.8250   -2.3960    0.0000 O.2     1  <1>        -0.4208
     15 C9          1.6670   -1.9130    0.0000 C.ar    1  <1>         0.2082
     16 N4          1.6540   -0.9500    0.0000 N.ar    1  <1>        -0.2074
     17 C10         2.4960   -2.3880    0.0000 C.3     1  <1>         0.0951
@<TRIPOS>BOND
     1     1     2   ar
     2     1     6   ar
     3     1    16   ar
     4     2     3   ar
     5     2    14   ar
     6     3     4   ar
     7     4     5   ar
     8     4    13    1
     9     5     6   ar
    10     6     7    1
    11     7     8    1
    12     8     9    1
    13     8    12    1
    14     9    10   ar
    15     9    11   ar
    16    14    15   ar
    17    15    16   ar
    18    15    17    1
