@<TRIPOS>MOLECULE
31787_ChemDiv_6006-0049
 33 37 0 0 0
SMALL
GASTEIGER
Energy = 0

@<TRIPOS>ATOM
      1 S          -2.2330   -1.4170    0.0000 S.O2    1  LIG1        0.0633
      2 C          -1.3750   -1.9250    0.0000 C.ar    1  LIG1        0.1224
      3 C          -0.4880   -1.4170    0.0000 C.ar    1  LIG1        0.0230
      4 C           0.3630   -1.9250    0.0000 C.ar    1  LIG1        0.0389
      5 C           1.3080   -1.6130    0.0000 C.ar    1  LIG1        0.0389
      6 C           1.8880   -2.4170    0.0000 C.ar    1  LIG1        0.1454
      7 O           1.3080   -3.2170    0.0000 O.2     1  LIG1       -0.4535
      8 C           0.3630   -2.9130    0.0000 C.ar    1  LIG1        0.1454
      9 C          -0.4880   -3.4130    0.0000 C.ar    1  LIG1        0.0389
     10 C          -1.3750   -2.9130    0.0000 C.ar    1  LIG1        0.0230
     11 C           2.8960   -2.3250    0.0000 C.ar    1  LIG1        0.0389
     12 C           3.3040   -1.4040    0.0000 C.ar    1  LIG1        0.0230
     13 C           2.7210   -0.5960    0.0000 C.ar    1  LIG1        0.1224
     14 S           3.1380    0.3330    0.0000 S.O2    1  LIG1        0.0633
     15 N           3.5460    1.2540    0.0000 N.3     1  LIG1       -0.1555
     16 C           4.5460    1.1960    0.0000 C.3     1  LIG1        0.0958
     17 C           5.1960    1.9420    0.0000 C.3     1  LIG1        0.0191
     18 C           5.0170    2.9080    0.0000 C.3     1  LIG1        0.0015
     19 C           4.1500    3.4170    0.0000 C.3     1  LIG1        0.0015
     20 C           3.2170    3.0130    0.0000 C.3     1  LIG1        0.0191
     21 C           2.9540    2.0630    0.0000 C.3     1  LIG1        0.0958
     22 O           2.2170    0.7330    0.0000 O.2     1  LIG1       -0.1528
     23 O           4.0500   -0.0880    0.0000 O.2     1  LIG1       -0.1528
     24 C           1.7210   -0.6920    0.0000 C.ar    1  LIG1        0.0230
     25 N          -3.1080   -0.9210    0.0000 N.3     1  LIG1       -0.1555
     26 C          -2.9670    0.0670    0.0000 C.3     1  LIG1        0.0958
     27 C          -3.6460    0.7920    0.0000 C.3     1  LIG1        0.0191
     28 C          -4.6380    0.7130    0.0000 C.3     1  LIG1        0.0015
     29 C          -5.2000   -0.1290    0.0000 C.3     1  LIG1        0.0015
     30 C          -4.9000   -1.0710    0.0000 C.3     1  LIG1        0.0191
     31 C          -3.9710   -1.4170    0.0000 C.3     1  LIG1        0.0958
     32 O          -1.7380   -0.5500    0.0000 O.2     1  LIG1       -0.1528
     33 O          -2.7380   -2.3040    0.0000 O.2     1  LIG1       -0.1528
@<TRIPOS>BOND
     1     1     2    1
     2     1    25    1
     3     1    32    2
     4     1    33    2
     5     2     3   ar
     6     2    10   ar
     7     3     4   ar
     8     4     5   ar
     9     4     8   ar
    10     5     6   ar
    11     5    24   ar
    12     6     7   ar
    13     6    11   ar
    14     7     8   ar
    15     8     9   ar
    16     9    10   ar
    17    11    12   ar
    18    12    13   ar
    19    13    14    1
    20    13    24   ar
    21    14    15    1
    22    14    22    2
    23    14    23    2
    24    15    16    1
    25    15    21    1
    26    16    17    1
    27    17    18    1
    28    18    19    1
    29    19    20    1
    30    20    21    1
    31    25    26    1
    32    25    31    1
    33    26    27    1
    34    27    28    1
    35    28    29    1
    36    29    30    1
    37    30    31    1
