@<TRIPOS>MOLECULE
31789_ChemDiv_6596-0389
 33 37 0 0 0
SMALL
GASTEIGER
Energy = 0

@<TRIPOS>ATOM
      1 S           3.4960    0.8000    0.0000 S.O2    1  LIG1        0.0633
      2 C           2.4960    0.8000    0.0000 C.ar    1  LIG1        0.1224
      3 C           2.0000   -0.0580    0.0000 C.ar    1  LIG1        0.0264
      4 C           0.9920   -0.0580    0.0000 C.ar    1  LIG1        0.0775
      5 C           0.4960   -0.9290    0.0000 C.ar    1  LIG1        0.3457
      6 O          -0.5040   -0.9290    0.0000 O.2     1  LIG1       -0.4210
      7 C          -1.0040   -0.0580    0.0000 C.ar    1  LIG1        0.1500
      8 C          -0.5040    0.8000    0.0000 C.ar    1  LIG1        0.0350
      9 C           0.4960    0.8000    0.0000 C.ar    1  LIG1        0.0093
     10 C           0.9920    1.6670    0.0000 C.ar    1  LIG1        0.0017
     11 C           2.0000    1.6670    0.0000 C.ar    1  LIG1        0.0199
     12 C          -1.0040    1.6670    0.0000 C.ar    1  LIG1        0.0044
     13 C          -2.0040    1.6670    0.0000 C.ar    1  LIG1        0.0201
     14 C          -2.5000    0.8000    0.0000 C.ar    1  LIG1        0.1252
     15 S          -3.5000    0.8000    0.0000 S.O2    1  LIG1        0.0634
     16 N          -4.4960    0.8000    0.0000 N.3     1  LIG1       -0.1555
     17 C          -5.0000    1.6670    0.0000 C.3     1  LIG1        0.0958
     18 C          -6.0040    1.6670    0.0000 C.3     1  LIG1        0.0192
     19 C          -6.4960    0.8000    0.0000 C.3     1  LIG1        0.0030
     20 C          -6.0040   -0.0580    0.0000 C.3     1  LIG1        0.0192
     21 C          -5.0000   -0.0580    0.0000 C.3     1  LIG1        0.0958
     22 O          -3.5000    1.8000    0.0000 O.2     1  LIG1       -0.1528
     23 O          -3.5000   -0.1960    0.0000 O.2     1  LIG1       -0.1528
     24 C          -2.0040   -0.0580    0.0000 C.ar    1  LIG1        0.0575
     25 O           1.0130   -1.7960    0.0000 O.2     1  LIG1       -0.2445
     26 N           4.4920    0.8000    0.0000 N.3     1  LIG1       -0.1555
     27 C           4.9960   -0.0670    0.0000 C.3     1  LIG1        0.0958
     28 C           5.9960   -0.0670    0.0000 C.3     1  LIG1        0.0192
     29 C           6.4960    0.8000    0.0000 C.3     1  LIG1        0.0030
     30 C           5.9960    1.6670    0.0000 C.3     1  LIG1        0.0192
     31 C           4.9960    1.6670    0.0000 C.3     1  LIG1        0.0958
     32 O           3.4960   -0.1960    0.0000 O.2     1  LIG1       -0.1528
     33 O           3.4960    1.8000    0.0000 O.2     1  LIG1       -0.1528
@<TRIPOS>BOND
     1     1     2    1
     2     1    26    1
     3     1    32    2
     4     1    33    2
     5     2     3   ar
     6     2    11   ar
     7     3     4   ar
     8     4     5   ar
     9     4     9   ar
    10     5     6   ar
    11     5    25    2
    12     6     7   ar
    13     7     8   ar
    14     7    24   ar
    15     8     9   ar
    16     8    12   ar
    17     9    10   ar
    18    10    11   ar
    19    12    13   ar
    20    13    14   ar
    21    14    15    1
    22    14    24   ar
    23    15    16    1
    24    15    22    2
    25    15    23    2
    26    16    17    1
    27    16    21    1
    28    17    18    1
    29    18    19    1
    30    19    20    1
    31    20    21    1
    32    26    27    1
    33    26    31    1
    34    27    28    1
    35    28    29    1
    36    29    30    1
    37    30    31    1
