@<TRIPOS>MOLECULE
31785_ChemDiv_6006-0048
 29 33 0 0 0
SMALL
GASTEIGER
Energy = 0

@<TRIPOS>ATOM
      1 S          -2.1170   -1.1380    0.0000 S.O2    1  LIG1        0.0633
      2 C          -1.2670   -1.6380    0.0000 C.ar    1  LIG1        0.1224
      3 C          -0.3920   -1.1380    0.0000 C.ar    1  LIG1        0.0230
      4 C           0.4790   -1.6380    0.0000 C.ar    1  LIG1        0.0389
      5 C           1.4040   -1.3330    0.0000 C.ar    1  LIG1        0.0389
      6 C           1.9920   -2.1460    0.0000 C.ar    1  LIG1        0.1454
      7 O           1.4040   -2.9460    0.0000 O.2     1  LIG1       -0.4535
      8 C           0.4790   -2.6420    0.0000 C.ar    1  LIG1        0.1454
      9 C          -0.3920   -3.1290    0.0000 C.ar    1  LIG1        0.0389
     10 C          -1.2670   -2.6420    0.0000 C.ar    1  LIG1        0.0230
     11 C           3.0000   -2.0420    0.0000 C.ar    1  LIG1        0.0389
     12 C           3.3960   -1.1330    0.0000 C.ar    1  LIG1        0.0230
     13 C           2.8330   -0.3080    0.0000 C.ar    1  LIG1        0.1224
     14 S           3.2420    0.6130    0.0000 S.O2    1  LIG1        0.0633
     15 N           3.6380    1.5250    0.0000 N.3     1  LIG1       -0.1555
     16 C           4.6040    1.8250    0.0000 C.3     1  LIG1        0.0958
     17 C           4.6040    2.8330    0.0000 C.3     1  LIG1        0.0206
     18 C           3.6540    3.1330    0.0000 C.3     1  LIG1        0.0206
     19 C           3.0580    2.3500    0.0000 C.3     1  LIG1        0.0958
     20 O           2.3080    1.0210    0.0000 O.2     1  LIG1       -0.1528
     21 O           4.1630    0.1920    0.0000 O.2     1  LIG1       -0.1528
     22 C           1.8250   -0.4130    0.0000 C.ar    1  LIG1        0.0230
     23 N          -3.0040   -0.6500    0.0000 N.3     1  LIG1       -0.1555
     24 C          -3.2040    0.3330    0.0000 C.3     1  LIG1        0.0958
     25 C          -4.2130    0.4330    0.0000 C.3     1  LIG1        0.0206
     26 C          -4.6080   -0.4750    0.0000 C.3     1  LIG1        0.0206
     27 C          -3.8630   -1.1380    0.0000 C.3     1  LIG1        0.0958
     28 O          -1.6290   -0.2710    0.0000 O.2     1  LIG1       -0.1528
     29 O          -2.4790   -2.0580    0.0000 O.2     1  LIG1       -0.1528
@<TRIPOS>BOND
     1     1     2    1
     2     1    23    1
     3     1    28    2
     4     1    29    2
     5     2     3   ar
     6     2    10   ar
     7     3     4   ar
     8     4     5   ar
     9     4     8   ar
    10     5     6   ar
    11     5    22   ar
    12     6     7   ar
    13     6    11   ar
    14     7     8   ar
    15     8     9   ar
    16     9    10   ar
    17    11    12   ar
    18    12    13   ar
    19    13    14    1
    20    13    22   ar
    21    14    15    1
    22    14    20    2
    23    14    21    2
    24    15    16    1
    25    15    19    1
    26    16    17    1
    27    17    18    1
    28    18    19    1
    29    23    24    1
    30    23    27    1
    31    24    25    1
    32    25    26    1
    33    26    27    1
