@<TRIPOS>MOLECULE
31784_ChemDiv_5506-0212
 19 22 0 0 0
SMALL
GASTEIGER
Energy = 0

@<TRIPOS>ATOM
      1 C          -0.7170   -0.1630    0.0000 C.ar    1  LIG1        0.1717
      2 C          -1.5290   -0.6330    0.0000 C.ar    1  LIG1        0.0923
      3 C          -1.5170   -1.5710    0.0000 C.ar    1  LIG1        0.1657
      4 N          -0.7040   -2.0420    0.0000 N.ar    1  LIG1       -0.2050
      5 C           0.1040   -1.5710    0.0000 C.ar    1  LIG1        0.2029
      6 N           0.1040   -0.6420    0.0000 N.ar    1  LIG1       -0.1900
      7 N           0.9130   -0.1790    0.0000 N.ar    1  LIG1       -0.1428
      8 C           0.9130    0.7670    0.0000 C.ar    1  LIG1        0.1836
      9 N          -0.7040    0.7670    0.0000 N.ar    1  LIG1       -0.2058
     10 C           1.5830    1.4290    0.0000 C.ar    1  LIG1        0.0406
     11 C           1.3290    2.3250    0.0000 C.ar    1  LIG1        0.0238
     12 C           1.9960    3.0000    0.0000 C.ar    1  LIG1        0.0990
     13 N           2.9040    2.7540    0.0000 N.ar    1  LIG1       -0.2423
     14 C           3.1380    1.8420    0.0000 C.ar    1  LIG1        0.0990
     15 C           2.4830    1.1790    0.0000 C.ar    1  LIG1        0.0238
     16 N          -2.3250   -2.0540    0.0000 N.ar    1  LIG1       -0.2318
     17 N          -3.1420   -1.5880    0.0000 N.ar    1  LIG1       -0.1662
     18 C          -3.1420   -0.6420    0.0000 C.ar    1  LIG1        0.1263
     19 C          -2.3250   -2.9960    0.0000 C.3     1  LIG1        0.1554
@<TRIPOS>BOND
     1     1     2   ar
     2     1     6   ar
     3     1     9   ar
     4     2     3   ar
     5     2    18   ar
     6     3     4   ar
     7     3    16   ar
     8     4     5   ar
     9     5     6   ar
    10     6     7   ar
    11     7     8   ar
    12     8     9   ar
    13     8    10    1
    14    10    11   ar
    15    10    15   ar
    16    11    12   ar
    17    12    13   ar
    18    13    14   ar
    19    14    15   ar
    20    16    17   ar
    21    16    19    1
    22    17    18   ar
