@<TRIPOS>MOLECULE
31792_ChemDiv_C736-0229
 33 38 0 0 0
SMALL
GASTEIGER
Energy = 0

@<TRIPOS>ATOM
      1 N           0.5540    1.6500    0.0000 N.ar    1  LIG1       -0.1795
      2 C          -0.3080    2.1500    0.0000 C.ar    1  LIG1        0.1697
      3 N          -0.0960    3.1330    0.0000 N.ar    1  LIG1       -0.2059
      4 C           0.9130    3.2420    0.0000 C.ar    1  LIG1        0.1851
      5 N           1.3040    2.3170    0.0000 N.ar    1  LIG1       -0.1418
      6 C           1.4130    4.1000    0.0000 C.ar    1  LIG1        0.0567
      7 C           2.4080    4.1000    0.0000 C.ar    1  LIG1        0.1019
      8 N           2.9130    4.9460    0.0000 N.ar    1  LIG1       -0.2422
      9 C           2.4250    5.8250    0.0000 C.ar    1  LIG1        0.0989
     10 C           1.4170    5.8250    0.0000 C.ar    1  LIG1        0.0208
     11 C           0.9170    4.9630    0.0000 C.ar    1  LIG1        0.0063
     12 C          -1.1790    1.6500    0.0000 C.ar    1  LIG1        0.0537
     13 C          -1.1790    0.6380    0.0000 C.ar    1  LIG1        0.0872
     14 N          -0.3080    0.1380    0.0000 N.ar    1  LIG1       -0.2123
     15 C           0.5540    0.6380    0.0000 C.ar    1  LIG1        0.2390
     16 N           1.4170    0.1540    0.0000 N.pl3   1  LIG1       -0.2051
     17 C           1.4290   -0.8290    0.0000 C.3     1  LIG1        0.1074
     18 C           0.5790   -1.3420    0.0000 C.3     1  LIG1        0.0845
     19 C           0.5830   -2.3290    0.0000 C.3     1  LIG1        0.1408
     20 N           1.4460   -2.8290    0.0000 N.4     1  LIG1        0.3808
     21 C           1.4460   -3.8250    0.0000 C.3     1  LIG1        0.1662
     22 C           0.5830   -4.3250    0.0000 C.ar    1  LIG1        0.0344
     23 C          -0.2790   -3.8250    0.0000 C.ar    1  LIG1        0.0014
     24 C          -1.1420   -4.3250    0.0000 C.ar    1  LIG1       -0.0001
     25 C          -1.1330   -5.3330    0.0000 C.ar    1  LIG1       -0.0000
     26 C          -0.2630   -5.8250    0.0000 C.ar    1  LIG1       -0.0001
     27 C           0.6000   -5.3250    0.0000 C.ar    1  LIG1        0.0014
     28 C           2.3080   -2.3250    0.0000 C.3     1  LIG1        0.1408
     29 C           2.2920   -1.3290    0.0000 C.3     1  LIG1        0.0845
     30 C          -2.0500    0.1380    0.0000 C.ar    1  LIG1        0.0193
     31 C          -2.9170    0.6380    0.0000 C.ar    1  LIG1        0.0015
     32 C          -2.9170    1.6500    0.0000 C.ar    1  LIG1        0.0002
     33 C          -2.0500    2.1500    0.0000 C.ar    1  LIG1        0.0046
@<TRIPOS>BOND
     1     1     2   ar
     2     1     5   ar
     3     1    15   ar
     4     2     3   ar
     5     2    12   ar
     6     3     4   ar
     7     4     5   ar
     8     4     6    1
     9     6     7   ar
    10     6    11   ar
    11     7     8   ar
    12     8     9   ar
    13     9    10   ar
    14    10    11   ar
    15    12    13   ar
    16    12    33   ar
    17    13    14   ar
    18    13    30   ar
    19    14    15   ar
    20    15    16    1
    21    16    17    1
    22    17    18    1
    23    17    29    1
    24    18    19    1
    25    19    20    1
    26    20    21    1
    27    20    28    1
    28    21    22    1
    29    22    23   ar
    30    22    27   ar
    31    23    24   ar
    32    24    25   ar
    33    25    26   ar
    34    26    27   ar
    35    28    29    1
    36    30    31   ar
    37    31    32   ar
    38    32    33   ar
