@<TRIPOS>MOLECULE
31790_ChemDiv_C736-0193
 28 32 0 0 0
SMALL
GASTEIGER
Energy = 0

@<TRIPOS>ATOM
      1 N          -0.4290   -0.0920    0.0000 N.ar    1  LIG1       -0.1807
      2 C          -1.2920    0.4170    0.0000 C.ar    1  LIG1        0.1697
      3 N          -1.0790    1.4000    0.0000 N.ar    1  LIG1       -0.2059
      4 C          -0.0710    1.5040    0.0000 C.ar    1  LIG1        0.1851
      5 N           0.3210    0.5830    0.0000 N.ar    1  LIG1       -0.1419
      6 C           0.4250    2.3670    0.0000 C.ar    1  LIG1        0.0567
      7 C           1.4290    2.3540    0.0000 C.ar    1  LIG1        0.1019
      8 N           1.9250    3.2130    0.0000 N.ar    1  LIG1       -0.2422
      9 C           1.4420    4.0830    0.0000 C.ar    1  LIG1        0.0989
     10 C           0.4290    4.0830    0.0000 C.ar    1  LIG1        0.0208
     11 C          -0.0670    3.2250    0.0000 C.ar    1  LIG1        0.0063
     12 C          -2.1500   -0.0920    0.0000 C.ar    1  LIG1        0.0537
     13 C          -2.1580   -1.0920    0.0000 C.ar    1  LIG1        0.0871
     14 N          -1.2920   -1.5920    0.0000 N.ar    1  LIG1       -0.2135
     15 C          -0.4290   -1.0920    0.0000 C.ar    1  LIG1        0.2226
     16 N           0.4290   -1.5880    0.0000 N.pl3   1  LIG1       -0.2781
     17 C           1.2920   -1.0790    0.0000 C.3     1  LIG1        0.0941
     18 C           2.1540   -1.5880    0.0000 C.3     1  LIG1        0.0307
     19 C           2.1540   -2.5830    0.0000 C.3     1  LIG1        0.0833
     20 C           3.0130   -3.0880    0.0000 C.2     1  LIG1        0.2604
     21 O           3.8830   -2.5880    0.0000 O.2     1  LIG1       -0.2717
     22 N           3.0130   -4.0830    0.0000 N.am    1  LIG1       -0.0878
     23 C           1.2920   -3.0830    0.0000 C.3     1  LIG1        0.0307
     24 C           0.4290   -2.5830    0.0000 C.3     1  LIG1        0.0941
     25 C          -3.0290   -1.5920    0.0000 C.ar    1  LIG1        0.0193
     26 C          -3.8880   -1.0920    0.0000 C.ar    1  LIG1        0.0015
     27 C          -3.8880   -0.0920    0.0000 C.ar    1  LIG1        0.0002
     28 C          -3.0290    0.4170    0.0000 C.ar    1  LIG1        0.0046
@<TRIPOS>BOND
     1     1     2   ar
     2     1     5   ar
     3     1    15   ar
     4     2     3   ar
     5     2    12   ar
     6     3     4   ar
     7     4     5   ar
     8     4     6    1
     9     6     7   ar
    10     6    11   ar
    11     7     8   ar
    12     8     9   ar
    13     9    10   ar
    14    10    11   ar
    15    12    13   ar
    16    12    28   ar
    17    13    14   ar
    18    13    25   ar
    19    14    15   ar
    20    15    16    1
    21    16    17    1
    22    16    24    1
    23    17    18    1
    24    18    19    1
    25    19    20    1
    26    19    23    1
    27    20    21    2
    28    20    22   am
    29    23    24    1
    30    25    26   ar
    31    26    27   ar
    32    27    28   ar
