@<TRIPOS>MOLECULE
31799_ChemDiv_6574-0471
 24 26 0 0 0
SMALL
GASTEIGER
Energy = 0

@<TRIPOS>ATOM
      1 N           0.1210    1.5460    0.0000 N.ar    1  LIG1       -0.2021
      2 C           0.9250    0.9540    0.0000 C.ar    1  LIG1        0.2050
      3 N           0.9250   -0.0420    0.0000 N.am    1  LIG1       -0.1493
      4 C           0.0580   -0.5380    0.0000 C.2     1  LIG1        0.2708
      5 C           0.0580   -1.5250    0.0000 C.ar    1  LIG1        0.0587
      6 C          -0.8040   -2.0380    0.0000 C.ar    1  LIG1        0.0446
      7 C          -0.8040   -3.0380    0.0000 C.ar    1  LIG1        0.1725
      8 C           0.0580   -3.5380    0.0000 C.ar    1  LIG1        0.1724
      9 C           0.9250   -3.0380    0.0000 C.ar    1  LIG1        0.0402
     10 C           0.9250   -2.0250    0.0000 C.ar    1  LIG1        0.0079
     11 O           0.0580   -4.5290    0.0000 O.3     1  LIG1       -0.4684
     12 C           0.9250   -5.0290    0.0000 C.3     1  LIG1        0.2526
     13 O          -1.6710   -3.5250    0.0000 O.3     1  LIG1       -0.4684
     14 C          -1.6710   -4.5290    0.0000 C.3     1  LIG1        0.2526
     15 O          -0.8040   -0.0420    0.0000 O.2     1  LIG1       -0.2679
     16 S           1.7420    1.5580    0.0000 S.2     1  LIG1        0.0513
     17 N           1.4250    2.5000    0.0000 N.ar    1  LIG1       -0.1872
     18 C           0.4250    2.5000    0.0000 C.ar    1  LIG1        0.1718
     19 C          -0.1580    3.3000    0.0000 C.ar    1  LIG1        0.0365
     20 C          -1.1540    3.2000    0.0000 C.ar    1  LIG1        0.0031
     21 C          -1.7460    4.0080    0.0000 C.ar    1  LIG1        0.0001
     22 C          -1.3330    4.9210    0.0000 C.ar    1  LIG1        0.0000
     23 C          -0.3380    5.0290    0.0000 C.ar    1  LIG1        0.0001
     24 C           0.2500    4.2080    0.0000 C.ar    1  LIG1        0.0031
@<TRIPOS>BOND
     1     1     2   ar
     2     1    18   ar
     3     2     3    1
     4     2    16   ar
     5     3     4   am
     6     4     5    1
     7     4    15    2
     8     5     6   ar
     9     5    10   ar
    10     6     7   ar
    11     7     8   ar
    12     7    13    1
    13     8     9   ar
    14     8    11    1
    15     9    10   ar
    16    11    12    1
    17    13    14    1
    18    16    17   ar
    19    17    18   ar
    20    18    19    1
    21    19    20   ar
    22    19    24   ar
    23    20    21   ar
    24    21    22   ar
    25    22    23   ar
    26    23    24   ar
