@<TRIPOS>MOLECULE
31795_ChemDiv_6574-0360
 29 33 0 0 0
SMALL
GASTEIGER
Energy = 0

@<TRIPOS>ATOM
      1 N           3.9670   -0.6630    0.0000 N.ar    1  LIG1       -0.2690
      2 C           3.0830   -1.1460    0.0000 C.ar    1  LIG1        0.1975
      3 N           3.2750   -2.1330    0.0000 N.ar    1  LIG1       -0.1218
      4 N           4.2460   -2.2380    0.0000 N.ar    1  LIG1       -0.1279
      5 C           4.6790   -1.3380    0.0000 C.ar    1  LIG1        0.1707
      6 C           5.6420   -1.0710    0.0000 C.ar    1  LIG1        0.0393
      7 C           5.8710   -0.0920    0.0000 C.ar    1  LIG1        0.0046
      8 C           5.1460    0.5920    0.0000 C.ar    1  LIG1        0.0163
      9 C           4.1830    0.3130    0.0000 C.ar    1  LIG1        0.0672
     10 C           3.4580    0.9830    0.0000 C.ar    1  LIG1        0.0176
     11 C           3.6880    1.9580    0.0000 C.ar    1  LIG1        0.0015
     12 C           4.6460    2.2420    0.0000 C.ar    1  LIG1        0.0001
     13 C           5.3750    1.5580    0.0000 C.ar    1  LIG1        0.0014
     14 S           2.1750   -0.7040    0.0000 S.3     1  LIG1       -0.0654
     15 C           1.3500   -1.2710    0.0000 C.3     1  LIG1        0.1520
     16 C           0.4500   -0.8420    0.0000 C.2     1  LIG1        0.2588
     17 N          -0.3880   -1.4170    0.0000 N.am    1  LIG1       -0.1523
     18 C          -1.2830   -0.9830    0.0000 C.ar    1  LIG1        0.2048
     19 N          -2.2130   -1.3630    0.0000 N.ar    1  LIG1       -0.2021
     20 C          -2.8580   -0.6080    0.0000 C.ar    1  LIG1        0.1718
     21 N          -2.3460    0.2420    0.0000 N.ar    1  LIG1       -0.1872
     22 S          -1.3710    0.0170    0.0000 S.2     1  LIG1        0.0513
     23 C          -3.8540   -0.5880    0.0000 C.ar    1  LIG1        0.0365
     24 C          -4.3420    0.2880    0.0000 C.ar    1  LIG1        0.0031
     25 C          -5.3420    0.3130    0.0000 C.ar    1  LIG1        0.0001
     26 C          -5.8750   -0.5460    0.0000 C.ar    1  LIG1        0.0000
     27 C          -5.3880   -1.4330    0.0000 C.ar    1  LIG1        0.0001
     28 C          -4.3710   -1.4500    0.0000 C.ar    1  LIG1        0.0031
     29 O           0.3670    0.1580    0.0000 O.2     1  LIG1       -0.2720
@<TRIPOS>BOND
     1     1     2   ar
     2     1     5   ar
     3     1     9   ar
     4     2     3   ar
     5     2    14    1
     6     3     4   ar
     7     4     5   ar
     8     5     6   ar
     9     6     7   ar
    10     7     8   ar
    11     8     9   ar
    12     8    13   ar
    13     9    10   ar
    14    10    11   ar
    15    11    12   ar
    16    12    13   ar
    17    14    15    1
    18    15    16    1
    19    16    17   am
    20    16    29    2
    21    17    18    1
    22    18    19   ar
    23    18    22   ar
    24    19    20   ar
    25    20    21   ar
    26    20    23    1
    27    21    22   ar
    28    23    24   ar
    29    23    28   ar
    30    24    25   ar
    31    25    26   ar
    32    26    27   ar
    33    27    28   ar
