@<TRIPOS>MOLECULE
31793_ChemDiv_6574-0354
 26 29 0 0 0
SMALL
GASTEIGER
Energy = 0

@<TRIPOS>ATOM
      1 N           1.2920   -0.0920    0.0000 N.ar    1  LIG1       -0.2021
      2 C           0.5210    0.5380    0.0000 C.ar    1  LIG1        0.2048
      3 S          -0.3130    0.0080    0.0000 S.2     1  LIG1        0.0513
      4 N          -0.0670   -0.9580    0.0000 N.ar    1  LIG1       -0.1872
      5 C           0.9290   -1.0330    0.0000 C.ar    1  LIG1        0.1718
      6 C           1.4330   -1.8880    0.0000 C.ar    1  LIG1        0.0365
      7 C           0.9420   -2.7630    0.0000 C.ar    1  LIG1        0.0031
      8 C           1.4420   -3.6210    0.0000 C.ar    1  LIG1        0.0001
      9 C           2.4380   -3.6210    0.0000 C.ar    1  LIG1        0.0000
     10 C           2.9420   -2.7460    0.0000 C.ar    1  LIG1        0.0001
     11 C           2.4290   -1.8880    0.0000 C.ar    1  LIG1        0.0031
     12 N           0.5750    1.5380    0.0000 N.am    1  LIG1       -0.1523
     13 C           1.4630    1.9880    0.0000 C.2     1  LIG1        0.2587
     14 O           2.3040    1.4460    0.0000 O.2     1  LIG1       -0.2720
     15 C           1.5210    2.9920    0.0000 C.3     1  LIG1        0.1505
     16 S           0.6710    3.5330    0.0000 S.3     1  LIG1       -0.0851
     17 C          -0.2210    3.0790    0.0000 C.ar    1  LIG1        0.1071
     18 N          -0.2710    2.0710    0.0000 N.ar    1  LIG1       -0.2391
     19 C          -1.1670    1.6250    0.0000 C.ar    1  LIG1        0.0818
     20 C          -2.0040    2.1710    0.0000 C.ar    1  LIG1        0.0177
     21 C          -1.9500    3.1710    0.0000 C.ar    1  LIG1        0.0036
     22 C          -1.0500    3.6250    0.0000 C.ar    1  LIG1        0.0255
     23 C          -2.8960    1.7170    0.0000 C.ar    1  LIG1        0.0015
     24 C          -2.9460    0.7210    0.0000 C.ar    1  LIG1        0.0001
     25 C          -2.0960    0.1750    0.0000 C.ar    1  LIG1        0.0015
     26 C          -1.2080    0.6330    0.0000 C.ar    1  LIG1        0.0191
@<TRIPOS>BOND
     1     1     2   ar
     2     1     5   ar
     3     2     3   ar
     4     2    12    1
     5     3     4   ar
     6     4     5   ar
     7     5     6    1
     8     6     7   ar
     9     6    11   ar
    10     7     8   ar
    11     8     9   ar
    12     9    10   ar
    13    10    11   ar
    14    12    13   am
    15    13    14    2
    16    13    15    1
    17    15    16    1
    18    16    17    1
    19    17    18   ar
    20    17    22   ar
    21    18    19   ar
    22    19    20   ar
    23    19    26   ar
    24    20    21   ar
    25    20    23   ar
    26    21    22   ar
    27    23    24   ar
    28    24    25   ar
    29    25    26   ar
