@<TRIPOS>MOLECULE
31803_ChemDiv_6796-0009
 20 22 0 0 0
SMALL
GASTEIGER
Energy = 0

@<TRIPOS>ATOM
      1 N           0.0500    0.7920    0.0000 N.ar    1  LIG1       -0.2021
      2 C           0.5170   -0.0960    0.0000 C.ar    1  LIG1        0.2050
      3 N           0.0630   -1.0080    0.0000 N.am    1  LIG1       -0.1493
      4 C          -0.7960   -1.5040    0.0000 C.2     1  LIG1        0.2708
      5 O          -1.6630   -1.0080    0.0000 O.2     1  LIG1       -0.2679
      6 C          -0.7960   -2.4920    0.0000 C.ar    1  LIG1        0.0585
      7 C           0.0670   -2.9920    0.0000 C.ar    1  LIG1        0.0253
      8 C           0.0670   -3.9920    0.0000 C.ar    1  LIG1        0.0990
      9 N          -0.7960   -4.4830    0.0000 N.ar    1  LIG1       -0.2423
     10 C          -1.6540   -3.9920    0.0000 C.ar    1  LIG1        0.0990
     11 C          -1.6540   -2.9920    0.0000 C.ar    1  LIG1        0.0253
     12 S           1.4920    0.0540    0.0000 S.2     1  LIG1        0.0513
     13 N           1.6580    1.0380    0.0000 N.ar    1  LIG1       -0.1872
     14 C           0.7580    1.4960    0.0000 C.ar    1  LIG1        0.1718
     15 C           0.6380    2.4920    0.0000 C.ar    1  LIG1        0.0365
     16 C           1.4500    3.1040    0.0000 C.ar    1  LIG1        0.0031
     17 C           1.3290    4.0920    0.0000 C.ar    1  LIG1        0.0001
     18 C           0.4040    4.4830    0.0000 C.ar    1  LIG1        0.0000
     19 C          -0.4000    3.8830    0.0000 C.ar    1  LIG1        0.0001
     20 C          -0.2790    2.8920    0.0000 C.ar    1  LIG1        0.0031
@<TRIPOS>BOND
     1     1     2   ar
     2     1    14   ar
     3     2     3    1
     4     2    12   ar
     5     3     4   am
     6     4     5    2
     7     4     6    1
     8     6     7   ar
     9     6    11   ar
    10     7     8   ar
    11     8     9   ar
    12     9    10   ar
    13    10    11   ar
    14    12    13   ar
    15    13    14   ar
    16    14    15    1
    17    15    16   ar
    18    15    20   ar
    19    16    17   ar
    20    17    18   ar
    21    18    19   ar
    22    19    20   ar
