@<TRIPOS>MOLECULE
31809_ChemDiv_8015-2378
 31 35 0 0 0
SMALL
GASTEIGER
Energy = 0

@<TRIPOS>ATOM
      1 S           0.3210   -1.9630    0.0000 S.O2    1  LIG1       -0.0577
      2 N           1.3170   -1.9630    0.0000 N.pl3   1  LIG1       -0.5334
      3 C           1.8210   -1.1000    0.0000 C.ar    1  LIG1       -0.0744
      4 C           2.8210   -1.1000    0.0000 C.ar    1  LIG1        0.0166
      5 C           3.3170   -0.2330    0.0000 C.ar    1  LIG1        0.1437
      6 C           2.8210    0.6380    0.0000 C.ar    1  LIG1        0.0404
      7 C           3.4880    1.3750    0.0000 C.ar    1  LIG1        0.0376
      8 C           4.4040    0.9710    0.0000 C.ar    1  LIG1        0.1453
      9 O           4.3000   -0.0250    0.0000 O.2     1  LIG1       -0.4536
     10 C           5.2130    1.5580    0.0000 C.ar    1  LIG1        0.0375
     11 C           5.1040    2.5540    0.0000 C.ar    1  LIG1        0.0031
     12 C           4.1920    2.9670    0.0000 C.ar    1  LIG1        0.0002
     13 C           3.3830    2.3750    0.0000 C.ar    1  LIG1        0.0031
     14 C           1.8210    0.6380    0.0000 C.ar    1  LIG1        0.0381
     15 C           1.3210   -0.2330    0.0000 C.ar    1  LIG1        0.1169
     16 O           0.3210   -0.2330    0.0000 O.3     1  LIG1       -0.4733
     17 C          -0.1830    0.6380    0.0000 C.3     1  LIG1        0.2524
     18 C          -0.6790   -1.9630    0.0000 C.ar    1  LIG1        0.0894
     19 C          -1.1830   -2.8290    0.0000 C.ar    1  LIG1        0.0182
     20 C          -2.1750   -2.8290    0.0000 C.ar    1  LIG1        0.0162
     21 C          -2.6790   -1.9630    0.0000 C.ar    1  LIG1        0.0539
     22 N          -3.6790   -1.9630    0.0000 N.am    1  LIG1       -0.2586
     23 C          -4.2670   -1.1540    0.0000 C.2     1  LIG1        0.2294
     24 O          -3.7670   -0.2920    0.0000 O.2     1  LIG1       -0.2745
     25 C          -5.2170   -1.4670    0.0000 C.3     1  LIG1        0.0874
     26 C          -5.2170   -2.4670    0.0000 C.3     1  LIG1        0.0315
     27 C          -4.2670   -2.7710    0.0000 C.3     1  LIG1        0.0987
     28 C          -2.1830   -1.1000    0.0000 C.ar    1  LIG1        0.0162
     29 C          -1.1830   -1.1000    0.0000 C.ar    1  LIG1        0.0182
     30 O           0.3210   -0.9630    0.0000 O.2     1  LIG1       -0.1842
     31 O           0.3210   -2.9630    0.0000 O.2     1  LIG1       -0.1842
@<TRIPOS>BOND
     1     1     2    1
     2     1    18    1
     3     1    30    2
     4     1    31    2
     5     2     3    1
     6     3     4   ar
     7     3    15   ar
     8     4     5   ar
     9     5     6   ar
    10     5     9   ar
    11     6     7   ar
    12     6    14   ar
    13     7     8   ar
    14     7    13   ar
    15     8     9   ar
    16     8    10   ar
    17    10    11   ar
    18    11    12   ar
    19    12    13   ar
    20    14    15   ar
    21    15    16    1
    22    16    17    1
    23    18    19   ar
    24    18    29   ar
    25    19    20   ar
    26    20    21   ar
    27    21    22    1
    28    21    28   ar
    29    22    23   am
    30    22    27    1
    31    23    24    2
    32    23    25    1
    33    25    26    1
    34    26    27    1
    35    28    29   ar
