@<TRIPOS>MOLECULE
31804_ChemDiv_5436-1036
 30 35 0 0 0
SMALL
GASTEIGER
Energy = 0

@<TRIPOS>ATOM
      1 C           1.3420    0.7420    0.0000 C.ar    1  LIG1        0.0348
      2 C           1.3420    1.7290    0.0000 C.ar    1  LIG1        0.1476
      3 C           0.4750    2.2250    0.0000 C.ar    1  LIG1        0.0473
      4 C          -0.4000    1.7290    0.0000 C.ar    1  LIG1        0.1443
      5 C          -0.4000    0.7420    0.0000 C.ar    1  LIG1        0.0375
      6 C          -1.3460    0.4330    0.0000 C.ar    1  LIG1        0.0407
      7 C          -1.9330    1.2210    0.0000 C.ar    1  LIG1        0.1795
      8 O          -1.3460    2.0420    0.0000 O.2     1  LIG1       -0.4506
      9 C          -1.6960   -0.5080    0.0000 C.ar    1  LIG1        0.0064
     10 C          -2.6830   -0.6750    0.0000 C.ar    1  LIG1        0.0403
     11 C          -3.0330   -1.6130    0.0000 C.ar    1  LIG1        0.1764
     12 C          -2.4040   -2.3920    0.0000 C.ar    1  LIG1        0.1764
     13 O          -2.9500   -3.2290    0.0000 O.3     1  LIG1       -0.4346
     14 C          -3.9080   -2.9710    0.0000 C.3     1  LIG1        0.4294
     15 O          -3.9580   -1.9670    0.0000 O.3     1  LIG1       -0.4346
     16 C          -1.4080   -2.2210    0.0000 C.ar    1  LIG1        0.0402
     17 C          -1.0670   -1.2830    0.0000 C.ar    1  LIG1        0.0034
     18 C           0.4750    0.2330    0.0000 C.ar    1  LIG1        0.0061
     19 C           0.4750    3.2330    0.0000 C.3     1  LIG1        0.0375
     20 O           2.1960    2.2250    0.0000 O.2     1  LIG1       -0.4213
     21 C           3.0790    1.7290    0.0000 C.ar    1  LIG1        0.3459
     22 C           3.0790    0.7420    0.0000 C.ar    1  LIG1        0.0824
     23 C           2.1960    0.2330    0.0000 C.ar    1  LIG1        0.0094
     24 C           2.1960   -0.7790    0.0000 C.ar    1  LIG1        0.0003
     25 C           1.3420   -1.2670    0.0000 C.ar    1  LIG1        0.0000
     26 C           1.3420   -2.2790    0.0000 C.ar    1  LIG1        0.0000
     27 C           2.1960   -2.7830    0.0000 C.ar    1  LIG1        0.0000
     28 C           3.0630   -2.2790    0.0000 C.ar    1  LIG1        0.0000
     29 C           3.0630   -1.2670    0.0000 C.ar    1  LIG1        0.0000
     30 O           3.9540    2.2250    0.0000 O.2     1  LIG1       -0.2445
@<TRIPOS>BOND
     1     1     2   ar
     2     1    18   ar
     3     1    23   ar
     4     2     3   ar
     5     2    20   ar
     6     3     4   ar
     7     3    19    1
     8     4     5   ar
     9     4     8   ar
    10     5     6   ar
    11     5    18   ar
    12     6     7   ar
    13     6     9    1
    14     7     8   ar
    15     9    10   ar
    16     9    17   ar
    17    10    11   ar
    18    11    12   ar
    19    11    15    1
    20    12    13    1
    21    12    16   ar
    22    13    14    1
    23    14    15    1
    24    16    17   ar
    25    20    21   ar
    26    21    22   ar
    27    21    30    2
    28    22    23   ar
    29    23    24    1
    30    24    25   ar
    31    24    29   ar
    32    25    26   ar
    33    26    27   ar
    34    27    28   ar
    35    28    29   ar
