@<TRIPOS>MOLECULE
31801_ChemDiv_6574-0479
 15 16 0 0 0
SMALL
GASTEIGER
Energy = 0

@<TRIPOS>ATOM
      1 N           0.2420   -0.1750    0.0000 N.ar    1  LIG1       -0.2021
      2 C           1.1080   -0.6830    0.0000 C.ar    1  LIG1        0.2048
      3 S           1.8500   -0.0170    0.0000 S.2     1  LIG1        0.0513
      4 N           1.4500    0.8960    0.0000 N.ar    1  LIG1       -0.1872
      5 C           0.4540    0.7920    0.0000 C.ar    1  LIG1        0.1718
      6 C          -0.2130    1.5330    0.0000 C.ar    1  LIG1        0.0365
      7 C          -1.1960    1.3290    0.0000 C.ar    1  LIG1        0.0031
      8 C          -1.8540    2.0790    0.0000 C.ar    1  LIG1        0.0001
      9 C          -1.5330    3.0420    0.0000 C.ar    1  LIG1        0.0000
     10 C          -0.5580    3.2460    0.0000 C.ar    1  LIG1        0.0001
     11 C           0.1080    2.4880    0.0000 C.ar    1  LIG1        0.0031
     12 N           1.2080   -1.6750    0.0000 N.am    1  LIG1       -0.1531
     13 C           0.3920   -2.2580    0.0000 C.2     1  LIG1        0.2478
     14 O          -0.5210   -1.8500    0.0000 O.2     1  LIG1       -0.2729
     15 C           0.4920   -3.2420    0.0000 C.3     1  LIG1        0.0969
@<TRIPOS>BOND
     1     1     2   ar
     2     1     5   ar
     3     2     3   ar
     4     2    12    1
     5     3     4   ar
     6     4     5   ar
     7     5     6    1
     8     6     7   ar
     9     6    11   ar
    10     7     8   ar
    11     8     9   ar
    12     9    10   ar
    13    10    11   ar
    14    12    13   am
    15    13    14    2
    16    13    15    1
