@<TRIPOS>MOLECULE
31805_ChemDiv_5402-0425
 22 25 0 0 0
SMALL
GASTEIGER
Energy = 0

@<TRIPOS>ATOM
      1 N           0.9750    0.0830    0.0000 N.ar    1  LIG1       -0.1736
      2 C           0.9750   -0.9170    0.0000 C.ar    1  LIG1        0.2457
      3 N           1.9000   -1.4080    0.0000 N.ar    1  LIG1       -0.2166
      4 C           2.7380   -0.8420    0.0000 C.ar    1  LIG1        0.0625
      5 C           2.7080    0.1420    0.0000 C.ar    1  LIG1        0.0493
      6 C           1.8130    0.6040    0.0000 C.ar    1  LIG1        0.2787
      7 O           1.8130    1.5960    0.0000 O.2     1  LIG1       -0.2654
      8 C           3.6630    0.4420    0.0000 C.3     1  LIG1        0.0329
      9 C           4.2420   -0.3670    0.0000 C.3     1  LIG1        0.0112
     10 C           3.6630   -1.1290    0.0000 C.3     1  LIG1        0.0461
     11 N           0.1670   -1.4460    0.0000 N.pl3   1  LIG1       -0.1415
     12 C          -0.7210   -0.9540    0.0000 C.ar    1  LIG1        0.2430
     13 N          -0.7580    0.0080    0.0000 N.ar    1  LIG1       -0.2164
     14 C          -1.6460    0.4710    0.0000 C.ar    1  LIG1        0.0637
     15 C          -2.5130   -0.0630    0.0000 C.ar    1  LIG1        0.0314
     16 C          -2.4540   -1.0630    0.0000 C.ar    1  LIG1        0.0854
     17 N          -1.5880   -1.4960    0.0000 N.ar    1  LIG1       -0.2121
     18 C          -3.3210   -1.5920    0.0000 C.ar    1  LIG1        0.0192
     19 C          -4.2460   -1.1000    0.0000 C.ar    1  LIG1        0.0015
     20 C          -4.2460   -0.1380    0.0000 C.ar    1  LIG1        0.0001
     21 C          -3.4170    0.4290    0.0000 C.ar    1  LIG1        0.0027
     22 C          -1.6830    1.5080    0.0000 C.3     1  LIG1        0.0522
@<TRIPOS>BOND
     1     1     2   ar
     2     1     6   ar
     3     2     3   ar
     4     2    11    1
     5     3     4   ar
     6     4     5   ar
     7     4    10    1
     8     5     6   ar
     9     5     8    1
    10     6     7    2
    11     8     9    1
    12     9    10    1
    13    11    12    1
    14    12    13   ar
    15    12    17   ar
    16    13    14   ar
    17    14    15   ar
    18    14    22    1
    19    15    16   ar
    20    15    21   ar
    21    16    17   ar
    22    16    18   ar
    23    18    19   ar
    24    19    20   ar
    25    20    21   ar
