@<TRIPOS>MOLECULE
31807_ChemDiv_5402-0634
 14 15 0 0 0
SMALL
GASTEIGER
Energy = 0

@<TRIPOS>ATOM
      1 C           0.2880   -0.4790    0.0000 C.ar    1  LIG1        0.3195
      2 N          -0.2000   -1.3670    0.0000 N.pl3   1  LIG1        0.0016
      3 C          -1.2420   -1.3670    0.0000 C.cat   1  LIG1        0.4417
      4 N          -1.9170   -2.1130    0.0000 N.2     1  LIG1       -0.0923
      5 C          -2.8040   -1.7040    0.0000 C.3     1  LIG1        0.2636
      6 C          -2.7130   -0.7250    0.0000 C.3     1  LIG1        0.2538
      7 N          -1.7330   -0.5210    0.0000 N.pl3   1  LIG1       -0.0594
      8 N           1.3210   -0.4790    0.0000 N.ar    1  LIG1       -0.2012
      9 C           1.8130    0.3500    0.0000 C.ar    1  LIG1        0.0649
     10 C           1.3290    1.2380    0.0000 C.ar    1  LIG1        0.0297
     11 C           0.3420    1.2380    0.0000 C.ar    1  LIG1        0.0649
     12 N          -0.2000    0.3500    0.0000 N.ar    1  LIG1       -0.2012
     13 C          -0.1500    2.1170    0.0000 C.3     1  LIG1        0.0523
     14 C           2.8000    0.3500    0.0000 C.3     1  LIG1        0.0523
@<TRIPOS>BOND
     1     1     2    1
     2     1     8   ar
     3     1    12   ar
     4     2     3    1
     5     3     4    2
     6     3     7    1
     7     4     5    1
     8     5     6    1
     9     6     7    1
    10     8     9   ar
    11     9    10   ar
    12     9    14    1
    13    10    11   ar
    14    11    12   ar
    15    11    13    1
