@<TRIPOS>MOLECULE
31802_ChemDiv_5436-1031
 30 34 0 0 0
SMALL
GASTEIGER
Energy = 0

@<TRIPOS>ATOM
      1 C           2.5460    1.2420    0.0000 C.ar    1  LIG1        0.0094
      2 C           1.6830    1.7500    0.0000 C.ar    1  LIG1        0.0351
      3 C           1.6830    2.7460    0.0000 C.ar    1  LIG1        0.1517
      4 O           2.5460    3.2460    0.0000 O.2     1  LIG1       -0.4209
      5 C           3.4210    2.7460    0.0000 C.ar    1  LIG1        0.3459
      6 C           3.4210    1.7500    0.0000 C.ar    1  LIG1        0.0824
      7 O           4.2880    3.2460    0.0000 O.2     1  LIG1       -0.2445
      8 C           0.8210    3.2460    0.0000 C.ar    1  LIG1        0.0750
      9 C          -0.0460    2.7460    0.0000 C.ar    1  LIG1        0.1485
     10 C          -0.0460    1.7500    0.0000 C.ar    1  LIG1        0.0378
     11 C          -0.9920    1.4380    0.0000 C.ar    1  LIG1        0.0407
     12 C          -1.5830    2.2330    0.0000 C.ar    1  LIG1        0.1795
     13 O          -0.9920    3.0500    0.0000 O.2     1  LIG1       -0.4503
     14 C          -1.3540    0.5130    0.0000 C.ar    1  LIG1        0.0061
     15 C          -2.3290    0.3460    0.0000 C.ar    1  LIG1        0.0370
     16 C          -2.6880   -0.5790    0.0000 C.ar    1  LIG1        0.1387
     17 O          -3.6580   -0.7330    0.0000 O.3     1  LIG1       -0.4714
     18 C          -4.2920    0.0540    0.0000 C.3     1  LIG1        0.2525
     19 C          -2.0420   -1.3630    0.0000 C.ar    1  LIG1        0.0369
     20 C          -1.0580   -1.1880    0.0000 C.ar    1  LIG1        0.0031
     21 C          -0.7130   -0.2580    0.0000 C.ar    1  LIG1        0.0003
     22 C           0.8210    1.2420    0.0000 C.ar    1  LIG1        0.0062
     23 C           2.5580    0.2500    0.0000 C.ar    1  LIG1        0.0005
     24 C           1.6710   -0.2460    0.0000 C.ar    1  LIG1        0.0031
     25 C           1.6710   -1.2460    0.0000 C.ar    1  LIG1        0.0369
     26 C           2.5460   -1.7460    0.0000 C.ar    1  LIG1        0.1387
     27 C           3.4210   -1.2460    0.0000 C.ar    1  LIG1        0.0369
     28 C           3.4210   -0.2460    0.0000 C.ar    1  LIG1        0.0031
     29 O           2.5580   -2.7540    0.0000 O.3     1  LIG1       -0.4714
     30 C           3.4250   -3.2420    0.0000 C.3     1  LIG1        0.2525
@<TRIPOS>BOND
     1     1     2   ar
     2     1     6   ar
     3     1    23    1
     4     2     3   ar
     5     2    22   ar
     6     3     4   ar
     7     3     8   ar
     8     4     5   ar
     9     5     6   ar
    10     5     7    2
    11     8     9   ar
    12     9    10   ar
    13     9    13   ar
    14    10    11   ar
    15    10    22   ar
    16    11    12   ar
    17    11    14    1
    18    12    13   ar
    19    14    15   ar
    20    14    21   ar
    21    15    16   ar
    22    16    17    1
    23    16    19   ar
    24    17    18    1
    25    19    20   ar
    26    20    21   ar
    27    23    24   ar
    28    23    28   ar
    29    24    25   ar
    30    25    26   ar
    31    26    27   ar
    32    26    29    1
    33    27    28   ar
    34    29    30    1
