@<TRIPOS>MOLECULE
31808_ChemDiv_D060-0131
 29 34 0 0 0
SMALL
GASTEIGER
Energy = 0

@<TRIPOS>ATOM
      1 C          -0.3380    1.6750    0.0000 C.ar    1  LIG1        0.0723
      2 C          -0.3380    0.6750    0.0000 C.ar    1  LIG1        0.1513
      3 C           0.5290    0.1750    0.0000 C.ar    1  LIG1        0.0724
      4 C           1.3920    0.6710    0.0000 C.ar    1  LIG1        0.1546
      5 C           1.3920    1.6830    0.0000 C.ar    1  LIG1        0.0696
      6 C           0.5250    2.1750    0.0000 C.ar    1  LIG1        0.1512
      7 O           0.3130    3.1420    0.0000 O.2     1  LIG1       -0.4502
      8 C          -0.6750    3.2460    0.0000 C.ar    1  LIG1        0.1796
      9 C          -1.0790    2.3380    0.0000 C.ar    1  LIG1        0.0435
     10 C          -2.0460    2.1290    0.0000 C.ar    1  LIG1        0.0032
     11 C          -2.7130    2.8710    0.0000 C.ar    1  LIG1        0.0001
     12 C          -3.7000    2.6580    0.0000 C.ar    1  LIG1        0.0000
     13 C          -4.0040    1.7040    0.0000 C.ar    1  LIG1        0.0000
     14 C          -3.3250    0.9630    0.0000 C.ar    1  LIG1        0.0000
     15 C          -2.3500    1.1830    0.0000 C.ar    1  LIG1        0.0001
     16 C           2.2670    2.1830    0.0000 C.ar    1  LIG1        0.0128
     17 C           3.1330    1.6830    0.0000 C.ar    1  LIG1        0.0825
     18 C           3.1330    0.6710    0.0000 C.ar    1  LIG1        0.3459
     19 O           2.2540    0.1710    0.0000 O.2     1  LIG1       -0.4208
     20 O           4.0000    0.1710    0.0000 O.2     1  LIG1       -0.2445
     21 C           0.3170   -0.8000    0.0000 C.ar    1  LIG1        0.0435
     22 C          -0.6750   -0.9080    0.0000 C.ar    1  LIG1        0.1796
     23 O          -1.0790    0.0080    0.0000 O.2     1  LIG1       -0.4502
     24 C           0.9830   -1.5420    0.0000 C.ar    1  LIG1        0.0032
     25 C           0.6630   -2.5000    0.0000 C.ar    1  LIG1        0.0001
     26 C           1.3290   -3.2420    0.0000 C.ar    1  LIG1        0.0000
     27 C           2.3170   -3.0290    0.0000 C.ar    1  LIG1        0.0000
     28 C           2.6290   -2.0750    0.0000 C.ar    1  LIG1        0.0000
     29 C           1.9540   -1.3330    0.0000 C.ar    1  LIG1        0.0001
@<TRIPOS>BOND
     1     1     2   ar
     2     1     6   ar
     3     1     9   ar
     4     2     3   ar
     5     2    23   ar
     6     3     4   ar
     7     3    21   ar
     8     4     5   ar
     9     4    19   ar
    10     5     6   ar
    11     5    16   ar
    12     6     7   ar
    13     7     8   ar
    14     8     9   ar
    15     9    10    1
    16    10    11   ar
    17    10    15   ar
    18    11    12   ar
    19    12    13   ar
    20    13    14   ar
    21    14    15   ar
    22    16    17   ar
    23    17    18   ar
    24    18    19   ar
    25    18    20    2
    26    21    22   ar
    27    21    24    1
    28    22    23   ar
    29    24    25   ar
    30    24    29   ar
    31    25    26   ar
    32    26    27   ar
    33    27    28   ar
    34    28    29   ar
