@<TRIPOS>MOLECULE
31806_ChemDiv_5436-1070
 27 32 0 0 0
SMALL
GASTEIGER
Energy = 0

@<TRIPOS>ATOM
      1 C          -1.3500    0.9080    0.0000 C.ar    1  LIG1        0.0407
      2 C          -0.3920    1.2250    0.0000 C.ar    1  LIG1        0.0378
      3 C          -0.3920    2.2380    0.0000 C.ar    1  LIG1        0.1485
      4 O          -1.3500    2.5420    0.0000 O.2     1  LIG1       -0.4503
      5 C          -1.9290    1.7210    0.0000 C.ar    1  LIG1        0.1795
      6 C           0.4710    2.7210    0.0000 C.ar    1  LIG1        0.0750
      7 C           1.3460    2.2380    0.0000 C.ar    1  LIG1        0.1517
      8 C           1.3460    1.2250    0.0000 C.ar    1  LIG1        0.0351
      9 C           2.2080    0.7250    0.0000 C.ar    1  LIG1        0.0092
     10 C           3.0630    1.2250    0.0000 C.ar    1  LIG1        0.0761
     11 C           3.0630    2.2380    0.0000 C.ar    1  LIG1        0.3457
     12 O           2.2080    2.7210    0.0000 O.2     1  LIG1       -0.4209
     13 O           3.9500    2.7210    0.0000 O.2     1  LIG1       -0.2445
     14 C           3.9420    0.7250    0.0000 C.ar    1  LIG1        0.0065
     15 C           3.9420   -0.2790    0.0000 C.ar    1  LIG1        0.0002
     16 C           3.0630   -0.7880    0.0000 C.ar    1  LIG1        0.0000
     17 C           2.2080   -0.2790    0.0000 C.ar    1  LIG1        0.0003
     18 C           0.4710    0.7250    0.0000 C.ar    1  LIG1        0.0062
     19 C          -1.6960   -0.0040    0.0000 C.ar    1  LIG1        0.0064
     20 C          -2.6830   -0.1830    0.0000 C.ar    1  LIG1        0.0403
     21 C          -3.0290   -1.1130    0.0000 C.ar    1  LIG1        0.1764
     22 C          -2.3960   -1.8830    0.0000 C.ar    1  LIG1        0.1764
     23 O          -2.9380   -2.7170    0.0000 O.3     1  LIG1       -0.4346
     24 C          -3.8960   -2.4710    0.0000 C.3     1  LIG1        0.4294
     25 O          -3.9540   -1.4630    0.0000 O.3     1  LIG1       -0.4346
     26 C          -1.4080   -1.7170    0.0000 C.ar    1  LIG1        0.0402
     27 C          -1.0580   -0.7880    0.0000 C.ar    1  LIG1        0.0034
@<TRIPOS>BOND
     1     1     2   ar
     2     1     5   ar
     3     1    19    1
     4     2     3   ar
     5     2    18   ar
     6     3     4   ar
     7     3     6   ar
     8     4     5   ar
     9     6     7   ar
    10     7     8   ar
    11     7    12   ar
    12     8     9   ar
    13     8    18   ar
    14     9    10   ar
    15     9    17   ar
    16    10    11   ar
    17    10    14   ar
    18    11    12   ar
    19    11    13    2
    20    14    15   ar
    21    15    16   ar
    22    16    17   ar
    23    19    20   ar
    24    19    27   ar
    25    20    21   ar
    26    21    22   ar
    27    21    25    1
    28    22    23    1
    29    22    26   ar
    30    23    24    1
    31    24    25    1
    32    26    27   ar
