@<TRIPOS>MOLECULE
31819_ChemDiv_8015-4265
 22 25 0 0 0
SMALL
GASTEIGER
Energy = 0

@<TRIPOS>ATOM
      1 S          -2.1830    0.1580    0.0000 S.O2    1  LIG1        0.0633
      2 C          -1.3500   -0.3330    0.0000 C.ar    1  LIG1        0.1224
      3 C          -0.5130    0.1580    0.0000 C.ar    1  LIG1        0.0230
      4 C           0.3210   -0.3330    0.0000 C.ar    1  LIG1        0.0388
      5 C           2.0080   -0.3330    0.0000 C.ar    1  LIG1        0.0376
      6 C           2.0080   -1.3080    0.0000 C.ar    1  LIG1        0.1466
      7 O           1.1670   -1.7960    0.0000 O.2     1  LIG1       -0.4535
      8 C           0.3210   -1.3080    0.0000 C.ar    1  LIG1        0.1454
      9 C          -0.5130   -1.7960    0.0000 C.ar    1  LIG1        0.0389
     10 C          -1.3500   -1.3080    0.0000 C.ar    1  LIG1        0.0230
     11 C           2.8580   -1.7960    0.0000 C.ar    1  LIG1        0.0555
     12 C           3.7040   -1.3080    0.0000 C.ar    1  LIG1        0.0921
     13 C           3.7040   -0.3330    0.0000 C.ar    1  LIG1        0.0183
     14 C           2.8580    0.1580    0.0000 C.ar    1  LIG1        0.0045
     15 N           4.5540   -1.7960    0.0000 N.pl3   1  LIG1       -0.1280
     16 N          -3.0210    0.6380    0.0000 N.3     1  LIG1       -0.1555
     17 C          -3.9080    0.2460    0.0000 C.3     1  LIG1        0.0958
     18 C          -4.5580    0.9630    0.0000 C.3     1  LIG1        0.0206
     19 C          -4.0710    1.8000    0.0000 C.3     1  LIG1        0.0206
     20 C          -3.1210    1.5960    0.0000 C.3     1  LIG1        0.0958
     21 O          -2.6710   -0.6830    0.0000 O.2     1  LIG1       -0.1528
     22 O          -1.7080    0.9880    0.0000 O.2     1  LIG1       -0.1528
@<TRIPOS>BOND
     1     1     2    1
     2     1    16    1
     3     1    21    2
     4     1    22    2
     5     2     3   ar
     6     2    10   ar
     7     3     4   ar
     8     4     5   ar
     9     4     8   ar
    10     5     6   ar
    11     5    14   ar
    12     6     7   ar
    13     6    11   ar
    14     7     8   ar
    15     8     9   ar
    16     9    10   ar
    17    11    12   ar
    18    12    13   ar
    19    12    15    1
    20    13    14   ar
    21    16    17    1
    22    16    20    1
    23    17    18    1
    24    18    19    1
    25    19    20    1
