@<TRIPOS>MOLECULE
31815_ChemDiv_8015-2422
 27 31 0 0 0
SMALL
GASTEIGER
Energy = 0

@<TRIPOS>ATOM
      1 S          -3.0460    0.1540    0.0000 S.O2    1  LIG1        0.0633
      2 C          -2.2080   -0.3330    0.0000 C.ar    1  LIG1        0.1224
      3 C          -1.3670    0.1580    0.0000 C.ar    1  LIG1        0.0230
      4 C          -0.5330   -0.3330    0.0000 C.ar    1  LIG1        0.0388
      5 C           1.1630   -0.3330    0.0000 C.ar    1  LIG1        0.0376
      6 C           1.1630   -1.3130    0.0000 C.ar    1  LIG1        0.1466
      7 O           0.3130   -1.8000    0.0000 O.2     1  LIG1       -0.4535
      8 C          -0.5330   -1.3130    0.0000 C.ar    1  LIG1        0.1454
      9 C          -1.3670   -1.8000    0.0000 C.ar    1  LIG1        0.0389
     10 C          -2.2080   -1.3130    0.0000 C.ar    1  LIG1        0.0230
     11 C           2.0170   -1.8000    0.0000 C.ar    1  LIG1        0.0541
     12 C           2.8670   -1.3130    0.0000 C.ar    1  LIG1        0.0764
     13 N           3.7170   -1.8000    0.0000 N.am    1  LIG1       -0.1791
     14 C           4.5710   -1.3130    0.0000 C.2     1  LIG1        0.2451
     15 C           4.5710   -0.3330    0.0000 C.3     1  LIG1        0.0786
     16 C           4.0750    0.5170    0.0000 C.3     1  LIG1        0.0096
     17 C           5.0580    0.5170    0.0000 C.3     1  LIG1        0.0096
     18 O           5.4250   -1.8000    0.0000 O.2     1  LIG1       -0.2730
     19 C           2.8670   -0.3330    0.0000 C.ar    1  LIG1        0.0168
     20 C           2.0170    0.1580    0.0000 C.ar    1  LIG1        0.0045
     21 N          -3.8920    0.6380    0.0000 N.3     1  LIG1       -0.1555
     22 C          -4.7750    0.2420    0.0000 C.3     1  LIG1        0.0958
     23 C          -5.4250    0.9670    0.0000 C.3     1  LIG1        0.0206
     24 C          -4.9380    1.8040    0.0000 C.3     1  LIG1        0.0206
     25 C          -3.9880    1.6040    0.0000 C.3     1  LIG1        0.0958
     26 O          -3.5330   -0.6880    0.0000 O.2     1  LIG1       -0.1528
     27 O          -2.5630    0.9960    0.0000 O.2     1  LIG1       -0.1528
@<TRIPOS>BOND
     1     1     2    1
     2     1    21    1
     3     1    26    2
     4     1    27    2
     5     2     3   ar
     6     2    10   ar
     7     3     4   ar
     8     4     5   ar
     9     4     8   ar
    10     5     6   ar
    11     5    20   ar
    12     6     7   ar
    13     6    11   ar
    14     7     8   ar
    15     8     9   ar
    16     9    10   ar
    17    11    12   ar
    18    12    13    1
    19    12    19   ar
    20    13    14   am
    21    14    15    1
    22    14    18    2
    23    15    16    1
    24    15    17    1
    25    16    17    1
    26    19    20   ar
    27    21    22    1
    28    21    25    1
    29    22    23    1
    30    23    24    1
    31    24    25    1
