@<TRIPOS>MOLECULE
31813_ChemDiv_8015-2420
 34 38 0 0 0
SMALL
GASTEIGER
Energy = 0

@<TRIPOS>ATOM
      1 S           3.7290   -0.8250    0.0000 S.O2    1  LIG1       -0.0548
      2 C           4.5830   -0.3330    0.0000 C.ar    1  LIG1        0.1253
      3 C           4.5830    0.6540    0.0000 C.ar    1  LIG1        0.0496
      4 C           5.4380    1.1460    0.0000 C.ar    1  LIG1        0.1416
      5 C           6.2920    0.6540    0.0000 C.ar    1  LIG1        0.0328
      6 C           6.2920   -0.3330    0.0000 C.ar    1  LIG1        0.0405
      7 C           5.4380   -0.8250    0.0000 C.ar    1  LIG1        0.1544
      8 O           5.4380   -1.8080    0.0000 O.3     1  LIG1       -0.4702
      9 C           6.2960   -2.3000    0.0000 C.3     1  LIG1        0.2525
     10 F           5.4380    2.1330    0.0000 F       1  LIG1       -0.2041
     11 N           2.8790   -1.3130    0.0000 N.pl3   1  LIG1       -0.5356
     12 C           2.0250   -0.8250    0.0000 C.ar    1  LIG1       -0.1093
     13 C           1.1710   -1.3130    0.0000 C.ar    1  LIG1        0.0137
     14 C           0.3130   -0.8250    0.0000 C.ar    1  LIG1        0.1435
     15 O          -0.5420   -1.3130    0.0000 O.2     1  LIG1       -0.4536
     16 C          -1.3920   -0.8250    0.0000 C.ar    1  LIG1        0.1454
     17 C          -1.3920    0.1580    0.0000 C.ar    1  LIG1        0.0388
     18 C           0.3130    0.1580    0.0000 C.ar    1  LIG1        0.0374
     19 C           1.1710    0.6540    0.0000 C.ar    1  LIG1        0.0013
     20 C           2.0250    0.1580    0.0000 C.ar    1  LIG1       -0.0236
     21 C          -2.2290    0.6540    0.0000 C.ar    1  LIG1        0.0230
     22 C          -3.0710    0.1580    0.0000 C.ar    1  LIG1        0.1224
     23 S          -3.9130    0.6500    0.0000 S.O2    1  LIG1        0.0633
     24 N          -4.7580    1.1330    0.0000 N.3     1  LIG1       -0.1555
     25 C          -5.6460    0.7380    0.0000 C.3     1  LIG1        0.0958
     26 C          -6.2960    1.4580    0.0000 C.3     1  LIG1        0.0206
     27 C          -5.8130    2.3040    0.0000 C.3     1  LIG1        0.0206
     28 C          -4.8580    2.1040    0.0000 C.3     1  LIG1        0.0958
     29 O          -4.4000   -0.1960    0.0000 O.2     1  LIG1       -0.1528
     30 O          -3.4250    1.4920    0.0000 O.2     1  LIG1       -0.1528
     31 C          -3.0710   -0.8250    0.0000 C.ar    1  LIG1        0.0230
     32 C          -2.2290   -1.3130    0.0000 C.ar    1  LIG1        0.0389
     33 O           3.2380    0.0250    0.0000 O.2     1  LIG1       -0.1841
     34 O           4.2210   -1.6750    0.0000 O.2     1  LIG1       -0.1841
@<TRIPOS>BOND
     1     1     2    1
     2     1    11    1
     3     1    33    2
     4     1    34    2
     5     2     3   ar
     6     2     7   ar
     7     3     4   ar
     8     4     5   ar
     9     4    10    1
    10     5     6   ar
    11     6     7   ar
    12     7     8    1
    13     8     9    1
    14    11    12    1
    15    12    13   ar
    16    12    20   ar
    17    13    14   ar
    18    14    15   ar
    19    14    18   ar
    20    15    16   ar
    21    16    17   ar
    22    16    32   ar
    23    17    18   ar
    24    17    21   ar
    25    18    19   ar
    26    19    20   ar
    27    21    22   ar
    28    22    23    1
    29    22    31   ar
    30    23    24    1
    31    23    29    2
    32    23    30    2
    33    24    25    1
    34    24    28    1
    35    25    26    1
    36    26    27    1
    37    27    28    1
    38    31    32   ar
