@<TRIPOS>MOLECULE
31810_ChemDiv_C736-0277
 31 36 0 0 0
SMALL
GASTEIGER
Energy = 0

@<TRIPOS>ATOM
      1 N          -1.4290   -0.8250    0.0000 N.ar    1  LIG1       -0.1795
      2 C          -2.2920   -0.3170    0.0000 C.ar    1  LIG1        0.1697
      3 N          -2.0830    0.6670    0.0000 N.ar    1  LIG1       -0.2059
      4 C          -1.0750    0.7750    0.0000 C.ar    1  LIG1        0.1837
      5 N          -0.6790   -0.1500    0.0000 N.ar    1  LIG1       -0.1419
      6 C          -0.5750    1.6380    0.0000 C.ar    1  LIG1        0.0406
      7 C          -1.0670    2.4960    0.0000 C.ar    1  LIG1        0.0238
      8 C          -0.5710    3.3580    0.0000 C.ar    1  LIG1        0.0990
      9 N           0.4460    3.3580    0.0000 N.ar    1  LIG1       -0.2423
     10 C           0.9290    2.4830    0.0000 C.ar    1  LIG1        0.0990
     11 C           0.4290    1.6250    0.0000 C.ar    1  LIG1        0.0238
     12 C          -3.1540   -0.8250    0.0000 C.ar    1  LIG1        0.0537
     13 C          -3.1630   -1.8290    0.0000 C.ar    1  LIG1        0.0872
     14 N          -2.2920   -2.3290    0.0000 N.ar    1  LIG1       -0.2123
     15 C          -1.4290   -1.8290    0.0000 C.ar    1  LIG1        0.2390
     16 N          -0.5710   -2.3130    0.0000 N.pl3   1  LIG1       -0.2034
     17 C           0.2920   -1.8130    0.0000 C.3     1  LIG1        0.1201
     18 C           1.1670   -2.3130    0.0000 C.3     1  LIG1        0.0514
     19 C           2.0330   -1.8130    0.0000 C.ar    1  LIG1        0.0002
     20 C           2.1330   -0.8170    0.0000 C.ar    1  LIG1        0.0946
     21 N           3.1040   -0.6040    0.0000 N.ar    1  LIG1       -0.2442
     22 C           3.6040   -1.4670    0.0000 C.ar    1  LIG1        0.0810
     23 C           2.9420   -2.2080    0.0000 C.ar    1  LIG1        0.0152
     24 C           3.2420   -3.1540    0.0000 C.ar    1  LIG1        0.0012
     25 C           4.2210   -3.3540    0.0000 C.ar    1  LIG1        0.0001
     26 C           4.8920   -2.6130    0.0000 C.ar    1  LIG1        0.0015
     27 C           4.5750   -1.6750    0.0000 C.ar    1  LIG1        0.0191
     28 C          -4.0330   -2.3290    0.0000 C.ar    1  LIG1        0.0193
     29 C          -4.8960   -1.8290    0.0000 C.ar    1  LIG1        0.0015
     30 C          -4.8960   -0.8250    0.0000 C.ar    1  LIG1        0.0002
     31 C          -4.0330   -0.3170    0.0000 C.ar    1  LIG1        0.0046
@<TRIPOS>BOND
     1     1     2   ar
     2     1     5   ar
     3     1    15   ar
     4     2     3   ar
     5     2    12   ar
     6     3     4   ar
     7     4     5   ar
     8     4     6    1
     9     6     7   ar
    10     6    11   ar
    11     7     8   ar
    12     8     9   ar
    13     9    10   ar
    14    10    11   ar
    15    12    13   ar
    16    12    31   ar
    17    13    14   ar
    18    13    28   ar
    19    14    15   ar
    20    15    16    1
    21    16    17    1
    22    17    18    1
    23    18    19    1
    24    19    20   ar
    25    19    23   ar
    26    20    21   ar
    27    21    22   ar
    28    22    23   ar
    29    22    27   ar
    30    23    24   ar
    31    24    25   ar
    32    25    26   ar
    33    26    27   ar
    34    28    29   ar
    35    29    30   ar
    36    30    31   ar
