@<TRIPOS>MOLECULE
31812_ChemDiv_C736-0687
 31 36 0 0 0
SMALL
GASTEIGER
Energy = 0

@<TRIPOS>ATOM
      1 N          -0.7500    0.1380    0.0000 N.ar    1  LIG1       -0.1795
      2 C          -1.6130    0.6540    0.0000 C.ar    1  LIG1        0.1697
      3 N          -1.4000    1.6380    0.0000 N.ar    1  LIG1       -0.2059
      4 C          -0.3960    1.7460    0.0000 C.ar    1  LIG1        0.1836
      5 N          -0.0040    0.8210    0.0000 N.ar    1  LIG1       -0.1419
      6 C           0.1040    2.6080    0.0000 C.ar    1  LIG1        0.0372
      7 C           1.1130    2.5920    0.0000 C.ar    1  LIG1       -0.0012
      8 C           1.6130    3.4540    0.0000 C.ar    1  LIG1       -0.0218
      9 C           1.1290    4.3290    0.0000 C.ar    1  LIG1       -0.0043
     10 C           0.1130    4.3290    0.0000 C.ar    1  LIG1       -0.0002
     11 C          -0.3880    3.4710    0.0000 C.ar    1  LIG1        0.0031
     12 C           2.6040    3.4420    0.0000 C.3     1  LIG1        0.0310
     13 C          -2.4750    0.1380    0.0000 C.ar    1  LIG1        0.0537
     14 C          -2.4880   -0.8630    0.0000 C.ar    1  LIG1        0.0872
     15 N          -1.6130   -1.3630    0.0000 N.ar    1  LIG1       -0.2123
     16 C          -0.7500   -0.8630    0.0000 C.ar    1  LIG1        0.2393
     17 N           0.1130   -1.3630    0.0000 N.pl3   1  LIG1       -0.1989
     18 C           0.1130   -2.3630    0.0000 C.3     1  LIG1        0.1418
     19 C           0.9790   -2.8460    0.0000 C.ar    1  LIG1        0.0027
     20 C           1.8290   -2.3460    0.0000 C.ar    1  LIG1        0.0376
     21 C           2.6960   -2.8290    0.0000 C.ar    1  LIG1        0.1762
     22 C           2.7040   -3.8290    0.0000 C.ar    1  LIG1        0.1764
     23 O           3.6500   -4.1330    0.0000 O.3     1  LIG1       -0.4346
     24 C           4.2250   -3.3170    0.0000 C.3     1  LIG1        0.4294
     25 O           3.6330   -2.5290    0.0000 O.3     1  LIG1       -0.4346
     26 C           1.8420   -4.3290    0.0000 C.ar    1  LIG1        0.0399
     27 C           0.9830   -3.8460    0.0000 C.ar    1  LIG1        0.0008
     28 C          -3.3540   -1.3630    0.0000 C.ar    1  LIG1        0.0193
     29 C          -4.2290   -0.8630    0.0000 C.ar    1  LIG1        0.0015
     30 C          -4.2290    0.1380    0.0000 C.ar    1  LIG1        0.0002
     31 C          -3.3540    0.6540    0.0000 C.ar    1  LIG1        0.0046
@<TRIPOS>BOND
     1     1     2   ar
     2     1     5   ar
     3     1    16   ar
     4     2     3   ar
     5     2    13   ar
     6     3     4   ar
     7     4     5   ar
     8     4     6    1
     9     6     7   ar
    10     6    11   ar
    11     7     8   ar
    12     8     9   ar
    13     8    12    1
    14     9    10   ar
    15    10    11   ar
    16    13    14   ar
    17    13    31   ar
    18    14    15   ar
    19    14    28   ar
    20    15    16   ar
    21    16    17    1
    22    17    18    1
    23    18    19    1
    24    19    20   ar
    25    19    27   ar
    26    20    21   ar
    27    21    22   ar
    28    21    25    1
    29    22    23    1
    30    22    26   ar
    31    23    24    1
    32    24    25    1
    33    26    27   ar
    34    28    29   ar
    35    29    30   ar
    36    30    31   ar
