@<TRIPOS>MOLECULE
31811_ChemDiv_8015-2382
 29 33 0 0 0
SMALL
GASTEIGER
Energy = 0

@<TRIPOS>ATOM
      1 S           0.3210   -1.9630    0.0000 S.O2    1  LIG1       -0.0578
      2 N           1.3170   -1.9630    0.0000 N.pl3   1  LIG1       -0.5357
      3 C           1.8210   -1.1000    0.0000 C.ar    1  LIG1       -0.1093
      4 C           2.8210   -1.1000    0.0000 C.ar    1  LIG1        0.0137
      5 C           3.3170   -0.2330    0.0000 C.ar    1  LIG1        0.1435
      6 O           4.3000   -0.0250    0.0000 O.2     1  LIG1       -0.4536
      7 C           4.4040    0.9710    0.0000 C.ar    1  LIG1        0.1453
      8 C           3.4880    1.3750    0.0000 C.ar    1  LIG1        0.0375
      9 C           2.8210    0.6380    0.0000 C.ar    1  LIG1        0.0374
     10 C           1.8210    0.6380    0.0000 C.ar    1  LIG1        0.0013
     11 C           1.3210   -0.2330    0.0000 C.ar    1  LIG1       -0.0236
     12 C           3.3830    2.3750    0.0000 C.ar    1  LIG1        0.0031
     13 C           4.1920    2.9670    0.0000 C.ar    1  LIG1        0.0002
     14 C           5.1040    2.5540    0.0000 C.ar    1  LIG1        0.0031
     15 C           5.2130    1.5580    0.0000 C.ar    1  LIG1        0.0375
     16 C          -0.6830   -1.9630    0.0000 C.ar    1  LIG1        0.0894
     17 C          -1.1830   -1.1000    0.0000 C.ar    1  LIG1        0.0182
     18 C          -2.1830   -1.1000    0.0000 C.ar    1  LIG1        0.0162
     19 C          -2.6790   -1.9630    0.0000 C.ar    1  LIG1        0.0539
     20 N          -3.6790   -1.9630    0.0000 N.am    1  LIG1       -0.2586
     21 C          -4.2670   -1.1540    0.0000 C.2     1  LIG1        0.2294
     22 O          -3.7670   -0.2920    0.0000 O.2     1  LIG1       -0.2745
     23 C          -5.2170   -1.4670    0.0000 C.3     1  LIG1        0.0874
     24 C          -5.2170   -2.4670    0.0000 C.3     1  LIG1        0.0315
     25 C          -4.2670   -2.7710    0.0000 C.3     1  LIG1        0.0987
     26 C          -2.1750   -2.8290    0.0000 C.ar    1  LIG1        0.0162
     27 C          -1.1830   -2.8290    0.0000 C.ar    1  LIG1        0.0182
     28 O           0.3210   -0.9630    0.0000 O.2     1  LIG1       -0.1842
     29 O           0.3210   -2.9630    0.0000 O.2     1  LIG1       -0.1842
@<TRIPOS>BOND
     1     1     2    1
     2     1    16    1
     3     1    28    2
     4     1    29    2
     5     2     3    1
     6     3     4   ar
     7     3    11   ar
     8     4     5   ar
     9     5     6   ar
    10     5     9   ar
    11     6     7   ar
    12     7     8   ar
    13     7    15   ar
    14     8     9   ar
    15     8    12   ar
    16     9    10   ar
    17    10    11   ar
    18    12    13   ar
    19    13    14   ar
    20    14    15   ar
    21    16    17   ar
    22    16    27   ar
    23    17    18   ar
    24    18    19   ar
    25    19    20    1
    26    19    26   ar
    27    20    21   am
    28    20    25    1
    29    21    22    2
    30    21    23    1
    31    23    24    1
    32    24    25    1
    33    26    27   ar
