@<TRIPOS>MOLECULE
31818_ChemDiv_5506-0237
 28 32 0 0 0
SMALL
GASTEIGER
Energy = 0

@<TRIPOS>ATOM
      1 C          -1.7540   -0.0960    0.0000 C.ar    1  LIG1        0.0923
      2 C          -0.9170    0.3710    0.0000 C.ar    1  LIG1        0.1715
      3 N          -0.1000   -0.1130    0.0000 N.ar    1  LIG1       -0.1903
      4 N           0.7290    0.3670    0.0000 N.ar    1  LIG1       -0.1435
      5 C           0.7290    1.3250    0.0000 C.ar    1  LIG1        0.2049
      6 N          -0.9170    1.3250    0.0000 N.ar    1  LIG1       -0.2064
      7 C           1.4130    1.9960    0.0000 C.3     1  LIG1        0.2720
      8 O           2.3330    1.7580    0.0000 O.3     1  LIG1       -0.4672
      9 C           3.0170    2.4170    0.0000 C.ar    1  LIG1        0.1393
     10 C           2.7750    3.3330    0.0000 C.ar    1  LIG1        0.0378
     11 C           3.4420    4.0040    0.0000 C.ar    1  LIG1        0.0145
     12 C           4.3710    3.7630    0.0000 C.ar    1  LIG1        0.0579
     13 CL          5.0500    4.4330    0.0000 Cl      1  LIG1       -0.0822
     14 C           4.6170    2.8330    0.0000 C.ar    1  LIG1        0.0145
     15 C           3.9380    2.1710    0.0000 C.ar    1  LIG1        0.0378
     16 C          -0.1000   -1.0630    0.0000 C.ar    1  LIG1        0.2029
     17 N          -0.9290   -1.5420    0.0000 N.ar    1  LIG1       -0.2050
     18 C          -1.7540   -1.0630    0.0000 C.ar    1  LIG1        0.1659
     19 N          -2.5790   -1.5500    0.0000 N.ar    1  LIG1       -0.2293
     20 N          -3.4130   -1.0630    0.0000 N.ar    1  LIG1       -0.1660
     21 C          -3.4130   -0.1130    0.0000 C.ar    1  LIG1        0.1263
     22 C          -2.5670   -2.5170    0.0000 C.3     1  LIG1        0.1554
     23 C          -3.3920   -2.9960    0.0000 C.ar    1  LIG1        0.0022
     24 C          -3.3790   -3.9420    0.0000 C.ar    1  LIG1       -0.0023
     25 C          -4.2040   -4.4330    0.0000 C.ar    1  LIG1       -0.0003
     26 C          -5.0540   -3.9580    0.0000 C.ar    1  LIG1       -0.0000
     27 C          -5.0540   -3.0000    0.0000 C.ar    1  LIG1       -0.0003
     28 C          -4.2250   -2.5170    0.0000 C.ar    1  LIG1       -0.0023
@<TRIPOS>BOND
     1     1     2   ar
     2     1    18   ar
     3     1    21   ar
     4     2     3   ar
     5     2     6   ar
     6     3     4   ar
     7     3    16   ar
     8     4     5   ar
     9     5     6   ar
    10     5     7    1
    11     7     8    1
    12     8     9    1
    13     9    10   ar
    14     9    15   ar
    15    10    11   ar
    16    11    12   ar
    17    12    13    1
    18    12    14   ar
    19    14    15   ar
    20    16    17   ar
    21    17    18   ar
    22    18    19   ar
    23    19    20   ar
    24    19    22    1
    25    20    21   ar
    26    22    23    1
    27    23    24   ar
    28    23    28   ar
    29    24    25   ar
    30    25    26   ar
    31    26    27   ar
    32    27    28   ar
