@<TRIPOS>MOLECULE
31825_ChemDiv_5402-1001
 26 31 0 0 0
SMALL
GASTEIGER
Energy = 0

@<TRIPOS>ATOM
      1 C          -0.5500   -0.1830    0.0000 C.ar    1  LIG1        0.0744
      2 C           0.4420   -0.2920    0.0000 C.ar    1  LIG1        0.0905
      3 N           0.8420   -1.2000    0.0000 N.ar    1  LIG1       -0.1948
      4 C           0.2630   -2.0130    0.0000 C.ar    1  LIG1        0.2546
      5 N          -0.7330   -1.9040    0.0000 N.ar    1  LIG1       -0.2098
      6 C          -1.1460   -0.9830    0.0000 C.ar    1  LIG1        0.0890
      7 C          -2.0960   -0.6790    0.0000 C.ar    1  LIG1        0.0210
      8 C          -2.0960    0.3290    0.0000 C.ar    1  LIG1        0.0405
      9 C          -1.1460    0.6330    0.0000 C.2     1  LIG1        0.1985
     10 O          -0.8290    1.5880    0.0000 O.2     1  LIG1       -0.2865
     11 C          -2.9500    0.8210    0.0000 C.ar    1  LIG1        0.0032
     12 C          -3.8210    0.3170    0.0000 C.ar    1  LIG1        0.0001
     13 C          -3.8210   -0.6790    0.0000 C.ar    1  LIG1        0.0001
     14 C          -2.9500   -1.1790    0.0000 C.ar    1  LIG1        0.0016
     15 N           0.8500   -2.8130    0.0000 N.ar    1  LIG1       -0.1862
     16 C           1.8080   -2.4960    0.0000 C.ar    1  LIG1        0.2226
     17 N           1.7960   -1.5170    0.0000 N.ar    1  LIG1       -0.1397
     18 C           1.0330    0.5250    0.0000 C.ar    1  LIG1        0.0212
     19 C           2.0170    0.4210    0.0000 C.ar    1  LIG1        0.0417
     20 C           2.6080    1.2380    0.0000 C.ar    1  LIG1        0.1765
     21 C           2.2000    2.1460    0.0000 C.ar    1  LIG1        0.1764
     22 O           2.9460    2.8170    0.0000 O.3     1  LIG1       -0.4346
     23 C           3.8170    2.3130    0.0000 C.3     1  LIG1        0.4294
     24 O           3.6130    1.3460    0.0000 O.3     1  LIG1       -0.4346
     25 C           1.2130    2.2540    0.0000 C.ar    1  LIG1        0.0402
     26 C           0.6250    1.4420    0.0000 C.ar    1  LIG1        0.0048
@<TRIPOS>BOND
     1     1     2   ar
     2     1     6   ar
     3     1     9    1
     4     2     3   ar
     5     2    18    1
     6     3     4   ar
     7     3    17   ar
     8     4     5   ar
     9     4    15   ar
    10     5     6   ar
    11     6     7    1
    12     7     8   ar
    13     7    14   ar
    14     8     9    1
    15     8    11   ar
    16     9    10    2
    17    11    12   ar
    18    12    13   ar
    19    13    14   ar
    20    15    16   ar
    21    16    17   ar
    22    18    19   ar
    23    18    26   ar
    24    19    20   ar
    25    20    21   ar
    26    20    24    1
    27    21    22    1
    28    21    25   ar
    29    22    23    1
    30    23    24    1
    31    25    26   ar
