@<TRIPOS>MOLECULE
31827_ChemDiv_5402-1010
 24 27 0 0 0
SMALL
GASTEIGER
Energy = 0

@<TRIPOS>ATOM
      1 C          -0.0630   -0.2000    0.0000 C.ar    1  LIG1        0.0572
      2 C          -0.6580   -0.9960    0.0000 C.ar    1  LIG1        0.0841
      3 N          -0.2460   -1.9210    0.0000 N.ar    1  LIG1       -0.2489
      4 C           0.7500   -2.0250    0.0000 C.ar    1  LIG1        0.0689
      5 C           1.3290   -1.2130    0.0000 C.ar    1  LIG1        0.0821
      6 C           0.9330   -0.3040    0.0000 C.ar    1  LIG1        0.0153
      7 C           1.5210    0.5000    0.0000 C.ar    1  LIG1        0.0009
      8 C           1.1130    1.4250    0.0000 C.ar    1  LIG1        0.0009
      9 C           1.7040    2.2380    0.0000 C.ar    1  LIG1        0.0114
     10 C           2.6880    2.1330    0.0000 C.ar    1  LIG1        0.0577
     11 C           3.0960    1.2250    0.0000 C.ar    1  LIG1        0.0114
     12 C           2.5040    0.4040    0.0000 C.ar    1  LIG1        0.0009
     13 CL          3.2790    2.9380    0.0000 Cl      1  LIG1       -0.0822
     14 C           2.3290   -1.3210    0.0000 C.1     1  LIG1        0.1016
     15 N           3.3290   -1.4380    0.0000 N.1     1  LIG1       -0.1908
     16 C           1.1580   -2.9330    0.0000 C.3     1  LIG1        0.0528
     17 C          -1.6080   -0.6960    0.0000 C.ar    1  LIG1        0.0208
     18 C          -1.6080    0.3170    0.0000 C.ar    1  LIG1        0.0404
     19 C          -0.6580    0.6170    0.0000 C.2     1  LIG1        0.1971
     20 O          -0.3420    1.5710    0.0000 O.2     1  LIG1       -0.2865
     21 C          -2.4580    0.8040    0.0000 C.ar    1  LIG1        0.0032
     22 C          -3.3330    0.3000    0.0000 C.ar    1  LIG1        0.0001
     23 C          -3.3330   -0.6960    0.0000 C.ar    1  LIG1        0.0001
     24 C          -2.4580   -1.1960    0.0000 C.ar    1  LIG1        0.0016
@<TRIPOS>BOND
     1     1     2   ar
     2     1     6   ar
     3     1    19    1
     4     2     3   ar
     5     2    17    1
     6     3     4   ar
     7     4     5   ar
     8     4    16    1
     9     5     6   ar
    10     5    14    1
    11     6     7    1
    12     7     8   ar
    13     7    12   ar
    14     8     9   ar
    15     9    10   ar
    16    10    11   ar
    17    10    13    1
    18    11    12   ar
    19    14    15    3
    20    17    18   ar
    21    17    24   ar
    22    18    19    1
    23    18    21   ar
    24    19    20    2
    25    21    22   ar
    26    22    23   ar
    27    23    24   ar
