@<TRIPOS>MOLECULE
31821_ChemDiv_8016-2787
 28 31 0 0 0
SMALL
GASTEIGER
Energy = 0

@<TRIPOS>ATOM
      1 S          -0.4460    0.5540    0.0000 S.O2    1  LIG1        0.0772
      2 N          -1.2880    1.0460    0.0000 N.3     1  LIG1       -0.0695
      3 C          -2.1250    0.5500    0.0000 C.3     1  LIG1        0.1811
      4 C          -2.1250   -0.4210    0.0000 C.2     1  LIG1        0.2788
      5 O          -2.9710   -0.9080    0.0000 O.2     1  LIG1       -0.2701
      6 N          -1.2830   -0.9080    0.0000 N.am    1  LIG1       -0.0865
      7 C          -2.9750    1.0330    0.0000 C.3     1  LIG1        0.0551
      8 C          -3.8210    0.5460    0.0000 C.ar    1  LIG1       -0.0202
      9 C          -3.8210   -0.4330    0.0000 C.ar    1  LIG1       -0.0042
     10 C          -4.6580   -0.9170    0.0000 C.ar    1  LIG1       -0.0003
     11 C          -5.5000   -0.4330    0.0000 C.ar    1  LIG1       -0.0000
     12 C          -5.5000    0.5460    0.0000 C.ar    1  LIG1       -0.0003
     13 C          -4.6580    1.0330    0.0000 C.ar    1  LIG1       -0.0042
     14 C           0.4000    0.0670    0.0000 C.ar    1  LIG1        0.1238
     15 C           1.2420    0.5630    0.0000 C.ar    1  LIG1        0.0231
     16 C           2.0830    0.0670    0.0000 C.ar    1  LIG1        0.0388
     17 C           2.0830   -0.9170    0.0000 C.ar    1  LIG1        0.1454
     18 O           2.9330   -1.4040    0.0000 O.2     1  LIG1       -0.4535
     19 C           3.7830   -0.9170    0.0000 C.ar    1  LIG1        0.1453
     20 C           3.7830    0.0670    0.0000 C.ar    1  LIG1        0.0375
     21 C           4.6420    0.5630    0.0000 C.ar    1  LIG1        0.0031
     22 C           5.4960    0.0670    0.0000 C.ar    1  LIG1        0.0002
     23 C           5.4960   -0.9170    0.0000 C.ar    1  LIG1        0.0031
     24 C           4.6420   -1.4040    0.0000 C.ar    1  LIG1        0.0375
     25 C           1.2420   -1.4040    0.0000 C.ar    1  LIG1        0.0389
     26 C           0.4000   -0.9170    0.0000 C.ar    1  LIG1        0.0231
     27 O           0.0460    1.4080    0.0000 O.2     1  LIG1       -0.1516
     28 O          -0.9330   -0.2830    0.0000 O.2     1  LIG1       -0.1516
@<TRIPOS>BOND
     1     1     2    1
     2     1    14    1
     3     1    27    2
     4     1    28    2
     5     2     3    1
     6     3     4    1
     7     3     7    1
     8     4     5    2
     9     4     6   am
    10     7     8    1
    11     8     9   ar
    12     8    13   ar
    13     9    10   ar
    14    10    11   ar
    15    11    12   ar
    16    12    13   ar
    17    14    15   ar
    18    14    26   ar
    19    15    16   ar
    20    16    17   ar
    21    16    20   ar
    22    17    18   ar
    23    17    25   ar
    24    18    19   ar
    25    19    20   ar
    26    19    24   ar
    27    20    21   ar
    28    21    22   ar
    29    22    23   ar
    30    23    24   ar
    31    25    26   ar
