@<TRIPOS>MOLECULE
31828_ChemDiv_5436-0828
 21 24 0 0 0
SMALL
GASTEIGER
Energy = 0

@<TRIPOS>ATOM
      1 C           1.0250    0.5000    0.0000 C.ar    1  LIG1        0.1472
      2 C           1.0250   -0.5080    0.0000 C.ar    1  LIG1        0.0305
      3 C           1.8960   -1.0040    0.0000 C.ar    1  LIG1       -0.0167
      4 C           2.7500   -0.5080    0.0000 C.ar    1  LIG1        0.0503
      5 C           2.7500    0.5000    0.0000 C.ar    1  LIG1        0.3414
      6 O           1.8960    0.9960    0.0000 O.2     1  LIG1       -0.4215
      7 O           3.6330    0.9960    0.0000 O.2     1  LIG1       -0.2448
      8 C           3.6210   -1.0210    0.0000 C.3     1  LIG1        0.0375
      9 C           1.8960   -2.0080    0.0000 C.3     1  LIG1        0.0310
     10 C           0.1460   -1.0040    0.0000 C.ar    1  LIG1        0.0055
     11 C          -0.7080   -0.5080    0.0000 C.ar    1  LIG1        0.0330
     12 C          -0.7080    0.5000    0.0000 C.ar    1  LIG1        0.1434
     13 O          -1.6710    0.8000    0.0000 O.2     1  LIG1       -0.4583
     14 C          -2.2670   -0.0210    0.0000 C.ar    1  LIG1        0.1188
     15 C          -1.6710   -0.8210    0.0000 C.ar    1  LIG1        0.0111
     16 C          -2.0830   -1.7130    0.0000 C.3     1  LIG1        0.0292
     17 C          -3.0670   -1.8250    0.0000 C.3     1  LIG1        0.0052
     18 C          -3.6380   -1.0210    0.0000 C.3     1  LIG1        0.0083
     19 C          -3.2380   -0.1080    0.0000 C.3     1  LIG1        0.0642
     20 C           0.1460    0.9960    0.0000 C.ar    1  LIG1        0.0472
     21 C           0.1460    2.0130    0.0000 C.3     1  LIG1        0.0375
@<TRIPOS>BOND
     1     1     2   ar
     2     1     6   ar
     3     1    20   ar
     4     2     3   ar
     5     2    10   ar
     6     3     4   ar
     7     3     9    1
     8     4     5   ar
     9     4     8    1
    10     5     6   ar
    11     5     7    2
    12    10    11   ar
    13    11    12   ar
    14    11    15   ar
    15    12    13   ar
    16    12    20   ar
    17    13    14   ar
    18    14    15   ar
    19    14    19    1
    20    15    16    1
    21    16    17    1
    22    17    18    1
    23    18    19    1
    24    20    21    1
