@<TRIPOS>MOLECULE
31829_ChemDiv_5408-0428
 21 24 0 0 0
SMALL
GASTEIGER
Energy = 0

@<TRIPOS>ATOM
      1 C           0.9290    0.0210    0.0000 C.3     1  LIG1        0.2289
      2 S           0.0380   -0.4880    0.0000 S.3     1  LIG1       -0.0602
      3 C          -0.7750    0.1040    0.0000 C.2     1  LIG1        0.1308
      4 N          -0.4290    1.0380    0.0000 N.2     1  LIG1       -0.1555
      5 N           0.5880    1.0380    0.0000 N.pl3   1  LIG1       -0.1227
      6 C          -1.7380   -0.1830    0.0000 C.ar    1  LIG1        0.0640
      7 C          -1.9460   -1.1460    0.0000 C.ar    1  LIG1        0.1976
      8 O          -1.2380   -1.8460    0.0000 O.3     1  LIG1       -0.2865
      9 C          -2.8830   -1.4460    0.0000 C.ar    1  LIG1        0.0421
     10 C          -3.6420   -0.7920    0.0000 C.ar    1  LIG1        0.0033
     11 C          -3.4130    0.1790    0.0000 C.ar    1  LIG1        0.0003
     12 C          -2.4830    0.4880    0.0000 C.ar    1  LIG1        0.0053
     13 C           1.2580   -0.8920    0.0000 C.2     1  LIG1        0.2790
     14 N           2.2500   -1.0380    0.0000 N.am    1  LIG1       -0.1770
     15 C           2.6290   -0.1580    0.0000 C.ar    1  LIG1        0.0723
     16 C           1.8080    0.4250    0.0000 C.ar    1  LIG1        0.0307
     17 C           1.9170    1.4250    0.0000 C.ar    1  LIG1       -0.0000
     18 C           2.8210    1.8500    0.0000 C.ar    1  LIG1       -0.0001
     19 C           3.6380    1.2920    0.0000 C.ar    1  LIG1        0.0013
     20 C           3.5420    0.2500    0.0000 C.ar    1  LIG1        0.0164
     21 O           0.6250   -1.6540    0.0000 O.2     1  LIG1       -0.2698
@<TRIPOS>BOND
     1     1     2    1
     2     1     5    1
     3     1    13    1
     4     1    16    1
     5     2     3    1
     6     3     4    2
     7     3     6    1
     8     4     5    1
     9     6     7   ar
    10     6    12   ar
    11     7     8    1
    12     7     9   ar
    13     9    10   ar
    14    10    11   ar
    15    11    12   ar
    16    13    14   am
    17    13    21    2
    18    14    15    1
    19    15    16   ar
    20    15    20   ar
    21    16    17   ar
    22    17    18   ar
    23    18    19   ar
    24    19    20   ar
