@<TRIPOS>MOLECULE
31822_ChemDiv_5510-1010
 16 18 0 0 0
SMALL
GASTEIGER
Energy = 0

@<TRIPOS>ATOM
      1 C          -0.8750   -0.0380    0.0000 C.ar    1  LIG1        0.1085
      2 C          -0.0170    0.4630    0.0000 C.ar    1  LIG1        0.1204
      3 N           0.8380   -0.0380    0.0000 N.ar    1  LIG1       -0.2007
      4 C           1.7210    0.4630    0.0000 C.ar    1  LIG1        0.3374
      5 C           1.7210    1.4750    0.0000 C.ar    1  LIG1        0.3373
      6 N           0.8500    1.9750    0.0000 N.ar    1  LIG1       -0.2022
      7 C          -0.0170    1.4750    0.0000 C.ar    1  LIG1        0.1039
      8 C          -0.8750    1.9750    0.0000 C.ar    1  LIG1        0.0214
      9 C          -1.7460    1.4580    0.0000 C.ar    1  LIG1        0.0097
     10 C          -1.7460    0.4670    0.0000 C.ar    1  LIG1        0.0514
     11 S          -2.4920   -0.2000    0.0000 S.2     1  LIG1       -0.0484
     12 C          -2.0830   -1.1080    0.0000 C.ar    1  LIG1        0.2006
     13 N          -1.0960   -1.0040    0.0000 N.ar    1  LIG1       -0.2199
     14 N          -2.5920   -1.9710    0.0000 N.pl3   1  LIG1       -0.0998
     15 O           2.5880    1.9580    0.0000 O.3     1  LIG1       -0.2599
     16 O           2.5830   -0.0380    0.0000 O.3     1  LIG1       -0.2599
@<TRIPOS>BOND
     1     1     2   ar
     2     1    10   ar
     3     1    13   ar
     4     2     3   ar
     5     2     7   ar
     6     3     4   ar
     7     4     5   ar
     8     4    16    1
     9     5     6   ar
    10     5    15    1
    11     6     7   ar
    12     7     8   ar
    13     8     9   ar
    14     9    10   ar
    15    10    11   ar
    16    11    12   ar
    17    12    13   ar
    18    12    14    1
