@<TRIPOS>MOLECULE
31823_ChemDiv_5293-0010
 23 25 0 0 0
SMALL
GASTEIGER
Energy = 0

@<TRIPOS>ATOM
      1 S           2.6710    0.8380    0.0000 S.O2    1  LIG1        0.0769
      2 C           2.1960   -0.0420    0.0000 C.ar    1  LIG1        0.1238
      3 C           1.2460   -0.0790    0.0000 C.ar    1  LIG1        0.0231
      4 C           0.7500   -0.9330    0.0000 C.ar    1  LIG1        0.0389
      5 C          -0.2500   -1.1580    0.0000 C.ar    1  LIG1        0.0389
      6 C          -0.3210   -2.1420    0.0000 C.ar    1  LIG1        0.1454
      7 O           0.5750   -2.5330    0.0000 O.2     1  LIG1       -0.4535
      8 C           1.2460   -1.7880    0.0000 C.ar    1  LIG1        0.1454
      9 C           2.2460   -1.7880    0.0000 C.ar    1  LIG1        0.0389
     10 C           2.7420   -0.9330    0.0000 C.ar    1  LIG1        0.0231
     11 C          -1.2380   -2.5710    0.0000 C.ar    1  LIG1        0.0389
     12 C          -2.0290   -2.0210    0.0000 C.ar    1  LIG1        0.0231
     13 C          -1.9500   -1.0170    0.0000 C.ar    1  LIG1        0.1238
     14 S          -2.7420   -0.3920    0.0000 S.O2    1  LIG1        0.0769
     15 O          -3.3750   -1.2170    0.0000 O.2     1  LIG1       -0.1516
     16 O          -2.1460    0.4080    0.0000 O.2     1  LIG1       -0.1516
     17 N          -3.5710    0.2080    0.0000 N.3     1  LIG1       -0.0762
     18 C          -3.4290    1.2040    0.0000 C.3     1  LIG1        0.1362
     19 C          -1.0630   -0.5880    0.0000 C.ar    1  LIG1        0.0231
     20 O           1.7710    1.2920    0.0000 O.2     1  LIG1       -0.1516
     21 O           3.5670    0.3830    0.0000 O.2     1  LIG1       -0.1516
     22 N           3.1040    1.7460    0.0000 N.3     1  LIG1       -0.0762
     23 C           2.5710    2.5750    0.0000 C.3     1  LIG1        0.1362
@<TRIPOS>BOND
     1     1     2    1
     2     1    20    2
     3     1    21    2
     4     1    22    1
     5     2     3   ar
     6     2    10   ar
     7     3     4   ar
     8     4     5   ar
     9     4     8   ar
    10     5     6   ar
    11     5    19   ar
    12     6     7   ar
    13     6    11   ar
    14     7     8   ar
    15     8     9   ar
    16     9    10   ar
    17    11    12   ar
    18    12    13   ar
    19    13    14    1
    20    13    19   ar
    21    14    15    2
    22    14    16    2
    23    14    17    1
    24    17    18    1
    25    22    23    1
