@<TRIPOS>MOLECULE
31820_ChemDiv_5506-0240
 29 33 0 0 0
SMALL
GASTEIGER
Energy = 0

@<TRIPOS>ATOM
      1 C          -1.5420    0.1170    0.0000 C.ar    1  LIG1        0.0923
      2 C          -0.7000    0.5880    0.0000 C.ar    1  LIG1        0.1715
      3 N           0.1170    0.1000    0.0000 N.ar    1  LIG1       -0.1903
      4 N           0.9460    0.5790    0.0000 N.ar    1  LIG1       -0.1435
      5 C           0.9460    1.5380    0.0000 C.ar    1  LIG1        0.2049
      6 N          -0.7000    1.5380    0.0000 N.ar    1  LIG1       -0.2064
      7 C           1.6290    2.2130    0.0000 C.3     1  LIG1        0.2720
      8 O           2.5540    1.9750    0.0000 O.3     1  LIG1       -0.4678
      9 C           3.2330    2.6330    0.0000 C.ar    1  LIG1        0.1311
     10 C           4.1540    2.3880    0.0000 C.ar    1  LIG1        0.0118
     11 C           4.8380    3.0500    0.0000 C.ar    1  LIG1       -0.0013
     12 C           4.5920    3.9790    0.0000 C.ar    1  LIG1       -0.0004
     13 C           3.6630    4.2210    0.0000 C.ar    1  LIG1       -0.0013
     14 C           2.9920    3.5500    0.0000 C.ar    1  LIG1        0.0118
     15 C           2.0630    3.7960    0.0000 C.3     1  LIG1        0.0342
     16 C           4.3960    1.4580    0.0000 C.3     1  LIG1        0.0342
     17 C           0.1170   -0.8540    0.0000 C.ar    1  LIG1        0.2029
     18 N          -0.7170   -1.3330    0.0000 N.ar    1  LIG1       -0.2050
     19 C          -1.5420   -0.8540    0.0000 C.ar    1  LIG1        0.1659
     20 N          -2.3670   -1.3380    0.0000 N.ar    1  LIG1       -0.2293
     21 N          -3.2000   -0.8540    0.0000 N.ar    1  LIG1       -0.1660
     22 C          -3.2000    0.1000    0.0000 C.ar    1  LIG1        0.1263
     23 C          -2.3540   -2.3040    0.0000 C.3     1  LIG1        0.1554
     24 C          -3.1790   -2.7830    0.0000 C.ar    1  LIG1        0.0022
     25 C          -4.0130   -2.3040    0.0000 C.ar    1  LIG1       -0.0023
     26 C          -4.8420   -2.7880    0.0000 C.ar    1  LIG1       -0.0003
     27 C          -4.8420   -3.7500    0.0000 C.ar    1  LIG1       -0.0000
     28 C          -3.9960   -4.2250    0.0000 C.ar    1  LIG1       -0.0003
     29 C          -3.1670   -3.7330    0.0000 C.ar    1  LIG1       -0.0023
@<TRIPOS>BOND
     1     1     2   ar
     2     1    19   ar
     3     1    22   ar
     4     2     3   ar
     5     2     6   ar
     6     3     4   ar
     7     3    17   ar
     8     4     5   ar
     9     5     6   ar
    10     5     7    1
    11     7     8    1
    12     8     9    1
    13     9    10   ar
    14     9    14   ar
    15    10    11   ar
    16    10    16    1
    17    11    12   ar
    18    12    13   ar
    19    13    14   ar
    20    14    15    1
    21    17    18   ar
    22    18    19   ar
    23    19    20   ar
    24    20    21   ar
    25    20    23    1
    26    21    22   ar
    27    23    24    1
    28    24    25   ar
    29    24    29   ar
    30    25    26   ar
    31    26    27   ar
    32    27    28   ar
    33    28    29   ar
