@<TRIPOS>MOLECULE
31826_ChemDiv_5436-0827
 20 23 0 0 0
SMALL
GASTEIGER
Energy = 0

@<TRIPOS>ATOM
      1 C           1.8960   -0.5130    0.0000 C.ar    1  LIG1       -0.0167
      2 C           1.0250    0.0000    0.0000 C.ar    1  LIG1        0.0308
      3 C           1.0250    0.9920    0.0000 C.ar    1  LIG1        0.1514
      4 O           1.8960    1.5040    0.0000 O.2     1  LIG1       -0.4212
      5 C           2.7500    0.9920    0.0000 C.ar    1  LIG1        0.3414
      6 C           2.7500    0.0000    0.0000 C.ar    1  LIG1        0.0503
      7 C           3.6170   -0.5130    0.0000 C.3     1  LIG1        0.0375
      8 O           3.6290    1.5040    0.0000 O.2     1  LIG1       -0.2448
      9 C           0.1460    1.5040    0.0000 C.ar    1  LIG1        0.0750
     10 C          -0.7080    0.9920    0.0000 C.ar    1  LIG1        0.1476
     11 C          -0.7080    0.0000    0.0000 C.ar    1  LIG1        0.0334
     12 C          -1.6710   -0.3210    0.0000 C.ar    1  LIG1        0.0111
     13 C          -2.2630    0.4920    0.0000 C.ar    1  LIG1        0.1188
     14 O          -1.6710    1.3040    0.0000 O.2     1  LIG1       -0.4580
     15 C          -3.2380    0.3920    0.0000 C.3     1  LIG1        0.0642
     16 C          -3.6330   -0.5210    0.0000 C.3     1  LIG1        0.0083
     17 C          -3.0670   -1.3210    0.0000 C.3     1  LIG1        0.0052
     18 C          -2.0830   -1.2130    0.0000 C.3     1  LIG1        0.0292
     19 C           0.1460   -0.5130    0.0000 C.ar    1  LIG1        0.0055
     20 C           1.8960   -1.5000    0.0000 C.3     1  LIG1        0.0310
@<TRIPOS>BOND
     1     1     2   ar
     2     1     6   ar
     3     1    20    1
     4     2     3   ar
     5     2    19   ar
     6     3     4   ar
     7     3     9   ar
     8     4     5   ar
     9     5     6   ar
    10     5     8    2
    11     6     7    1
    12     9    10   ar
    13    10    11   ar
    14    10    14   ar
    15    11    12   ar
    16    11    19   ar
    17    12    13   ar
    18    12    18    1
    19    13    14   ar
    20    13    15    1
    21    15    16    1
    22    16    17    1
    23    17    18    1
