@<TRIPOS>MOLECULE
31833_ChemDiv_6415-0443
 22 25 0 0 0
SMALL
GASTEIGER
Energy = 0

@<TRIPOS>ATOM
      1 C           0.5750   -0.2040    0.0000 C.3     1  LIG1        0.2296
      2 S          -0.2420   -0.7920    0.0000 S.3     1  LIG1       -0.0603
      3 C          -1.0500   -0.2040    0.0000 C.2     1  LIG1        0.1277
      4 N          -0.7420    0.7540    0.0000 N.2     1  LIG1       -0.1556
      5 N           0.2580    0.7580    0.0000 N.pl3   1  LIG1       -0.1226
      6 C          -2.0000   -0.5170    0.0000 C.ar    1  LIG1        0.0251
      7 C          -2.2130   -1.4880    0.0000 C.ar    1  LIG1        0.0021
      8 C          -3.1580   -1.8000    0.0000 C.ar    1  LIG1        0.0001
      9 C          -3.9080   -1.1250    0.0000 C.ar    1  LIG1        0.0000
     10 C          -3.7040   -0.1420    0.0000 C.ar    1  LIG1        0.0001
     11 C          -2.7420    0.1630    0.0000 C.ar    1  LIG1        0.0021
     12 C           1.3750    0.3880    0.0000 C.ar    1  LIG1        0.0409
     13 C           2.1880   -0.2040    0.0000 C.ar    1  LIG1        0.0692
     14 N           1.8750   -1.1500    0.0000 N.am    1  LIG1       -0.1773
     15 C           0.8750   -1.1500    0.0000 C.2     1  LIG1        0.2790
     16 O           0.2960   -1.9580    0.0000 O.2     1  LIG1       -0.2698
     17 C           3.0960    0.2080    0.0000 C.ar    1  LIG1       -0.0067
     18 C           3.2040    1.1960    0.0000 C.ar    1  LIG1       -0.0021
     19 C           2.3880    1.7790    0.0000 C.ar    1  LIG1        0.0109
     20 C           1.4830    1.3710    0.0000 C.ar    1  LIG1        0.0578
     21 CL          0.6750    1.9630    0.0000 Cl      1  LIG1       -0.0824
     22 C           3.9040   -0.3830    0.0000 C.3     1  LIG1        0.0324
@<TRIPOS>BOND
     1     1     2    1
     2     1     5    1
     3     1    12    1
     4     1    15    1
     5     2     3    1
     6     3     4    2
     7     3     6    1
     8     4     5    1
     9     6     7   ar
    10     6    11   ar
    11     7     8   ar
    12     8     9   ar
    13     9    10   ar
    14    10    11   ar
    15    12    13   ar
    16    12    20   ar
    17    13    14    1
    18    13    17   ar
    19    14    15   am
    20    15    16    2
    21    17    18   ar
    22    17    22    1
    23    18    19   ar
    24    19    20   ar
    25    20    21    1
