@<TRIPOS>MOLECULE
31832_ChemDiv_5436-0888
 20 23 0 0 0
SMALL
GASTEIGER
Energy = 0

@<TRIPOS>ATOM
      1 C           0.3330    0.7580    0.0000 C.ar    1  LIG1        0.1472
      2 C           0.3330   -0.2330    0.0000 C.ar    1  LIG1        0.0305
      3 C           1.1960   -0.7420    0.0000 C.ar    1  LIG1       -0.0170
      4 C           2.0710   -0.2330    0.0000 C.ar    1  LIG1        0.0499
      5 C           2.0710    0.7580    0.0000 C.ar    1  LIG1        0.3414
      6 O           1.1960    1.2580    0.0000 O.2     1  LIG1       -0.4215
      7 O           2.9380    1.2580    0.0000 O.2     1  LIG1       -0.2449
      8 C           2.9250   -0.7420    0.0000 C.3     1  LIG1        0.0326
      9 C           2.9250   -1.7500    0.0000 C.3     1  LIG1        0.0052
     10 C           2.0710   -2.2500    0.0000 C.3     1  LIG1        0.0050
     11 C           1.2040   -1.7500    0.0000 C.3     1  LIG1        0.0264
     12 C          -0.5330   -0.7420    0.0000 C.ar    1  LIG1        0.0055
     13 C          -1.4000   -0.2330    0.0000 C.ar    1  LIG1        0.0335
     14 C          -1.4000    0.7580    0.0000 C.ar    1  LIG1        0.1440
     15 C          -0.5330    1.2580    0.0000 C.ar    1  LIG1        0.0472
     16 C          -0.5330    2.2540    0.0000 C.3     1  LIG1        0.0375
     17 O          -2.3500    1.0630    0.0000 O.2     1  LIG1       -0.4510
     18 C          -2.9420    0.2540    0.0000 C.ar    1  LIG1        0.1752
     19 C          -2.3500   -0.5500    0.0000 C.ar    1  LIG1        0.0187
     20 C          -2.6580   -1.5040    0.0000 C.3     1  LIG1        0.0344
@<TRIPOS>BOND
     1     1     2   ar
     2     1     6   ar
     3     1    15   ar
     4     2     3   ar
     5     2    12   ar
     6     3     4   ar
     7     3    11    1
     8     4     5   ar
     9     4     8    1
    10     5     6   ar
    11     5     7    2
    12     8     9    1
    13     9    10    1
    14    10    11    1
    15    12    13   ar
    16    13    14   ar
    17    13    19   ar
    18    14    15   ar
    19    14    17   ar
    20    15    16    1
    21    17    18   ar
    22    18    19   ar
    23    19    20    1
