@<TRIPOS>MOLECULE
31830_ChemDiv_5436-0830
 21 24 0 0 0
SMALL
GASTEIGER
Energy = 0

@<TRIPOS>ATOM
      1 C          -0.7040    0.7500    0.0000 C.ar    1  LIG1        0.0334
      2 C          -0.7040    1.7500    0.0000 C.ar    1  LIG1        0.1476
      3 O          -1.6580    2.0500    0.0000 O.2     1  LIG1       -0.4580
      4 C          -2.2500    1.2380    0.0000 C.ar    1  LIG1        0.1188
      5 C          -1.6580    0.4330    0.0000 C.ar    1  LIG1        0.0111
      6 C          -2.0630   -0.4880    0.0000 C.3     1  LIG1        0.0292
      7 C          -3.0670   -0.5880    0.0000 C.3     1  LIG1        0.0052
      8 C          -3.6380    0.2130    0.0000 C.3     1  LIG1        0.0083
      9 C          -3.2380    1.1290    0.0000 C.3     1  LIG1        0.0642
     10 C           0.1710    2.2540    0.0000 C.ar    1  LIG1        0.0750
     11 C           1.0330    1.7500    0.0000 C.ar    1  LIG1        0.1514
     12 C           1.0330    0.7500    0.0000 C.ar    1  LIG1        0.0311
     13 C           1.8960    0.2460    0.0000 C.ar    1  LIG1       -0.0128
     14 C           2.7500    0.7500    0.0000 C.ar    1  LIG1        0.0781
     15 C           2.7500    1.7500    0.0000 C.ar    1  LIG1        0.3456
     16 O           1.8960    2.2540    0.0000 O.2     1  LIG1       -0.4209
     17 O           3.6330    2.2540    0.0000 O.2     1  LIG1       -0.2445
     18 C           1.8960   -0.7580    0.0000 C.3     1  LIG1        0.0267
     19 C           2.7500   -1.2460    0.0000 C.3     1  LIG1        0.0047
     20 C           2.7500   -2.2500    0.0000 C.3     1  LIG1        0.0004
     21 C           0.1710    0.2460    0.0000 C.ar    1  LIG1        0.0055
@<TRIPOS>BOND
     1     1     2   ar
     2     1     5   ar
     3     1    21   ar
     4     2     3   ar
     5     2    10   ar
     6     3     4   ar
     7     4     5   ar
     8     4     9    1
     9     5     6    1
    10     6     7    1
    11     7     8    1
    12     8     9    1
    13    10    11   ar
    14    11    12   ar
    15    11    16   ar
    16    12    13   ar
    17    12    21   ar
    18    13    14   ar
    19    13    18    1
    20    14    15   ar
    21    15    16   ar
    22    15    17    2
    23    18    19    1
    24    19    20    1
