@<TRIPOS>MOLECULE
31831_ChemDiv_5408-0440
 26 30 0 0 0
SMALL
GASTEIGER
Energy = 0

@<TRIPOS>ATOM
      1 C           1.1500   -0.7790    0.0000 C.3     1  LIG1        0.2288
      2 S           0.2580   -1.2920    0.0000 S.3     1  LIG1       -0.0603
      3 C          -0.5580   -0.6920    0.0000 C.2     1  LIG1        0.1277
      4 N          -0.2130    0.2420    0.0000 N.2     1  LIG1       -0.1556
      5 N           0.8080    0.2420    0.0000 N.pl3   1  LIG1       -0.1227
      6 C          -1.5210   -0.9790    0.0000 C.ar    1  LIG1        0.0251
      7 C          -2.2750   -0.3080    0.0000 C.ar    1  LIG1        0.0020
      8 C          -3.2080   -0.6170    0.0000 C.ar    1  LIG1        0.0001
      9 C          -3.4380   -1.5960    0.0000 C.ar    1  LIG1        0.0000
     10 C          -2.6830   -2.2500    0.0000 C.ar    1  LIG1        0.0001
     11 C          -1.7380   -1.9500    0.0000 C.ar    1  LIG1        0.0021
     12 C          -3.9750    0.0380    0.0000 C.ar    1  LIG1        0.0000
     13 C          -3.7460    1.0080    0.0000 C.ar    1  LIG1        0.0000
     14 C          -2.8000    1.3170    0.0000 C.ar    1  LIG1        0.0000
     15 C          -2.0880    0.6500    0.0000 C.ar    1  LIG1        0.0001
     16 C           2.0330   -0.3710    0.0000 C.ar    1  LIG1        0.0303
     17 C           2.8580   -0.9540    0.0000 C.ar    1  LIG1        0.0723
     18 N           2.4750   -1.8420    0.0000 N.am    1  LIG1       -0.1770
     19 C           1.4830   -1.7000    0.0000 C.2     1  LIG1        0.2790
     20 O           0.8460   -2.4580    0.0000 O.2     1  LIG1       -0.2698
     21 C           3.7790   -0.5500    0.0000 C.ar    1  LIG1        0.0160
     22 C           3.8750    0.4960    0.0000 C.ar    1  LIG1       -0.0029
     23 C           3.0540    1.0580    0.0000 C.ar    1  LIG1       -0.0223
     24 C           2.1460    0.6330    0.0000 C.ar    1  LIG1       -0.0043
     25 C           3.1170    2.0380    0.0000 C.3     1  LIG1        0.0264
     26 C           3.9710    2.4630    0.0000 C.3     1  LIG1        0.0050
@<TRIPOS>BOND
     1     1     2    1
     2     1     5    1
     3     1    16    1
     4     1    19    1
     5     2     3    1
     6     3     4    2
     7     3     6    1
     8     4     5    1
     9     6     7   ar
    10     6    11   ar
    11     7     8   ar
    12     7    15   ar
    13     8     9   ar
    14     8    12   ar
    15     9    10   ar
    16    10    11   ar
    17    12    13   ar
    18    13    14   ar
    19    14    15   ar
    20    16    17   ar
    21    16    24   ar
    22    17    18    1
    23    17    21   ar
    24    18    19   am
    25    19    20    2
    26    21    22   ar
    27    22    23   ar
    28    23    24   ar
    29    23    25    1
    30    25    26    1
