@<TRIPOS>MOLECULE
31835_ChemDiv_6415-0838
 19 21 0 0 0
SMALL
GASTEIGER
Energy = 0

@<TRIPOS>ATOM
      1 S           0.2130   -0.2670    0.0000 S.3     1  LIG1       -0.0647
      2 C          -0.6080    0.3170    0.0000 C.2     1  LIG1        0.1274
      3 N          -0.2960    1.2750    0.0000 N.2     1  LIG1       -0.1560
      4 N           0.7040    1.2750    0.0000 N.pl3   1  LIG1       -0.1272
      5 C           1.0170    0.3250    0.0000 C.3     1  LIG1        0.2060
      6 C           1.9670    0.0210    0.0000 C.ar    1  LIG1        0.0907
      7 N           2.7040    0.6880    0.0000 N.ar    1  LIG1       -0.2513
      8 C           3.6540    0.3830    0.0000 C.ar    1  LIG1        0.0591
      9 C           3.8670   -0.5960    0.0000 C.ar    1  LIG1        0.0147
     10 C           3.1210   -1.2710    0.0000 C.ar    1  LIG1        0.0025
     11 C           2.1790   -0.9670    0.0000 C.ar    1  LIG1        0.0174
     12 C           4.4000    1.0630    0.0000 C.3     1  LIG1        0.0521
     13 C          -1.5540    0.0210    0.0000 C.ar    1  LIG1        0.0251
     14 C          -2.2920    0.6830    0.0000 C.ar    1  LIG1        0.0017
     15 C          -3.2420    0.3790    0.0000 C.ar    1  LIG1       -0.0042
     16 C          -3.4540   -0.6080    0.0000 C.ar    1  LIG1       -0.0218
     17 C          -2.6960   -1.2710    0.0000 C.ar    1  LIG1       -0.0042
     18 C          -1.7580   -0.9670    0.0000 C.ar    1  LIG1        0.0017
     19 C          -4.4040   -0.9210    0.0000 C.3     1  LIG1        0.0310
@<TRIPOS>BOND
     1     1     2    1
     2     1     5    1
     3     2     3    2
     4     2    13    1
     5     3     4    1
     6     4     5    1
     7     5     6    1
     8     6     7   ar
     9     6    11   ar
    10     7     8   ar
    11     8     9   ar
    12     8    12    1
    13     9    10   ar
    14    10    11   ar
    15    13    14   ar
    16    13    18   ar
    17    14    15   ar
    18    15    16   ar
    19    16    17   ar
    20    16    19    1
    21    17    18   ar
