@<TRIPOS>MOLECULE
31834_ChemDiv_5436-0889
 21 24 0 0 0
SMALL
GASTEIGER
Energy = 0

@<TRIPOS>ATOM
      1 C           0.8250    0.7580    0.0000 C.ar    1  LIG1        0.1472
      2 C           0.8250   -0.2330    0.0000 C.ar    1  LIG1        0.0305
      3 C           1.6880   -0.7420    0.0000 C.ar    1  LIG1       -0.0170
      4 C           2.5630   -0.2330    0.0000 C.ar    1  LIG1        0.0499
      5 C           2.5630    0.7580    0.0000 C.ar    1  LIG1        0.3414
      6 O           1.6880    1.2580    0.0000 O.2     1  LIG1       -0.4215
      7 O           3.4330    1.2580    0.0000 O.2     1  LIG1       -0.2449
      8 C           3.4170   -0.7420    0.0000 C.3     1  LIG1        0.0326
      9 C           3.4170   -1.7500    0.0000 C.3     1  LIG1        0.0052
     10 C           2.5630   -2.2500    0.0000 C.3     1  LIG1        0.0050
     11 C           1.7000   -1.7500    0.0000 C.3     1  LIG1        0.0264
     12 C          -0.0420   -0.7420    0.0000 C.ar    1  LIG1        0.0055
     13 C          -0.9080   -0.2330    0.0000 C.ar    1  LIG1        0.0331
     14 C          -0.9080    0.7580    0.0000 C.ar    1  LIG1        0.1434
     15 O          -1.8580    1.0630    0.0000 O.2     1  LIG1       -0.4583
     16 C          -2.4500    0.2540    0.0000 C.ar    1  LIG1        0.1193
     17 C          -1.8580   -0.5500    0.0000 C.ar    1  LIG1        0.0114
     18 C          -2.1670   -1.5080    0.0000 C.3     1  LIG1        0.0340
     19 C          -3.4380    0.2540    0.0000 C.3     1  LIG1        0.0721
     20 C          -0.0420    1.2580    0.0000 C.ar    1  LIG1        0.0472
     21 C          -0.0420    2.2540    0.0000 C.3     1  LIG1        0.0375
@<TRIPOS>BOND
     1     1     2   ar
     2     1     6   ar
     3     1    20   ar
     4     2     3   ar
     5     2    12   ar
     6     3     4   ar
     7     3    11    1
     8     4     5   ar
     9     4     8    1
    10     5     6   ar
    11     5     7    2
    12     8     9    1
    13     9    10    1
    14    10    11    1
    15    12    13   ar
    16    13    14   ar
    17    13    17   ar
    18    14    15   ar
    19    14    20   ar
    20    15    16   ar
    21    16    17   ar
    22    16    19    1
    23    17    18    1
    24    20    21    1
