@<TRIPOS>MOLECULE
31836_ChemDiv_5436-0836
 23 26 0 0 0
SMALL
GASTEIGER
Energy = 0

@<TRIPOS>ATOM
      1 C          -0.7830    0.7710    0.0000 C.ar    1  LIG1        0.0373
      2 C          -1.7330    0.4580    0.0000 C.ar    1  LIG1        0.0333
      3 C          -2.3250    1.2630    0.0000 C.ar    1  LIG1        0.1232
      4 O          -1.7330    2.0790    0.0000 O.2     1  LIG1       -0.4576
      5 C          -0.7830    1.7710    0.0000 C.ar    1  LIG1        0.1479
      6 C           0.0830    2.2790    0.0000 C.ar    1  LIG1        0.0750
      7 C           0.9500    1.7710    0.0000 C.ar    1  LIG1        0.1514
      8 C           0.9500    0.7710    0.0000 C.ar    1  LIG1        0.0311
      9 C           1.8080    0.2670    0.0000 C.ar    1  LIG1       -0.0128
     10 C           2.6670    0.7710    0.0000 C.ar    1  LIG1        0.0781
     11 C           2.6670    1.7710    0.0000 C.ar    1  LIG1        0.3456
     12 O           1.8080    2.2790    0.0000 O.2     1  LIG1       -0.4209
     13 O           3.5420    2.2790    0.0000 O.2     1  LIG1       -0.2445
     14 C           1.8080   -0.7210    0.0000 C.3     1  LIG1        0.0267
     15 C           2.6670   -1.2250    0.0000 C.3     1  LIG1        0.0050
     16 C           0.0830    0.2670    0.0000 C.ar    1  LIG1        0.0058
     17 C          -3.3290    1.2500    0.0000 C.3     1  LIG1        0.0725
     18 C          -2.1460   -0.4580    0.0000 C.ar    1  LIG1        0.0027
     19 C          -1.5500   -1.2630    0.0000 C.ar    1  LIG1        0.0001
     20 C          -1.9630   -2.1750    0.0000 C.ar    1  LIG1        0.0000
     21 C          -2.9630   -2.2750    0.0000 C.ar    1  LIG1        0.0000
     22 C          -3.5460   -1.4710    0.0000 C.ar    1  LIG1        0.0000
     23 C          -3.1420   -0.5670    0.0000 C.ar    1  LIG1        0.0001
@<TRIPOS>BOND
     1     1     2   ar
     2     1     5   ar
     3     1    16   ar
     4     2     3   ar
     5     2    18    1
     6     3     4   ar
     7     3    17    1
     8     4     5   ar
     9     5     6   ar
    10     6     7   ar
    11     7     8   ar
    12     7    12   ar
    13     8     9   ar
    14     8    16   ar
    15     9    10   ar
    16     9    14    1
    17    10    11   ar
    18    11    12   ar
    19    11    13    2
    20    14    15    1
    21    18    19   ar
    22    18    23   ar
    23    19    20   ar
    24    20    21   ar
    25    21    22   ar
    26    22    23   ar
