@<TRIPOS>MOLECULE
31849_ChemDiv_5298-5217
 24 26 0 0 0
SMALL
GASTEIGER
Energy = 0

@<TRIPOS>ATOM
      1 S          -0.7040   -1.5670    0.0000 S.O2    1  LIG1       -0.0557
      2 N           0.2500   -1.8290    0.0000 N.pl3   1  LIG1       -0.5152
      3 C           0.9540   -1.1250    0.0000 C.ar    1  LIG1        0.0044
      4 N           0.8250   -0.1670    0.0000 N.ar    1  LIG1       -0.2663
      5 C           1.6880    0.3000    0.0000 C.ar    1  LIG1        0.0661
      6 C           2.3960   -0.4000    0.0000 C.ar    1  LIG1        0.0772
      7 S           1.9540   -1.2920    0.0000 S.2     1  LIG1       -0.0879
      8 C           3.3750   -0.1670    0.0000 C.2     1  LIG1        0.1801
      9 C           3.6420    0.8000    0.0000 C.3     1  LIG1        0.0701
     10 C           2.9080    1.5330    0.0000 C.3     1  LIG1        0.0129
     11 C           1.9540    1.2580    0.0000 C.3     1  LIG1        0.0468
     12 C           3.6130    2.2250    0.0000 C.3     1  LIG1        0.0008
     13 C           2.9080    2.5290    0.0000 C.3     1  LIG1        0.0008
     14 O           4.0830   -0.8920    0.0000 O.2     1  LIG1       -0.2908
     15 C          -1.6750   -1.2670    0.0000 C.ar    1  LIG1        0.1007
     16 C          -2.4080   -1.9580    0.0000 C.ar    1  LIG1        0.0292
     17 C          -3.3630   -1.6960    0.0000 C.ar    1  LIG1        0.0590
     18 C          -3.6040   -0.7330    0.0000 C.ar    1  LIG1        0.0123
     19 C          -2.8920   -0.0330    0.0000 C.ar    1  LIG1        0.0135
     20 C          -1.9250   -0.2960    0.0000 C.ar    1  LIG1        0.0734
     21 CL         -1.1920    0.3960    0.0000 Cl      1  LIG1       -0.0810
     22 CL         -4.0880   -2.3960    0.0000 Cl      1  LIG1       -0.0822
     23 O          -0.4330   -0.6000    0.0000 O.2     1  LIG1       -0.1841
     24 O          -0.9880   -2.5250    0.0000 O.2     1  LIG1       -0.1841
@<TRIPOS>BOND
     1     1     2    1
     2     1    15    1
     3     1    23    2
     4     1    24    2
     5     2     3    1
     6     3     4   ar
     7     3     7   ar
     8     4     5   ar
     9     5     6   ar
    10     5    11    1
    11     6     7   ar
    12     6     8    1
    13     8     9    1
    14     8    14    2
    15     9    10    1
    16    10    11    1
    17    10    12    1
    18    10    13    1
    19    15    16   ar
    20    15    20   ar
    21    16    17   ar
    22    17    18   ar
    23    17    22    1
    24    18    19   ar
    25    19    20   ar
    26    20    21    1
