@<TRIPOS>MOLECULE
31844_ChemDiv_6579-0214
 20 21 0 0 0
SMALL
GASTEIGER
Energy = 0

@<TRIPOS>ATOM
      1 N           0.8630    0.5040    0.0000 N.4     1  LIG1        0.3053
      2 C          -0.0040    1.0040    0.0000 C.3     1  LIG1        0.1363
      3 C          -0.8750    0.5040    0.0000 C.ar    1  LIG1        0.0360
      4 C          -1.7420    1.0040    0.0000 C.ar    1  LIG1        0.0414
      5 C          -2.6080    0.5040    0.0000 C.ar    1  LIG1        0.1723
      6 C          -2.6080   -0.4960    0.0000 C.ar    1  LIG1        0.1724
      7 C          -1.7420   -0.9960    0.0000 C.ar    1  LIG1        0.0399
      8 C          -0.8750   -0.4960    0.0000 C.ar    1  LIG1        0.0047
      9 O          -3.4710   -0.9960    0.0000 O.3     1  LIG1       -0.4684
     10 C          -3.4710   -1.9960    0.0000 C.3     1  LIG1        0.2526
     11 O          -3.4710    1.0000    0.0000 O.3     1  LIG1       -0.4684
     12 C          -3.4710    2.0000    0.0000 C.3     1  LIG1        0.2526
     13 C           1.7290    0.0040    0.0000 C.3     1  LIG1        0.0592
     14 C           1.7290   -0.9960    0.0000 C.3     1  LIG1        0.0551
     15 C           2.5960   -1.4960    0.0000 C.3     1  LIG1        0.0059
     16 C           3.4670   -0.9960    0.0000 C.3     1  LIG1        0.0004
     17 C           3.4670    0.0040    0.0000 C.3     1  LIG1        0.0059
     18 C           2.5960    0.5040    0.0000 C.3     1  LIG1        0.0551
     19 C           0.3630   -0.3630    0.0000 C.3     1  LIG1        0.1708
     20 C           1.7290    1.0040    0.0000 C.3     1  LIG1        0.1708
@<TRIPOS>BOND
     1     1     2    1
     2     1    13    1
     3     1    19    1
     4     1    20    1
     5     2     3    1
     6     3     4   ar
     7     3     8   ar
     8     4     5   ar
     9     5     6   ar
    10     5    11    1
    11     6     7   ar
    12     6     9    1
    13     7     8   ar
    14     9    10    1
    15    11    12    1
    16    13    14    1
    17    13    18    1
    18    14    15    1
    19    15    16    1
    20    16    17    1
    21    17    18    1
