@<TRIPOS>MOLECULE
31840_ChemDiv_5436-0862
 23 26 0 0 0
SMALL
GASTEIGER
Energy = 0

@<TRIPOS>ATOM
      1 C          -1.8540    0.5330    0.0000 C.ar    1  LIG1        0.0406
      2 C          -0.9040    0.8540    0.0000 C.ar    1  LIG1        0.0378
      3 C          -0.9040    1.8420    0.0000 C.ar    1  LIG1        0.1485
      4 O          -1.8540    2.1460    0.0000 O.2     1  LIG1       -0.4503
      5 C          -2.4460    1.3380    0.0000 C.ar    1  LIG1        0.1795
      6 C          -0.0380    2.3420    0.0000 C.ar    1  LIG1        0.0750
      7 C           0.8250    1.8420    0.0000 C.ar    1  LIG1        0.1514
      8 C           0.8250    0.8540    0.0000 C.ar    1  LIG1        0.0311
      9 C           1.6920    0.3420    0.0000 C.ar    1  LIG1       -0.0128
     10 C           2.5630    0.8540    0.0000 C.ar    1  LIG1        0.0781
     11 C           2.5630    1.8420    0.0000 C.ar    1  LIG1        0.3456
     12 O           1.6920    2.3420    0.0000 O.2     1  LIG1       -0.4209
     13 O           3.4330    2.3420    0.0000 O.2     1  LIG1       -0.2445
     14 C           1.6920   -0.6460    0.0000 C.3     1  LIG1        0.0267
     15 C           2.5630   -1.1460    0.0000 C.3     1  LIG1        0.0047
     16 C           2.5630   -2.1630    0.0000 C.3     1  LIG1        0.0004
     17 C          -0.0380    0.3420    0.0000 C.ar    1  LIG1        0.0059
     18 C          -2.1630   -0.4210    0.0000 C.ar    1  LIG1        0.0031
     19 C          -3.1330   -0.6420    0.0000 C.ar    1  LIG1        0.0001
     20 C          -3.4380   -1.5880    0.0000 C.ar    1  LIG1        0.0000
     21 C          -2.7710   -2.3380    0.0000 C.ar    1  LIG1        0.0000
     22 C          -1.7960   -2.1000    0.0000 C.ar    1  LIG1        0.0000
     23 C          -1.4920   -1.1460    0.0000 C.ar    1  LIG1        0.0001
@<TRIPOS>BOND
     1     1     2   ar
     2     1     5   ar
     3     1    18    1
     4     2     3   ar
     5     2    17   ar
     6     3     4   ar
     7     3     6   ar
     8     4     5   ar
     9     6     7   ar
    10     7     8   ar
    11     7    12   ar
    12     8     9   ar
    13     8    17   ar
    14     9    10   ar
    15     9    14    1
    16    10    11   ar
    17    11    12   ar
    18    11    13    2
    19    14    15    1
    20    15    16    1
    21    18    19   ar
    22    18    23   ar
    23    19    20   ar
    24    20    21   ar
    25    21    22   ar
    26    22    23   ar
