@<TRIPOS>MOLECULE
31845_ChemDiv_5298-0468
 26 29 0 0 0
SMALL
GASTEIGER
Energy = 0

@<TRIPOS>ATOM
      1 C           0.6080   -0.1250    0.0000 C.ar    1  LIG1        0.2077
      2 S           1.5790   -0.3210    0.0000 S.2     1  LIG1       -0.0330
      3 C           2.0880    0.5420    0.0000 C.ar    1  LIG1        0.1124
      4 N           1.4040    1.2630    0.0000 N.ar    1  LIG1       -0.1440
      5 N           0.5000    0.8670    0.0000 N.ar    1  LIG1       -0.1239
      6 C           3.1040    0.6420    0.0000 C.3     1  LIG1        0.0545
      7 C           3.5000    1.5670    0.0000 C.3     1  LIG1        0.0065
      8 C           4.5170    1.6580    0.0000 C.3     1  LIG1        0.0004
      9 C           2.9250    2.3540    0.0000 C.3     1  LIG1        0.0004
     10 N          -0.1420   -0.7880    0.0000 N.am    1  LIG1       -0.1523
     11 C          -1.1380   -0.7880    0.0000 C.2     1  LIG1        0.2553
     12 C          -2.0960   -0.2960    0.0000 C.3     1  LIG1        0.1288
     13 C          -2.3130    0.6670    0.0000 C.ar    1  LIG1        0.0250
     14 C          -3.2210    0.9630    0.0000 C.ar    1  LIG1        0.1420
     15 O          -3.9750    0.2880    0.0000 O.3     1  LIG1       -0.4541
     16 C          -3.7710   -0.6630    0.0000 C.ar    1  LIG1        0.1420
     17 C          -2.8130   -0.9670    0.0000 C.ar    1  LIG1        0.0250
     18 C          -2.6080   -1.9710    0.0000 C.ar    1  LIG1       -0.0005
     19 C          -3.3460   -2.6460    0.0000 C.ar    1  LIG1       -0.0001
     20 C          -4.3080   -2.3420    0.0000 C.ar    1  LIG1        0.0031
     21 C          -4.5210   -1.3380    0.0000 C.ar    1  LIG1        0.0372
     22 C          -3.4170    1.9630    0.0000 C.ar    1  LIG1        0.0372
     23 C          -2.7170    2.6500    0.0000 C.ar    1  LIG1        0.0031
     24 C          -1.7580    2.3330    0.0000 C.ar    1  LIG1       -0.0001
     25 C          -1.5420    1.3330    0.0000 C.ar    1  LIG1       -0.0005
     26 O          -1.3540   -1.6580    0.0000 O.2     1  LIG1       -0.2722
@<TRIPOS>BOND
     1     1     2   ar
     2     1     5   ar
     3     1    10    1
     4     2     3   ar
     5     3     4   ar
     6     3     6    1
     7     4     5   ar
     8     6     7    1
     9     7     8    1
    10     7     9    1
    11    10    11   am
    12    11    12    1
    13    11    26    2
    14    12    13    1
    15    12    17    1
    16    13    14   ar
    17    13    25   ar
    18    14    15    1
    19    14    22   ar
    20    15    16    1
    21    16    17   ar
    22    16    21   ar
    23    17    18   ar
    24    18    19   ar
    25    19    20   ar
    26    20    21   ar
    27    22    23   ar
    28    23    24   ar
    29    24    25   ar
