@<TRIPOS>MOLECULE
31842_ChemDiv_5513-0160
 17 18 0 0 0
SMALL
GASTEIGER
Energy = 0

@<TRIPOS>ATOM
      1 C          -2.1460   -0.2460    0.0000 C.ar    1  LIG1        0.1773
      2 C          -2.1460   -1.2420    0.0000 C.ar    1  LIG1        0.2293
      3 C          -1.2880   -1.7380    0.0000 C.ar    1  LIG1        0.0451
      4 C          -0.4330   -1.2420    0.0000 C.ar    1  LIG1        0.0051
      5 C          -0.4330   -0.2460    0.0000 C.ar    1  LIG1        0.0434
      6 C          -1.2880    0.2540    0.0000 C.ar    1  LIG1        0.0419
      7 C           0.4210    0.2540    0.0000 C.3     1  LIG1        0.2281
      8 N           1.3460   -0.2460    0.0000 N.4     1  LIG1        0.4471
      9 C           2.1960    0.2540    0.0000 C.3     1  LIG1        0.1439
     10 C           3.0500   -0.2460    0.0000 C.3     1  LIG1        0.0625
     11 C           3.9080    0.2540    0.0000 C.3     1  LIG1        0.0061
     12 C           3.9080    1.2460    0.0000 C.3     1  LIG1        0.0004
     13 C           3.0500    1.7420    0.0000 C.3     1  LIG1        0.0061
     14 C           2.1960    1.2460    0.0000 C.3     1  LIG1        0.0625
     15 O          -3.0670   -1.7380    0.0000 O.3     1  LIG1       -0.2833
     16 O          -3.0670    0.2540    0.0000 O.3     1  LIG1       -0.4682
     17 C          -3.9130   -0.2460    0.0000 C.3     1  LIG1        0.2526
@<TRIPOS>BOND
     1     1     2   ar
     2     1     6   ar
     3     1    16    1
     4     2     3   ar
     5     2    15    1
     6     3     4   ar
     7     4     5   ar
     8     5     6   ar
     9     5     7    1
    10     7     8    1
    11     8     9    1
    12     9    10    1
    13     9    14    1
    14    10    11    1
    15    11    12    1
    16    12    13    1
    17    13    14    1
    18    16    17    1
