@<TRIPOS>MOLECULE
31848_ChemDiv_5518-1924
 33 36 0 0 0
SMALL
GASTEIGER
Energy = 0

@<TRIPOS>ATOM
      1 C           3.9580    2.9330    0.0000 C.ar    1  LIG1        0.2077
      2 S           4.6880    3.5960    0.0000 S.2     1  LIG1       -0.0330
      3 C           5.5330    3.1000    0.0000 C.ar    1  LIG1        0.1128
      4 N           5.3330    2.1290    0.0000 N.ar    1  LIG1       -0.1440
      5 N           4.3420    2.0210    0.0000 N.ar    1  LIG1       -0.1239
      6 C           6.4500    3.4960    0.0000 C.3     1  LIG1        0.0614
      7 N           2.9710    3.1500    0.0000 N.am    1  LIG1       -0.1521
      8 C           2.3080    2.4210    0.0000 C.2     1  LIG1        0.2588
      9 O           2.6080    1.4670    0.0000 O.2     1  LIG1       -0.2720
     10 C           1.3330    2.6210    0.0000 C.3     1  LIG1        0.1521
     11 S           0.5790    1.9750    0.0000 S.3     1  LIG1       -0.0642
     12 C          -0.1920    1.3130    0.0000 C.ar    1  LIG1        0.2110
     13 N          -1.1210    1.6460    0.0000 N.ar    1  LIG1       -0.2183
     14 C          -1.8880    0.9830    0.0000 C.ar    1  LIG1        0.1028
     15 C          -1.7000    0.0080    0.0000 C.ar    1  LIG1        0.1205
     16 N          -0.7630   -0.3250    0.0000 N.ar    1  LIG1       -0.1445
     17 N          -0.0130    0.3380    0.0000 N.ar    1  LIG1       -0.1218
     18 C          -2.4670   -0.6460    0.0000 C.ar    1  LIG1        0.0211
     19 C          -3.4210   -0.3250    0.0000 C.ar    1  LIG1        0.0047
     20 C          -4.1670   -0.9580    0.0000 C.ar    1  LIG1        0.0370
     21 C          -3.9880   -1.9540    0.0000 C.ar    1  LIG1        0.1387
     22 C          -3.0420   -2.2830    0.0000 C.ar    1  LIG1        0.0370
     23 C          -2.2830   -1.6210    0.0000 C.ar    1  LIG1        0.0047
     24 O          -4.7460   -2.6000    0.0000 O.3     1  LIG1       -0.4714
     25 C          -4.5670   -3.5920    0.0000 C.3     1  LIG1        0.2525
     26 C          -2.8420    1.3170    0.0000 C.ar    1  LIG1        0.0195
     27 C          -3.0250    2.3080    0.0000 C.ar    1  LIG1        0.0047
     28 C          -3.9880    2.6380    0.0000 C.ar    1  LIG1        0.0369
     29 C          -4.7460    1.9790    0.0000 C.ar    1  LIG1        0.1387
     30 C          -4.5500    0.9830    0.0000 C.ar    1  LIG1        0.0369
     31 C          -3.6130    0.6710    0.0000 C.ar    1  LIG1        0.0047
     32 O          -5.6920    2.3080    0.0000 O.3     1  LIG1       -0.4714
     33 C          -6.4500    1.6460    0.0000 C.3     1  LIG1        0.2525
@<TRIPOS>BOND
     1     1     2   ar
     2     1     5   ar
     3     1     7    1
     4     2     3   ar
     5     3     4   ar
     6     3     6    1
     7     4     5   ar
     8     7     8   am
     9     8     9    2
    10     8    10    1
    11    10    11    1
    12    11    12    1
    13    12    13   ar
    14    12    17   ar
    15    13    14   ar
    16    14    15   ar
    17    14    26    1
    18    15    16   ar
    19    15    18    1
    20    16    17   ar
    21    18    19   ar
    22    18    23   ar
    23    19    20   ar
    24    20    21   ar
    25    21    22   ar
    26    21    24    1
    27    22    23   ar
    28    24    25    1
    29    26    27   ar
    30    26    31   ar
    31    27    28   ar
    32    28    29   ar
    33    29    30   ar
    34    29    32    1
    35    30    31   ar
    36    32    33    1
