@<TRIPOS>MOLECULE
31846_ChemDiv_5518-1892
 30 34 0 0 0
SMALL
GASTEIGER
Energy = 0

@<TRIPOS>ATOM
      1 C          -3.1960   -0.6420    0.0000 C.ar    1  LIG1        0.1578
      2 C          -3.3170    0.3460    0.0000 C.ar    1  LIG1        0.1402
      3 N          -2.5210    0.9250    0.0000 N.ar    1  LIG1       -0.2150
      4 C          -1.6040    0.5670    0.0000 C.ar    1  LIG1        0.2111
      5 N          -1.4830   -0.4500    0.0000 N.ar    1  LIG1       -0.1217
      6 N          -2.2880   -1.0420    0.0000 N.ar    1  LIG1       -0.1413
      7 S          -0.7830    1.1210    0.0000 S.3     1  LIG1       -0.0642
      8 C          -0.0080    1.7000    0.0000 C.3     1  LIG1        0.1520
      9 C           0.9290    1.4080    0.0000 C.2     1  LIG1        0.2570
     10 N           1.6710    2.0630    0.0000 N.am    1  LIG1       -0.1784
     11 C           2.6380    1.7710    0.0000 C.ar    1  LIG1        0.0766
     12 C           3.3420    2.4290    0.0000 C.ar    1  LIG1        0.0568
     13 C           4.3080    2.1170    0.0000 C.ar    1  LIG1        0.1777
     14 C           4.5000    1.1540    0.0000 C.ar    1  LIG1        0.1765
     15 O           5.5080    1.0540    0.0000 O.3     1  LIG1       -0.4346
     16 C           5.9170    1.9630    0.0000 C.3     1  LIG1        0.4294
     17 O           5.1540    2.6250    0.0000 O.3     1  LIG1       -0.4346
     18 C           3.7960    0.5080    0.0000 C.ar    1  LIG1        0.0415
     19 C           2.8290    0.8040    0.0000 C.ar    1  LIG1        0.0199
     20 O           1.1630    0.4460    0.0000 O.2     1  LIG1       -0.2720
     21 C          -4.2170    0.7330    0.0000 C.ar    1  LIG1        0.1647
     22 O          -4.4500    1.7540    0.0000 O.2     1  LIG1       -0.4488
     23 C          -5.4710    1.8500    0.0000 C.ar    1  LIG1        0.1797
     24 C          -5.9210    0.8880    0.0000 C.ar    1  LIG1        0.0438
     25 C          -5.3000    0.3710    0.0000 C.ar    1  LIG1        0.0424
     26 C          -4.0170   -1.2380    0.0000 C.ar    1  LIG1        0.1663
     27 O          -4.9880   -0.9080    0.0000 O.2     1  LIG1       -0.4488
     28 C          -5.6080   -1.7750    0.0000 C.ar    1  LIG1        0.1797
     29 C          -4.9880   -2.6210    0.0000 C.ar    1  LIG1        0.0438
     30 C          -4.2170   -2.3540    0.0000 C.ar    1  LIG1        0.0424
@<TRIPOS>BOND
     1     1     2   ar
     2     1     6   ar
     3     1    26    1
     4     2     3   ar
     5     2    21    1
     6     3     4   ar
     7     4     5   ar
     8     4     7    1
     9     5     6   ar
    10     7     8    1
    11     8     9    1
    12     9    10   am
    13     9    20    2
    14    10    11    1
    15    11    12   ar
    16    11    19   ar
    17    12    13   ar
    18    13    14   ar
    19    13    17    1
    20    14    15    1
    21    14    18   ar
    22    15    16    1
    23    16    17    1
    24    18    19   ar
    25    21    22   ar
    26    21    25   ar
    27    22    23   ar
    28    23    24   ar
    29    24    25   ar
    30    26    27   ar
    31    26    30   ar
    32    27    28   ar
    33    28    29   ar
    34    29    30   ar
