@<TRIPOS>MOLECULE
31855_ChemDiv_6040-4551
 23 25 0 0 0
SMALL
GASTEIGER
Energy = 0

@<TRIPOS>ATOM
      1 S          -0.4830   -1.5130    0.0000 S.O2    1  LIG1       -0.0565
      2 N           0.4710   -1.8290    0.0000 N.pl3   1  LIG1       -0.5152
      3 C           1.2000   -1.1250    0.0000 C.ar    1  LIG1        0.0044
      4 N           1.0710   -0.1500    0.0000 N.ar    1  LIG1       -0.2663
      5 C           1.9460    0.3080    0.0000 C.ar    1  LIG1        0.0661
      6 C           2.6540   -0.4290    0.0000 C.ar    1  LIG1        0.0772
      7 S           2.1790   -1.2830    0.0000 S.2     1  LIG1       -0.0879
      8 C           3.6080   -0.1500    0.0000 C.2     1  LIG1        0.1801
      9 C           3.8670    0.8210    0.0000 C.3     1  LIG1        0.0701
     10 C           3.1710    1.5170    0.0000 C.3     1  LIG1        0.0129
     11 C           2.2040    1.2420    0.0000 C.3     1  LIG1        0.0468
     12 C           3.8670    2.2130    0.0000 C.3     1  LIG1        0.0008
     13 C           3.1710    2.4880    0.0000 C.3     1  LIG1        0.0008
     14 O           4.3380   -0.8580    0.0000 O.2     1  LIG1       -0.2908
     15 C          -1.4420   -1.2040    0.0000 C.ar    1  LIG1        0.0894
     16 C          -2.1670   -1.9000    0.0000 C.ar    1  LIG1        0.0174
     17 C          -3.1330   -1.6380    0.0000 C.ar    1  LIG1        0.0080
     18 C          -3.3670   -0.6210    0.0000 C.ar    1  LIG1        0.0346
     19 C          -2.6380    0.0420    0.0000 C.ar    1  LIG1        0.0080
     20 C          -1.6790   -0.2330    0.0000 C.ar    1  LIG1        0.0174
     21 BR         -4.3420   -0.3460    0.0000 Br      1  LIG1       -0.0490
     22 O          -0.1750   -0.5420    0.0000 O.2     1  LIG1       -0.1841
     23 O          -0.7960   -2.4830    0.0000 O.2     1  LIG1       -0.1841
@<TRIPOS>BOND
     1     1     2    1
     2     1    15    1
     3     1    22    2
     4     1    23    2
     5     2     3    1
     6     3     4   ar
     7     3     7   ar
     8     4     5   ar
     9     5     6   ar
    10     5    11    1
    11     6     7   ar
    12     6     8    1
    13     8     9    1
    14     8    14    2
    15     9    10    1
    16    10    11    1
    17    10    12    1
    18    10    13    1
    19    15    16   ar
    20    15    20   ar
    21    16    17   ar
    22    17    18   ar
    23    18    19   ar
    24    18    21    1
    25    19    20   ar
