@<TRIPOS>MOLECULE
31851_ChemDiv_6040-4479
 24 26 0 0 0
SMALL
GASTEIGER
Energy = 0

@<TRIPOS>ATOM
      1 S          -0.2630   -1.5500    0.0000 S.O2    1  LIG1       -0.0565
      2 N           0.6920   -1.8080    0.0000 N.pl3   1  LIG1       -0.5152
      3 C           1.4130   -1.1170    0.0000 C.ar    1  LIG1        0.0044
      4 N           1.2630   -0.1130    0.0000 N.ar    1  LIG1       -0.2663
      5 C           2.1330    0.3170    0.0000 C.ar    1  LIG1        0.0661
      6 C           2.8500   -0.3710    0.0000 C.ar    1  LIG1        0.0772
      7 S           2.3920   -1.2540    0.0000 S.2     1  LIG1       -0.0879
      8 C           3.8040   -0.1130    0.0000 C.2     1  LIG1        0.1801
      9 C           4.0630    0.8420    0.0000 C.3     1  LIG1        0.0701
     10 C           3.3710    1.5540    0.0000 C.3     1  LIG1        0.0129
     11 C           2.3920    1.2960    0.0000 C.3     1  LIG1        0.0468
     12 C           4.0630    2.2750    0.0000 C.3     1  LIG1        0.0008
     13 C           3.3710    2.5330    0.0000 C.3     1  LIG1        0.0008
     14 O           4.5250   -0.8290    0.0000 O.2     1  LIG1       -0.2908
     15 C          -1.2420   -1.2790    0.0000 C.ar    1  LIG1        0.0895
     16 C          -1.9630   -2.0000    0.0000 C.ar    1  LIG1        0.0200
     17 C          -2.9170   -1.7420    0.0000 C.ar    1  LIG1        0.0382
     18 C          -3.1750   -0.7920    0.0000 C.ar    1  LIG1        0.1388
     19 C          -2.4830   -0.0790    0.0000 C.ar    1  LIG1        0.0382
     20 C          -1.5250   -0.3380    0.0000 C.ar    1  LIG1        0.0200
     21 O          -4.2040   -0.5710    0.0000 O.3     1  LIG1       -0.4714
     22 C          -4.5290    0.3790    0.0000 C.3     1  LIG1        0.2525
     23 O           0.0000   -0.5710    0.0000 O.2     1  LIG1       -0.1841
     24 O          -0.5250   -2.5290    0.0000 O.2     1  LIG1       -0.1841
@<TRIPOS>BOND
     1     1     2    1
     2     1    15    1
     3     1    23    2
     4     1    24    2
     5     2     3    1
     6     3     4   ar
     7     3     7   ar
     8     4     5   ar
     9     5     6   ar
    10     5    11    1
    11     6     7   ar
    12     6     8    1
    13     8     9    1
    14     8    14    2
    15     9    10    1
    16    10    11    1
    17    10    12    1
    18    10    13    1
    19    15    16   ar
    20    15    20   ar
    21    16    17   ar
    22    17    18   ar
    23    18    19   ar
    24    18    21    1
    25    19    20   ar
    26    21    22    1
