@<TRIPOS>MOLECULE
31857_ChemDiv_5408-2080
 18 20 0 0 0
SMALL
GASTEIGER
Energy = 0

@<TRIPOS>ATOM
      1 N          -0.8380    0.2460    0.0000 N.ar    1  LIG1       -0.1957
      2 C          -0.0040   -0.2380    0.0000 C.ar    1  LIG1        0.1738
      3 C           0.8290    0.2460    0.0000 C.ar    1  LIG1        0.0485
      4 C           0.8290    1.2080    0.0000 C.ar    1  LIG1        0.0638
      5 N          -0.0040    1.6880    0.0000 N.ar    1  LIG1       -0.2307
      6 C          -0.8380    1.2080    0.0000 C.ar    1  LIG1        0.1661
      7 C          -1.6750    1.6880    0.0000 C.ar    1  LIG1        0.0553
      8 C          -2.5130    1.2130    0.0000 C.ar    1  LIG1        0.0825
      9 N          -2.5130    0.2460    0.0000 N.ar    1  LIG1       -0.1669
     10 C          -3.3460    1.6880    0.0000 C.3     1  LIG1        0.0541
     11 C           1.6670    1.6880    0.0000 C.3     1  LIG1        0.0522
     12 C           1.6670   -0.2380    0.0000 C.ar    1  LIG1        0.0039
     13 C           1.6670   -1.2040    0.0000 C.ar    1  LIG1        0.0001
     14 C           2.5000   -1.6830    0.0000 C.ar    1  LIG1        0.0000
     15 C           3.3420   -1.2040    0.0000 C.ar    1  LIG1        0.0000
     16 C           3.3420   -0.2380    0.0000 C.ar    1  LIG1        0.0000
     17 C           2.5000    0.2460    0.0000 C.ar    1  LIG1        0.0001
     18 N          -0.0040   -1.2040    0.0000 N.pl3   1  LIG1       -0.1071
@<TRIPOS>BOND
     1     1     2   ar
     2     1     6   ar
     3     1     9   ar
     4     2     3   ar
     5     2    18    1
     6     3     4   ar
     7     3    12    1
     8     4     5   ar
     9     4    11    1
    10     5     6   ar
    11     6     7   ar
    12     7     8   ar
    13     8     9   ar
    14     8    10    1
    15    12    13   ar
    16    12    17   ar
    17    13    14   ar
    18    14    15   ar
    19    15    16   ar
    20    16    17   ar
