@<TRIPOS>MOLECULE
31858_ChemDiv_5436-0908
 24 27 0 0 0
SMALL
GASTEIGER
Energy = 0

@<TRIPOS>ATOM
      1 C           1.2670    0.3330    0.0000 C.ar    1  LIG1       -0.0167
      2 C           0.3920    0.8330    0.0000 C.ar    1  LIG1        0.0308
      3 C           0.3920    1.8330    0.0000 C.ar    1  LIG1        0.1514
      4 O           1.2670    2.3330    0.0000 O.2     1  LIG1       -0.4212
      5 C           2.1290    1.8330    0.0000 C.ar    1  LIG1        0.3414
      6 C           2.1290    0.8330    0.0000 C.ar    1  LIG1        0.0499
      7 C           2.9960    0.3330    0.0000 C.3     1  LIG1        0.0326
      8 C           2.9960   -0.6790    0.0000 C.3     1  LIG1        0.0049
      9 C           3.8580   -1.1790    0.0000 C.3     1  LIG1        0.0004
     10 O           2.9960    2.3330    0.0000 O.2     1  LIG1       -0.2448
     11 C          -0.4670    2.3330    0.0000 C.ar    1  LIG1        0.0750
     12 C          -1.3210    1.8330    0.0000 C.ar    1  LIG1        0.1485
     13 C          -1.3210    0.8330    0.0000 C.ar    1  LIG1        0.0378
     14 C          -2.2830    0.5330    0.0000 C.ar    1  LIG1        0.0406
     15 C          -2.8750    1.3250    0.0000 C.ar    1  LIG1        0.1795
     16 O          -2.2830    2.1500    0.0000 O.2     1  LIG1       -0.4503
     17 C          -2.5880   -0.4330    0.0000 C.ar    1  LIG1        0.0031
     18 C          -3.5540   -0.6330    0.0000 C.ar    1  LIG1        0.0001
     19 C          -3.8630   -1.5880    0.0000 C.ar    1  LIG1        0.0000
     20 C          -3.1960   -2.3290    0.0000 C.ar    1  LIG1        0.0000
     21 C          -2.2250   -2.1250    0.0000 C.ar    1  LIG1        0.0000
     22 C          -1.9210   -1.1630    0.0000 C.ar    1  LIG1        0.0001
     23 C          -0.4670    0.3330    0.0000 C.ar    1  LIG1        0.0058
     24 C           1.2670   -0.6750    0.0000 C.3     1  LIG1        0.0310
@<TRIPOS>BOND
     1     1     2   ar
     2     1     6   ar
     3     1    24    1
     4     2     3   ar
     5     2    23   ar
     6     3     4   ar
     7     3    11   ar
     8     4     5   ar
     9     5     6   ar
    10     5    10    2
    11     6     7    1
    12     7     8    1
    13     8     9    1
    14    11    12   ar
    15    12    13   ar
    16    12    16   ar
    17    13    14   ar
    18    13    23   ar
    19    14    15   ar
    20    14    17    1
    21    15    16   ar
    22    17    18   ar
    23    17    22   ar
    24    18    19   ar
    25    19    20   ar
    26    20    21   ar
    27    21    22   ar
