@<TRIPOS>MOLECULE
31853_ChemDiv_6040-4509
 17 18 0 0 0
SMALL
GASTEIGER
Energy = 0

@<TRIPOS>ATOM
      1 C           1.2460   -0.4330    0.0000 C.ar    1  LIG1        0.0803
      2 C           0.5330    0.2790    0.0000 C.ar    1  LIG1        0.0698
      3 N          -0.3580   -0.1960    0.0000 N.ar    1  LIG1       -0.2258
      4 C          -0.2290   -1.1380    0.0000 C.ar    1  LIG1        0.2018
      5 S           0.7710   -1.2920    0.0000 S.2     1  LIG1       -0.0459
      6 N          -0.9540   -1.8080    0.0000 N.pl3   1  LIG1       -0.0743
      7 S          -1.9290   -1.5290    0.0000 S.O2    1  LIG1        0.0769
      8 O          -1.6080   -0.5500    0.0000 O.2     1  LIG1       -0.1527
      9 O          -2.2420   -2.4670    0.0000 O.2     1  LIG1       -0.1527
     10 C          -2.8960   -1.2210    0.0000 C.3     1  LIG1        0.2017
     11 C           0.7710    1.2250    0.0000 C.3     1  LIG1        0.0469
     12 C           1.7330    1.4920    0.0000 C.3     1  LIG1        0.0129
     13 C           2.4710    0.7880    0.0000 C.3     1  LIG1        0.0701
     14 C           2.1880   -0.1960    0.0000 C.2     1  LIG1        0.1802
     15 O           2.8920   -0.8960    0.0000 O.2     1  LIG1       -0.2908
     16 C           2.4500    2.2420    0.0000 C.3     1  LIG1        0.0008
     17 C           1.6380    2.4710    0.0000 C.3     1  LIG1        0.0008
@<TRIPOS>BOND
     1     1     2   ar
     2     1     5   ar
     3     1    14    1
     4     2     3   ar
     5     2    11    1
     6     3     4   ar
     7     4     5   ar
     8     4     6    1
     9     6     7    1
    10     7     8    2
    11     7     9    2
    12     7    10    1
    13    11    12    1
    14    12    13    1
    15    12    16    1
    16    12    17    1
    17    13    14    1
    18    14    15    2
