@<TRIPOS>MOLECULE
31852_ChemDiv_5519-0732
 22 25 0 0 0
SMALL
GASTEIGER
Energy = 0

@<TRIPOS>ATOM
      1 C           0.7080    0.6290    0.0000 C.ar    1  LIG1        0.2178
      2 N           0.9540    1.6080    0.0000 N.ar    1  LIG1       -0.2124
      3 C           1.9540    1.6540    0.0000 C.ar    1  LIG1        0.1000
      4 C           2.3250    0.7420    0.0000 C.ar    1  LIG1        0.0799
      5 N           1.5460    0.1000    0.0000 N.ar    1  LIG1       -0.2984
      6 C           1.6080   -0.9130    0.0000 C.3     1  LIG1        0.1088
      7 C           2.5000   -1.3580    0.0000 C.3     1  LIG1        0.0266
      8 C           3.3040    0.6000    0.0000 C.ar    1  LIG1        0.0188
      9 C           3.9290    1.3750    0.0000 C.ar    1  LIG1        0.0016
     10 C           3.5710    2.3130    0.0000 C.ar    1  LIG1        0.0016
     11 C           2.5750    2.4540    0.0000 C.ar    1  LIG1        0.0207
     12 N          -0.1830    0.1630    0.0000 N.pl3   1  LIG1       -0.2003
     13 C          -0.2250   -0.8500    0.0000 C.3     1  LIG1        0.1432
     14 C          -1.1290   -1.3290    0.0000 C.ar    1  LIG1        0.0200
     15 C          -1.3040   -2.3290    0.0000 C.ar    1  LIG1        0.0963
     16 N          -2.2670   -2.4500    0.0000 N.ar    1  LIG1       -0.2441
     17 C          -2.7170   -1.5790    0.0000 C.ar    1  LIG1        0.0811
     18 C          -2.0040   -0.8790    0.0000 C.ar    1  LIG1        0.0168
     19 C          -2.2500    0.0830    0.0000 C.ar    1  LIG1        0.0013
     20 C          -3.2210    0.3540    0.0000 C.ar    1  LIG1        0.0001
     21 C          -3.9330   -0.3670    0.0000 C.ar    1  LIG1        0.0015
     22 C          -3.6670   -1.3290    0.0000 C.ar    1  LIG1        0.0191
@<TRIPOS>BOND
     1     1     2   ar
     2     1     5   ar
     3     1    12    1
     4     2     3   ar
     5     3     4   ar
     6     3    11   ar
     7     4     5   ar
     8     4     8   ar
     9     5     6    1
    10     6     7    1
    11     8     9   ar
    12     9    10   ar
    13    10    11   ar
    14    12    13    1
    15    13    14    1
    16    14    15   ar
    17    14    18   ar
    18    15    16   ar
    19    16    17   ar
    20    17    18   ar
    21    17    22   ar
    22    18    19   ar
    23    19    20   ar
    24    20    21   ar
    25    21    22   ar
