@<TRIPOS>MOLECULE
31859_ChemDiv_5408-2547
 25 28 0 0 0
SMALL
GASTEIGER
Energy = 0

@<TRIPOS>ATOM
      1 N          -0.8580   -1.3460    0.0000 N.ar    1  LIG1       -0.1957
      2 C          -0.6000   -0.3880    0.0000 C.ar    1  LIG1        0.1660
      3 N           0.3460   -0.1040    0.0000 N.ar    1  LIG1       -0.2307
      4 C           1.0580   -0.8170    0.0000 C.ar    1  LIG1        0.0638
      5 C           0.8130   -1.7880    0.0000 C.ar    1  LIG1        0.0485
      6 C          -0.1540   -2.0460    0.0000 C.ar    1  LIG1        0.1738
      7 N          -0.4040   -3.0000    0.0000 N.pl3   1  LIG1       -0.1071
      8 C           1.5170   -2.4880    0.0000 C.ar    1  LIG1        0.0039
      9 C           2.4830   -2.2290    0.0000 C.ar    1  LIG1        0.0001
     10 C           3.1880   -2.9420    0.0000 C.ar    1  LIG1        0.0000
     11 C           2.9290   -3.9130    0.0000 C.ar    1  LIG1        0.0000
     12 C           1.9580   -4.1540    0.0000 C.ar    1  LIG1        0.0000
     13 C           1.2500   -3.4580    0.0000 C.ar    1  LIG1        0.0001
     14 C           2.0330   -0.5580    0.0000 C.3     1  LIG1        0.0522
     15 C          -1.4380    0.1580    0.0000 C.ar    1  LIG1        0.0511
     16 C          -2.2170   -0.4790    0.0000 C.ar    1  LIG1        0.0823
     17 N          -1.8460   -1.4040    0.0000 N.ar    1  LIG1       -0.1669
     18 C          -3.1920   -0.2380    0.0000 C.3     1  LIG1        0.0540
     19 C          -1.4880    1.1580    0.0000 C.ar    1  LIG1        0.0042
     20 C          -0.6420    1.7040    0.0000 C.ar    1  LIG1        0.0010
     21 C          -0.7040    2.7040    0.0000 C.ar    1  LIG1        0.0114
     22 C          -1.6000    3.1630    0.0000 C.ar    1  LIG1        0.0577
     23 C          -2.4380    2.6170    0.0000 C.ar    1  LIG1        0.0114
     24 C          -2.3880    1.6130    0.0000 C.ar    1  LIG1        0.0010
     25 CL         -1.6460    4.1540    0.0000 Cl      1  LIG1       -0.0822
@<TRIPOS>BOND
     1     1     2   ar
     2     1     6   ar
     3     1    17   ar
     4     2     3   ar
     5     2    15   ar
     6     3     4   ar
     7     4     5   ar
     8     4    14    1
     9     5     6   ar
    10     5     8    1
    11     6     7    1
    12     8     9   ar
    13     8    13   ar
    14     9    10   ar
    15    10    11   ar
    16    11    12   ar
    17    12    13   ar
    18    15    16   ar
    19    15    19    1
    20    16    17   ar
    21    16    18    1
    22    19    20   ar
    23    19    24   ar
    24    20    21   ar
    25    21    22   ar
    26    22    23   ar
    27    22    25    1
    28    23    24   ar
