@<TRIPOS>MOLECULE
31863_ChemDiv_5638-0351
 24 27 0 0 0
SMALL
GASTEIGER
Energy = 0

@<TRIPOS>ATOM
      1 N          -0.8880   -1.5830    0.0000 N.ar    1  LIG1       -0.1957
      2 C          -0.8880   -0.5830    0.0000 C.ar    1  LIG1        0.1663
      3 C          -1.8290   -0.2920    0.0000 C.ar    1  LIG1        0.0511
      4 C          -2.4250   -1.1080    0.0000 C.ar    1  LIG1        0.0823
      5 N          -1.8460   -1.9130    0.0000 N.ar    1  LIG1       -0.1669
      6 C          -3.4290   -1.1170    0.0000 C.3     1  LIG1        0.0540
      7 C          -2.0580    0.6880    0.0000 C.ar    1  LIG1        0.0042
      8 C          -1.3130    1.3580    0.0000 C.ar    1  LIG1        0.0010
      9 C          -1.5380    2.3380    0.0000 C.ar    1  LIG1        0.0114
     10 C          -2.4920    2.6250    0.0000 C.ar    1  LIG1        0.0577
     11 C          -3.2250    1.9580    0.0000 C.ar    1  LIG1        0.0114
     12 C          -3.0080    1.0040    0.0000 C.ar    1  LIG1        0.0010
     13 CL         -2.6960    3.6040    0.0000 Cl      1  LIG1       -0.0822
     14 N          -0.0250   -0.0920    0.0000 N.ar    1  LIG1       -0.2248
     15 C           0.8420   -0.5830    0.0000 C.ar    1  LIG1        0.1034
     16 C           0.8420   -1.5830    0.0000 C.ar    1  LIG1        0.0541
     17 C          -0.0250   -2.0960    0.0000 C.ar    1  LIG1        0.1741
     18 N          -0.0250   -3.0830    0.0000 N.pl3   1  LIG1       -0.1070
     19 C           1.7080   -2.0960    0.0000 C.ar    1  LIG1        0.0043
     20 C           1.6920   -3.0960    0.0000 C.ar    1  LIG1        0.0001
     21 C           2.5580   -3.6000    0.0000 C.ar    1  LIG1        0.0000
     22 C           3.4250   -3.1130    0.0000 C.ar    1  LIG1        0.0000
     23 C           3.4250   -2.0960    0.0000 C.ar    1  LIG1        0.0000
     24 C           2.5580   -1.5830    0.0000 C.ar    1  LIG1        0.0001
@<TRIPOS>BOND
     1     1     2   ar
     2     1     5   ar
     3     1    17   ar
     4     2     3   ar
     5     2    14   ar
     6     3     4   ar
     7     3     7    1
     8     4     5   ar
     9     4     6    1
    10     7     8   ar
    11     7    12   ar
    12     8     9   ar
    13     9    10   ar
    14    10    11   ar
    15    10    13    1
    16    11    12   ar
    17    14    15   ar
    18    15    16   ar
    19    16    17   ar
    20    16    19    1
    21    17    18    1
    22    19    20   ar
    23    19    24   ar
    24    20    21   ar
    25    21    22   ar
    26    22    23   ar
    27    23    24   ar
