@<TRIPOS>MOLECULE
31862_ChemDiv_5436-0919
 24 27 0 0 0
SMALL
GASTEIGER
Energy = 0

@<TRIPOS>ATOM
      1 C          -1.8130    1.3710    0.0000 C.ar    1  LIG1        0.0406
      2 C          -0.8500    1.6750    0.0000 C.ar    1  LIG1        0.0378
      3 C          -0.8500    2.6830    0.0000 C.ar    1  LIG1        0.1485
      4 O          -1.8130    2.9880    0.0000 O.2     1  LIG1       -0.4503
      5 C          -2.4040    2.1830    0.0000 C.ar    1  LIG1        0.1795
      6 C           0.0040    3.1670    0.0000 C.ar    1  LIG1        0.0750
      7 C           0.8710    2.6830    0.0000 C.ar    1  LIG1        0.1514
      8 C           0.8710    1.6750    0.0000 C.ar    1  LIG1        0.0311
      9 C           1.7420    1.1750    0.0000 C.ar    1  LIG1       -0.0128
     10 C           2.6040    1.6750    0.0000 C.ar    1  LIG1        0.0781
     11 C           2.6040    2.6830    0.0000 C.ar    1  LIG1        0.3456
     12 O           1.7420    3.1670    0.0000 O.2     1  LIG1       -0.4209
     13 O           3.4750    3.1670    0.0000 O.2     1  LIG1       -0.2445
     14 C           1.7420    0.1830    0.0000 C.3     1  LIG1        0.0267
     15 C           0.8710   -0.3250    0.0000 C.3     1  LIG1        0.0050
     16 C           0.0040    1.1750    0.0000 C.ar    1  LIG1        0.0059
     17 C          -2.1630    0.4420    0.0000 C.ar    1  LIG1        0.0033
     18 C          -3.1460    0.2670    0.0000 C.ar    1  LIG1        0.0032
     19 C          -3.4790   -0.6500    0.0000 C.ar    1  LIG1        0.0369
     20 C          -2.8460   -1.4380    0.0000 C.ar    1  LIG1        0.1387
     21 C          -1.8710   -1.2710    0.0000 C.ar    1  LIG1        0.0369
     22 C          -1.5130   -0.3420    0.0000 C.ar    1  LIG1        0.0032
     23 O          -3.2040   -2.3880    0.0000 O.3     1  LIG1       -0.4714
     24 C          -2.5580   -3.1630    0.0000 C.3     1  LIG1        0.2525
@<TRIPOS>BOND
     1     1     2   ar
     2     1     5   ar
     3     1    17    1
     4     2     3   ar
     5     2    16   ar
     6     3     4   ar
     7     3     6   ar
     8     4     5   ar
     9     6     7   ar
    10     7     8   ar
    11     7    12   ar
    12     8     9   ar
    13     8    16   ar
    14     9    10   ar
    15     9    14    1
    16    10    11   ar
    17    11    12   ar
    18    11    13    2
    19    14    15    1
    20    17    18   ar
    21    17    22   ar
    22    18    19   ar
    23    19    20   ar
    24    20    21   ar
    25    20    23    1
    26    21    22   ar
    27    23    24    1
