@<TRIPOS>MOLECULE
31861_ChemDiv_5638-0341
 24 27 0 0 0
SMALL
GASTEIGER
Energy = 0

@<TRIPOS>ATOM
      1 N           0.6210    0.2540    0.0000 N.ar    1  LIG1       -0.1954
      2 C           0.6210    1.2540    0.0000 C.ar    1  LIG1        0.1664
      3 N           1.4710    1.7420    0.0000 N.ar    1  LIG1       -0.2307
      4 C           2.3380    1.2540    0.0000 C.ar    1  LIG1        0.0638
      5 C           2.3380    0.2540    0.0000 C.ar    1  LIG1        0.0485
      6 C           1.4710   -0.2580    0.0000 C.ar    1  LIG1        0.1738
      7 N           1.4710   -1.2500    0.0000 N.pl3   1  LIG1       -0.1071
      8 C           3.2040   -0.2580    0.0000 C.ar    1  LIG1        0.0039
      9 C           3.1960   -1.2580    0.0000 C.ar    1  LIG1        0.0001
     10 C           4.0630   -1.7500    0.0000 C.ar    1  LIG1        0.0000
     11 C           4.9290   -1.2580    0.0000 C.ar    1  LIG1        0.0000
     12 C           4.9290   -0.2580    0.0000 C.ar    1  LIG1        0.0000
     13 C           4.0630    0.2540    0.0000 C.ar    1  LIG1        0.0001
     14 C           3.2040    1.7540    0.0000 C.3     1  LIG1        0.0522
     15 C          -0.3290    1.5420    0.0000 C.ar    1  LIG1        0.0597
     16 C          -0.9130    0.7250    0.0000 C.ar    1  LIG1        0.1044
     17 N          -0.3420   -0.0750    0.0000 N.ar    1  LIG1       -0.1625
     18 C          -1.9130    0.7250    0.0000 C.ar    1  LIG1        0.0194
     19 C          -2.4250   -0.1420    0.0000 C.ar    1  LIG1        0.0012
     20 C          -3.4250   -0.1500    0.0000 C.ar    1  LIG1       -0.0042
     21 C          -3.9330    0.7250    0.0000 C.ar    1  LIG1       -0.0218
     22 C          -3.4250    1.5920    0.0000 C.ar    1  LIG1       -0.0042
     23 C          -2.4250    1.5920    0.0000 C.ar    1  LIG1        0.0012
     24 C          -4.9330    0.7210    0.0000 C.3     1  LIG1        0.0310
@<TRIPOS>BOND
     1     1     2   ar
     2     1     6   ar
     3     1    17   ar
     4     2     3   ar
     5     2    15   ar
     6     3     4   ar
     7     4     5   ar
     8     4    14    1
     9     5     6   ar
    10     5     8    1
    11     6     7    1
    12     8     9   ar
    13     8    13   ar
    14     9    10   ar
    15    10    11   ar
    16    11    12   ar
    17    12    13   ar
    18    15    16   ar
    19    16    17   ar
    20    16    18    1
    21    18    19   ar
    22    18    23   ar
    23    19    20   ar
    24    20    21   ar
    25    21    22   ar
    26    21    24    1
    27    22    23   ar
