@<TRIPOS>MOLECULE
31868_ChemDiv_5436-0981
 24 27 0 0 0
SMALL
GASTEIGER
Energy = 0

@<TRIPOS>ATOM
      1 C          -1.8210    0.7040    0.0000 C.ar    1  LIG1        0.0406
      2 C          -0.8630    1.0080    0.0000 C.ar    1  LIG1        0.0378
      3 C          -0.8630    2.0000    0.0000 C.ar    1  LIG1        0.1485
      4 O          -1.8210    2.3040    0.0000 O.2     1  LIG1       -0.4503
      5 C          -2.3880    1.5080    0.0000 C.ar    1  LIG1        0.1795
      6 C           0.0040    2.5040    0.0000 C.ar    1  LIG1        0.0750
      7 C           0.8790    2.0000    0.0000 C.ar    1  LIG1        0.1514
      8 C           0.8790    1.0080    0.0000 C.ar    1  LIG1        0.0311
      9 C           1.7460    0.5000    0.0000 C.ar    1  LIG1       -0.0128
     10 C           2.6170    1.0080    0.0000 C.ar    1  LIG1        0.0781
     11 C           2.6170    2.0000    0.0000 C.ar    1  LIG1        0.3456
     12 O           1.7460    2.5040    0.0000 O.2     1  LIG1       -0.4209
     13 O           3.4920    2.5040    0.0000 O.2     1  LIG1       -0.2445
     14 C           1.7460   -0.4960    0.0000 C.3     1  LIG1        0.0267
     15 C           2.6000   -0.9960    0.0000 C.3     1  LIG1        0.0047
     16 C           2.6000   -2.0080    0.0000 C.3     1  LIG1        0.0003
     17 C           3.4670   -2.5000    0.0000 C.3     1  LIG1        0.0000
     18 C           0.0040    0.5000    0.0000 C.ar    1  LIG1        0.0059
     19 C          -2.1580   -0.2460    0.0000 C.ar    1  LIG1        0.0031
     20 C          -3.1540   -0.4130    0.0000 C.ar    1  LIG1        0.0001
     21 C          -3.4960   -1.3380    0.0000 C.ar    1  LIG1        0.0000
     22 C          -2.8670   -2.1290    0.0000 C.ar    1  LIG1        0.0000
     23 C          -1.8790   -1.9500    0.0000 C.ar    1  LIG1        0.0000
     24 C          -1.5290   -1.0210    0.0000 C.ar    1  LIG1        0.0001
@<TRIPOS>BOND
     1     1     2   ar
     2     1     5   ar
     3     1    19    1
     4     2     3   ar
     5     2    18   ar
     6     3     4   ar
     7     3     6   ar
     8     4     5   ar
     9     6     7   ar
    10     7     8   ar
    11     7    12   ar
    12     8     9   ar
    13     8    18   ar
    14     9    10   ar
    15     9    14    1
    16    10    11   ar
    17    11    12   ar
    18    11    13    2
    19    14    15    1
    20    15    16    1
    21    16    17    1
    22    19    20   ar
    23    19    24   ar
    24    20    21   ar
    25    21    22   ar
    26    22    23   ar
    27    23    24   ar
