@<TRIPOS>MOLECULE
31865_ChemDiv_5638-0352
 23 26 0 0 0
SMALL
GASTEIGER
Energy = 0

@<TRIPOS>ATOM
      1 N          -0.9920   -1.5830    0.0000 N.ar    1  LIG1       -0.1954
      2 C          -0.9920   -0.5830    0.0000 C.ar    1  LIG1        0.1667
      3 C          -1.9330   -0.2920    0.0000 C.ar    1  LIG1        0.0568
      4 C          -2.5290   -1.1130    0.0000 C.ar    1  LIG1        0.1236
      5 N          -1.9500   -1.9130    0.0000 N.ar    1  LIG1       -0.1609
      6 C          -2.1630    0.6880    0.0000 C.ar    1  LIG1        0.0046
      7 C          -1.4170    1.3580    0.0000 C.ar    1  LIG1        0.0010
      8 C          -1.6420    2.3380    0.0000 C.ar    1  LIG1        0.0114
      9 C          -2.5960    2.6290    0.0000 C.ar    1  LIG1        0.0577
     10 C          -3.3290    1.9580    0.0000 C.ar    1  LIG1        0.0114
     11 C          -3.1130    1.0040    0.0000 C.ar    1  LIG1        0.0010
     12 CL         -2.8000    3.6080    0.0000 Cl      1  LIG1       -0.0822
     13 N          -0.1290   -0.0920    0.0000 N.ar    1  LIG1       -0.2248
     14 C           0.7380   -0.5830    0.0000 C.ar    1  LIG1        0.1034
     15 C           0.7380   -1.5830    0.0000 C.ar    1  LIG1        0.0541
     16 C          -0.1290   -2.0960    0.0000 C.ar    1  LIG1        0.1741
     17 N          -0.1290   -3.0830    0.0000 N.pl3   1  LIG1       -0.1070
     18 C           1.6040   -2.0960    0.0000 C.ar    1  LIG1        0.0043
     19 C           1.5880   -3.0960    0.0000 C.ar    1  LIG1        0.0001
     20 C           2.4580   -3.6040    0.0000 C.ar    1  LIG1        0.0000
     21 C           3.3250   -3.1130    0.0000 C.ar    1  LIG1        0.0000
     22 C           3.3250   -2.0960    0.0000 C.ar    1  LIG1        0.0000
     23 C           2.4580   -1.5830    0.0000 C.ar    1  LIG1        0.0001
@<TRIPOS>BOND
     1     1     2   ar
     2     1     5   ar
     3     1    16   ar
     4     2     3   ar
     5     2    13   ar
     6     3     4   ar
     7     3     6    1
     8     4     5   ar
     9     6     7   ar
    10     6    11   ar
    11     7     8   ar
    12     8     9   ar
    13     9    10   ar
    14     9    12    1
    15    10    11   ar
    16    13    14   ar
    17    14    15   ar
    18    15    16   ar
    19    15    18    1
    20    16    17    1
    21    18    19   ar
    22    18    23   ar
    23    19    20   ar
    24    20    21   ar
    25    21    22   ar
    26    22    23   ar
