@<TRIPOS>MOLECULE
31867_ChemDiv_5638-0355
 17 19 0 0 0
SMALL
GASTEIGER
Energy = 0

@<TRIPOS>ATOM
      1 N          -0.8880    0.2670    0.0000 N.ar    1  LIG1       -0.1957
      2 C          -0.0250   -0.2460    0.0000 C.ar    1  LIG1        0.1741
      3 C           0.8420    0.2670    0.0000 C.ar    1  LIG1        0.0541
      4 C           0.8420    1.2670    0.0000 C.ar    1  LIG1        0.1034
      5 N          -0.0250    1.7540    0.0000 N.ar    1  LIG1       -0.2248
      6 C          -0.8880    1.2670    0.0000 C.ar    1  LIG1        0.1665
      7 C          -1.8290    1.5540    0.0000 C.ar    1  LIG1        0.0553
      8 C          -2.4210    0.7500    0.0000 C.ar    1  LIG1        0.0825
      9 N          -1.8460   -0.0500    0.0000 N.ar    1  LIG1       -0.1669
     10 C          -3.4290    0.7330    0.0000 C.3     1  LIG1        0.0541
     11 C           1.7080   -0.2460    0.0000 C.ar    1  LIG1        0.0043
     12 C           1.6920   -1.2460    0.0000 C.ar    1  LIG1        0.0001
     13 C           2.5580   -1.7500    0.0000 C.ar    1  LIG1        0.0000
     14 C           3.4250   -1.2500    0.0000 C.ar    1  LIG1        0.0000
     15 C           3.4250   -0.2460    0.0000 C.ar    1  LIG1        0.0000
     16 C           2.5580    0.2670    0.0000 C.ar    1  LIG1        0.0001
     17 N          -0.0250   -1.2460    0.0000 N.pl3   1  LIG1       -0.1070
@<TRIPOS>BOND
     1     1     2   ar
     2     1     6   ar
     3     1     9   ar
     4     2     3   ar
     5     2    17    1
     6     3     4   ar
     7     3    11    1
     8     4     5   ar
     9     5     6   ar
    10     6     7   ar
    11     7     8   ar
    12     8     9   ar
    13     8    10    1
    14    11    12   ar
    15    11    16   ar
    16    12    13   ar
    17    13    14   ar
    18    14    15   ar
    19    15    16   ar
