@<TRIPOS>MOLECULE
31869_ChemDiv_5638-0356
 22 25 0 0 0
SMALL
GASTEIGER
Energy = 0

@<TRIPOS>ATOM
      1 N           0.1040    0.2670    0.0000 N.ar    1  LIG1       -0.1954
      2 C           0.9630   -0.2460    0.0000 C.ar    1  LIG1        0.1741
      3 C           1.8290    0.2670    0.0000 C.ar    1  LIG1        0.0541
      4 C           1.8290    1.2670    0.0000 C.ar    1  LIG1        0.1034
      5 N           0.9630    1.7540    0.0000 N.ar    1  LIG1       -0.2248
      6 C           0.1040    1.2670    0.0000 C.ar    1  LIG1        0.1668
      7 C          -0.8330    1.5540    0.0000 C.ar    1  LIG1        0.0597
      8 C          -1.4290    0.7500    0.0000 C.ar    1  LIG1        0.1044
      9 N          -0.8330   -0.0500    0.0000 N.ar    1  LIG1       -0.1625
     10 C          -2.4290    0.7330    0.0000 C.ar    1  LIG1        0.0195
     11 C          -2.9170   -0.1330    0.0000 C.ar    1  LIG1        0.0016
     12 C          -3.9290   -0.1330    0.0000 C.ar    1  LIG1        0.0000
     13 C          -4.4330    0.7330    0.0000 C.ar    1  LIG1        0.0000
     14 C          -3.9290    1.6000    0.0000 C.ar    1  LIG1        0.0000
     15 C          -2.9290    1.6000    0.0000 C.ar    1  LIG1        0.0016
     16 C           2.6960   -0.2460    0.0000 C.ar    1  LIG1        0.0043
     17 C           2.6960   -1.2460    0.0000 C.ar    1  LIG1        0.0001
     18 C           3.5460   -1.7500    0.0000 C.ar    1  LIG1        0.0000
     19 C           4.4290   -1.2500    0.0000 C.ar    1  LIG1        0.0000
     20 C           4.4290   -0.2460    0.0000 C.ar    1  LIG1        0.0000
     21 C           3.5630    0.2670    0.0000 C.ar    1  LIG1        0.0001
     22 N           0.9630   -1.2460    0.0000 N.pl3   1  LIG1       -0.1070
@<TRIPOS>BOND
     1     1     2   ar
     2     1     6   ar
     3     1     9   ar
     4     2     3   ar
     5     2    22    1
     6     3     4   ar
     7     3    16    1
     8     4     5   ar
     9     5     6   ar
    10     6     7   ar
    11     7     8   ar
    12     8     9   ar
    13     8    10    1
    14    10    11   ar
    15    10    15   ar
    16    11    12   ar
    17    12    13   ar
    18    13    14   ar
    19    14    15   ar
    20    16    17   ar
    21    16    21   ar
    22    17    18   ar
    23    18    19   ar
    24    19    20   ar
    25    20    21   ar
