@<TRIPOS>MOLECULE
31879_ChemDiv_8015-6347
 27 29 0 0 0
SMALL
GASTEIGER
Energy = 0

@<TRIPOS>ATOM
      1 C           0.4540    2.0210    0.0000 C.ar    1  LIG1        0.0837
      2 C           0.4540    1.0380    0.0000 C.ar    1  LIG1        0.1592
      3 C          -0.4210    0.5250    0.0000 C.ar    1  LIG1        0.0497
      4 C          -1.2750    1.0380    0.0000 C.ar    1  LIG1        0.0811
      5 C          -1.2750    2.0210    0.0000 C.ar    1  LIG1        0.0795
      6 C          -0.4210    2.5290    0.0000 C.ar    1  LIG1        0.0286
      7 C          -2.1710    2.5420    0.0000 C.1     1  LIG1        0.1011
      8 N          -3.0460    3.0540    0.0000 N.1     1  LIG1       -0.1908
      9 C          -2.1710    0.5000    0.0000 C.1     1  LIG1        0.1012
     10 N          -3.0460   -0.0290    0.0000 N.1     1  LIG1       -0.1908
     11 O           1.3290    0.5000    0.0000 O.3     1  LIG1       -0.4522
     12 C           1.3290   -0.5170    0.0000 C.ar    1  LIG1        0.1454
     13 C           0.4790   -1.0250    0.0000 C.ar    1  LIG1        0.0376
     14 C           0.4790   -2.0040    0.0000 C.ar    1  LIG1        0.0060
     15 C           1.3290   -2.5170    0.0000 C.ar    1  LIG1        0.0349
     16 C           1.3290   -3.5170    0.0000 C.2     1  LIG1        0.1730
     17 O           0.4920   -4.0040    0.0000 O.2     1  LIG1       -0.2913
     18 C           2.1790   -4.0170    0.0000 C.3     1  LIG1        0.0692
     19 C           3.0420   -3.5290    0.0000 C.3     1  LIG1        0.0086
     20 C           2.1960   -2.0040    0.0000 C.ar    1  LIG1        0.0060
     21 C           2.1960   -1.0250    0.0000 C.ar    1  LIG1        0.0376
     22 N           1.3040    2.5290    0.0000 N.pl3   1  LIG1       -0.3004
     23 C           2.1750    2.0210    0.0000 C.3     1  LIG1        0.1231
     24 C           3.0250    2.5290    0.0000 C.3     1  LIG1        0.1636
     25 O           3.0250    3.5130    0.0000 O.3     1  LIG1       -0.3501
     26 C           2.1750    4.0170    0.0000 C.3     1  LIG1        0.1636
     27 C           1.3040    3.5130    0.0000 C.3     1  LIG1        0.1231
@<TRIPOS>BOND
     1     1     2   ar
     2     1     6   ar
     3     1    22    1
     4     2     3   ar
     5     2    11    1
     6     3     4   ar
     7     4     5   ar
     8     4     9    1
     9     5     6   ar
    10     5     7    1
    11     7     8    3
    12     9    10    3
    13    11    12    1
    14    12    13   ar
    15    12    21   ar
    16    13    14   ar
    17    14    15   ar
    18    15    16    1
    19    15    20   ar
    20    16    17    2
    21    16    18    1
    22    18    19    1
    23    20    21   ar
    24    22    23    1
    25    22    27    1
    26    23    24    1
    27    24    25    1
    28    25    26    1
    29    26    27    1
