@<TRIPOS>MOLECULE
31873_ChemDiv_5300-0261
 20 22 0 0 0
SMALL
GASTEIGER
Energy = 0

@<TRIPOS>ATOM
      1 C          -0.4630    1.2830    0.0000 C.cat   1  LIG1        0.4514
      2 N          -1.4290    1.5540    0.0000 N.2     1  LIG1        0.0020
      3 C          -2.1380    0.8460    0.0000 C.cat   1  LIG1        0.4949
      4 N          -1.8790   -0.1170    0.0000 N.2     1  LIG1       -0.0604
      5 C          -0.9290   -0.3790    0.0000 C.3     1  LIG1        0.2826
      6 N          -0.2170    0.3460    0.0000 N.pl3   1  LIG1       -0.0301
      7 C          -0.0540   -0.8790    0.0000 C.3     1  LIG1        0.0795
      8 C          -0.0540   -1.8830    0.0000 C.3     1  LIG1        0.0070
      9 C          -0.9290   -2.3830    0.0000 C.3     1  LIG1        0.0005
     10 C          -1.7960   -1.8830    0.0000 C.3     1  LIG1        0.0070
     11 C          -1.7960   -0.8790    0.0000 C.3     1  LIG1        0.0795
     12 N          -3.1330    1.1000    0.0000 N.pl3   1  LIG1        0.1498
     13 N           0.2630    1.9830    0.0000 N.pl3   1  LIG1       -0.0376
     14 C           1.2170    1.7000    0.0000 C.ar    1  LIG1        0.1442
     15 C           1.4500    0.7210    0.0000 C.ar    1  LIG1        0.0102
     16 C           0.7420    0.0380    0.0000 C.3     1  LIG1        0.0339
     17 C           2.4040    0.4380    0.0000 C.ar    1  LIG1       -0.0015
     18 C           3.1290    1.1420    0.0000 C.ar    1  LIG1       -0.0001
     19 C           2.8830    2.1080    0.0000 C.ar    1  LIG1        0.0028
     20 C           1.9380    2.3880    0.0000 C.ar    1  LIG1        0.0343
@<TRIPOS>BOND
     1     1     2    2
     2     1     6    1
     3     1    13    1
     4     2     3    1
     5     3     4    2
     6     3    12    1
     7     4     5    1
     8     5     6    1
     9     5     7    1
    10     5    11    1
    11     7     8    1
    12     8     9    1
    13     9    10    1
    14    10    11    1
    15    13    14    1
    16    14    15   ar
    17    14    20   ar
    18    15    16    1
    19    15    17   ar
    20    17    18   ar
    21    18    19   ar
    22    19    20   ar
