@<TRIPOS>MOLECULE
31876_ChemDiv_5536-1217
 37 41 0 0 0
SMALL
GASTEIGER
Energy = 0

@<TRIPOS>ATOM
      1 N          -2.9000   -0.2250    0.0000 N.am    1  LIG1       -0.2138
      2 C          -3.8380   -0.5210    0.0000 C.2     1  LIG1        0.2555
      3 C          -4.4170    0.3040    0.0000 C.ar    1  LIG1        0.0584
      4 C          -3.8250    1.1040    0.0000 C.ar    1  LIG1        0.0584
      5 C          -2.8830    0.7880    0.0000 C.2     1  LIG1        0.2555
      6 O          -2.0580    1.3670    0.0000 O.2     1  LIG1       -0.2695
      7 C          -4.2290    2.0130    0.0000 C.ar    1  LIG1        0.0047
      8 C          -5.2170    2.1330    0.0000 C.ar    1  LIG1        0.0001
      9 C          -5.8080    1.3170    0.0000 C.ar    1  LIG1        0.0001
     10 C          -5.4000    0.4000    0.0000 C.ar    1  LIG1        0.0047
     11 O          -4.1540   -1.4710    0.0000 O.2     1  LIG1       -0.2695
     12 C          -2.0210   -0.7250    0.0000 C.3     1  LIG1        0.1835
     13 C          -1.1500   -0.2250    0.0000 C.2     1  LIG1        0.3402
     14 O          -0.2830   -0.7380    0.0000 O.3     1  LIG1       -0.4230
     15 C           0.5880   -0.2250    0.0000 C.ar    1  LIG1        0.1485
     16 C           0.6040    0.7630    0.0000 C.ar    1  LIG1        0.0376
     17 C           1.4540    1.2710    0.0000 C.ar    1  LIG1        0.0047
     18 C           2.3170    0.7500    0.0000 C.ar    1  LIG1        0.0194
     19 C           3.1880    1.2460    0.0000 C.ar    1  LIG1        0.1004
     20 N           3.2040    2.2540    0.0000 N.ar    1  LIG1       -0.2423
     21 C           4.0540    2.7420    0.0000 C.ar    1  LIG1        0.0989
     22 C           4.9170    2.2380    0.0000 C.ar    1  LIG1        0.0989
     23 N           4.9170    1.2330    0.0000 N.ar    1  LIG1       -0.2407
     24 C           4.0540    0.7500    0.0000 C.ar    1  LIG1        0.1179
     25 C           5.8040    2.7380    0.0000 C.ar    1  LIG1        0.0206
     26 C           5.8040    3.7380    0.0000 C.ar    1  LIG1        0.0016
     27 C           4.9420    4.2290    0.0000 C.ar    1  LIG1        0.0016
     28 C           4.0710    3.7500    0.0000 C.ar    1  LIG1        0.0206
     29 C           2.3170   -0.2420    0.0000 C.ar    1  LIG1        0.0047
     30 C           1.4500   -0.7380    0.0000 C.ar    1  LIG1        0.0376
     31 O          -1.1500    0.7630    0.0000 O.2     1  LIG1       -0.2478
     32 C          -2.0380   -1.7330    0.0000 C.3     1  LIG1        0.0570
     33 C          -1.1670   -2.2330    0.0000 C.3     1  LIG1        0.1532
     34 S          -1.1920   -3.2420    0.0000 S.O2    1  LIG1       -0.0082
     35 O          -2.1790   -3.2420    0.0000 O.2     1  LIG1       -0.1729
     36 O          -0.1830   -3.2420    0.0000 O.2     1  LIG1       -0.1729
     37 C          -1.1920   -4.2290    0.0000 C.3     1  LIG1        0.1760
@<TRIPOS>BOND
     1     1     2   am
     2     1     5   am
     3     1    12    1
     4     2     3    1
     5     2    11    2
     6     3     4   ar
     7     3    10   ar
     8     4     5    1
     9     4     7   ar
    10     5     6    2
    11     7     8   ar
    12     8     9   ar
    13     9    10   ar
    14    12    13    1
    15    12    32    1
    16    13    14    1
    17    13    31    2
    18    14    15    1
    19    15    16   ar
    20    15    30   ar
    21    16    17   ar
    22    17    18   ar
    23    18    19    1
    24    18    29   ar
    25    19    20   ar
    26    19    24   ar
    27    20    21   ar
    28    21    22   ar
    29    21    28   ar
    30    22    23   ar
    31    22    25   ar
    32    23    24   ar
    33    25    26   ar
    34    26    27   ar
    35    27    28   ar
    36    29    30   ar
    37    32    33    1
    38    33    34    1
    39    34    35    2
    40    34    36    2
    41    34    37    1
