@<TRIPOS>MOLECULE
31872_ChemDiv_5436-1025
 25 28 0 0 0
SMALL
GASTEIGER
Energy = 0

@<TRIPOS>ATOM
      1 C           0.8790    2.1710    0.0000 C.ar    1  LIG1        0.1473
      2 C           0.8790    1.1790    0.0000 C.ar    1  LIG1        0.0308
      3 C           1.7460    0.6790    0.0000 C.ar    1  LIG1       -0.0128
      4 C           2.6210    1.1790    0.0000 C.ar    1  LIG1        0.0781
      5 C           2.6210    2.1710    0.0000 C.ar    1  LIG1        0.3456
      6 O           1.7460    2.6750    0.0000 O.2     1  LIG1       -0.4213
      7 O           3.4920    2.6750    0.0000 O.2     1  LIG1       -0.2445
      8 C           1.7460   -0.3250    0.0000 C.3     1  LIG1        0.0267
      9 C           2.6130   -0.8250    0.0000 C.3     1  LIG1        0.0050
     10 C           0.0080    0.6790    0.0000 C.ar    1  LIG1        0.0058
     11 C          -0.8670    1.1790    0.0000 C.ar    1  LIG1        0.0375
     12 C          -0.8670    2.1710    0.0000 C.ar    1  LIG1        0.1443
     13 C           0.0080    2.6750    0.0000 C.ar    1  LIG1        0.0473
     14 C           0.0080    3.6710    0.0000 C.3     1  LIG1        0.0375
     15 O          -1.8000    2.4750    0.0000 O.2     1  LIG1       -0.4506
     16 C          -2.4040    1.6670    0.0000 C.ar    1  LIG1        0.1795
     17 C          -1.8000    0.8750    0.0000 C.ar    1  LIG1        0.0406
     18 C          -2.1670   -0.0750    0.0000 C.ar    1  LIG1        0.0033
     19 C          -3.1380   -0.2330    0.0000 C.ar    1  LIG1        0.0032
     20 C          -3.4960   -1.1710    0.0000 C.ar    1  LIG1        0.0369
     21 C          -2.8580   -1.9630    0.0000 C.ar    1  LIG1        0.1387
     22 C          -1.8750   -1.7790    0.0000 C.ar    1  LIG1        0.0369
     23 C          -1.5380   -0.8420    0.0000 C.ar    1  LIG1        0.0032
     24 O          -3.2000   -2.8920    0.0000 O.3     1  LIG1       -0.4714
     25 C          -2.5710   -3.6670    0.0000 C.3     1  LIG1        0.2525
@<TRIPOS>BOND
     1     1     2   ar
     2     1     6   ar
     3     1    13   ar
     4     2     3   ar
     5     2    10   ar
     6     3     4   ar
     7     3     8    1
     8     4     5   ar
     9     5     6   ar
    10     5     7    2
    11     8     9    1
    12    10    11   ar
    13    11    12   ar
    14    11    17   ar
    15    12    13   ar
    16    12    15   ar
    17    13    14    1
    18    15    16   ar
    19    16    17   ar
    20    17    18    1
    21    18    19   ar
    22    18    23   ar
    23    19    20   ar
    24    20    21   ar
    25    21    22   ar
    26    21    24    1
    27    22    23   ar
    28    24    25    1
