@<TRIPOS>MOLECULE
31874_ChemDiv_5536-1212
 31 34 0 0 0
SMALL
GASTEIGER
Energy = 0

@<TRIPOS>ATOM
      1 N          -1.3460    0.0000    0.0000 N.am    1  LIG1       -0.2138
      2 C          -1.9460   -0.8040    0.0000 C.2     1  LIG1        0.2555
      3 C          -2.8960   -0.5000    0.0000 C.ar    1  LIG1        0.0584
      4 C          -2.8960    0.4880    0.0000 C.ar    1  LIG1        0.0584
      5 C          -1.9500    0.8080    0.0000 C.2     1  LIG1        0.2555
      6 O          -1.6460    1.7540    0.0000 O.2     1  LIG1       -0.2695
      7 C          -3.7670    0.9880    0.0000 C.ar    1  LIG1        0.0047
      8 C          -4.6290    0.4830    0.0000 C.ar    1  LIG1        0.0001
      9 C          -4.6290   -0.5170    0.0000 C.ar    1  LIG1        0.0001
     10 C          -3.7670   -1.0250    0.0000 C.ar    1  LIG1        0.0047
     11 O          -1.6250   -1.7540    0.0000 O.2     1  LIG1       -0.2695
     12 C          -0.3540    0.0040    0.0000 C.3     1  LIG1        0.1835
     13 C           0.1290    0.8670    0.0000 C.2     1  LIG1        0.3402
     14 O           1.1380    0.8670    0.0000 O.3     1  LIG1       -0.4214
     15 C           1.6290    1.7420    0.0000 C.ar    1  LIG1        0.1659
     16 C           2.6250    1.7420    0.0000 C.ar    1  LIG1        0.1158
     17 N           3.1210    0.8670    0.0000 N.ar    1  LIG1       -0.2408
     18 C           4.1080    0.8540    0.0000 C.ar    1  LIG1        0.0989
     19 C           4.6250    1.7420    0.0000 C.ar    1  LIG1        0.0207
     20 C           4.1250    2.6040    0.0000 C.ar    1  LIG1        0.0032
     21 C           3.1330    2.6040    0.0000 C.ar    1  LIG1        0.0207
     22 C           2.6380    3.4500    0.0000 C.ar    1  LIG1        0.0017
     23 C           1.6290    3.4540    0.0000 C.ar    1  LIG1        0.0032
     24 C           1.1380    2.6040    0.0000 C.ar    1  LIG1        0.0392
     25 O          -0.3710    1.7420    0.0000 O.2     1  LIG1       -0.2478
     26 C           0.1540   -0.8460    0.0000 C.3     1  LIG1        0.0570
     27 C          -0.3540   -1.7250    0.0000 C.3     1  LIG1        0.1532
     28 S           0.1710   -2.6000    0.0000 S.O2    1  LIG1       -0.0082
     29 O          -0.7170   -3.0830    0.0000 O.2     1  LIG1       -0.1729
     30 O           1.0210   -2.0750    0.0000 O.2     1  LIG1       -0.1729
     31 C           0.6580   -3.4500    0.0000 C.3     1  LIG1        0.1760
@<TRIPOS>BOND
     1     1     2   am
     2     1     5   am
     3     1    12    1
     4     2     3    1
     5     2    11    2
     6     3     4   ar
     7     3    10   ar
     8     4     5    1
     9     4     7   ar
    10     5     6    2
    11     7     8   ar
    12     8     9   ar
    13     9    10   ar
    14    12    13    1
    15    12    26    1
    16    13    14    1
    17    13    25    2
    18    14    15    1
    19    15    16   ar
    20    15    24   ar
    21    16    17   ar
    22    16    21   ar
    23    17    18   ar
    24    18    19   ar
    25    19    20   ar
    26    20    21   ar
    27    21    22   ar
    28    22    23   ar
    29    23    24   ar
    30    26    27    1
    31    27    28    1
    32    28    29    2
    33    28    30    2
    34    28    31    1
