@<TRIPOS>MOLECULE
31871_ChemDiv_5638-0358
 23 26 0 0 0
SMALL
GASTEIGER
Energy = 0

@<TRIPOS>ATOM
      1 N           0.6000    0.2670    0.0000 N.ar    1  LIG1       -0.1954
      2 C           1.4630   -0.2460    0.0000 C.ar    1  LIG1        0.1741
      3 C           2.3290    0.2670    0.0000 C.ar    1  LIG1        0.0541
      4 C           2.3290    1.2670    0.0000 C.ar    1  LIG1        0.1034
      5 N           1.4630    1.7540    0.0000 N.ar    1  LIG1       -0.2248
      6 C           0.6000    1.2670    0.0000 C.ar    1  LIG1        0.1668
      7 C          -0.3380    1.5540    0.0000 C.ar    1  LIG1        0.0597
      8 C          -0.9330    0.7500    0.0000 C.ar    1  LIG1        0.1044
      9 N          -0.3380   -0.0500    0.0000 N.ar    1  LIG1       -0.1625
     10 C          -1.9330    0.7330    0.0000 C.ar    1  LIG1        0.0195
     11 C          -2.4210   -0.1330    0.0000 C.ar    1  LIG1        0.0024
     12 C          -3.4330   -0.1330    0.0000 C.ar    1  LIG1        0.0114
     13 C          -3.9380    0.7330    0.0000 C.ar    1  LIG1        0.0577
     14 C          -3.4330    1.6000    0.0000 C.ar    1  LIG1        0.0114
     15 C          -2.4330    1.6000    0.0000 C.ar    1  LIG1        0.0024
     16 CL         -4.9330    0.7330    0.0000 Cl      1  LIG1       -0.0822
     17 C           3.1960   -0.2460    0.0000 C.ar    1  LIG1        0.0043
     18 C           3.1960   -1.2460    0.0000 C.ar    1  LIG1        0.0001
     19 C           4.0460   -1.7500    0.0000 C.ar    1  LIG1        0.0000
     20 C           4.9290   -1.2500    0.0000 C.ar    1  LIG1        0.0000
     21 C           4.9290   -0.2460    0.0000 C.ar    1  LIG1        0.0000
     22 C           4.0630    0.2670    0.0000 C.ar    1  LIG1        0.0001
     23 N           1.4630   -1.2460    0.0000 N.pl3   1  LIG1       -0.1070
@<TRIPOS>BOND
     1     1     2   ar
     2     1     6   ar
     3     1     9   ar
     4     2     3   ar
     5     2    23    1
     6     3     4   ar
     7     3    17    1
     8     4     5   ar
     9     5     6   ar
    10     6     7   ar
    11     7     8   ar
    12     8     9   ar
    13     8    10    1
    14    10    11   ar
    15    10    15   ar
    16    11    12   ar
    17    12    13   ar
    18    13    14   ar
    19    13    16    1
    20    14    15   ar
    21    17    18   ar
    22    17    22   ar
    23    18    19   ar
    24    19    20   ar
    25    20    21   ar
    26    21    22   ar
