@<TRIPOS>MOLECULE
31870_ChemDiv_5436-1000
 23 26 0 0 0
SMALL
GASTEIGER
Energy = 0

@<TRIPOS>ATOM
      1 C           0.8750    1.3130    0.0000 C.ar    1  LIG1        0.1473
      2 C           0.8750    0.3210    0.0000 C.ar    1  LIG1        0.0308
      3 C           1.7420   -0.1790    0.0000 C.ar    1  LIG1       -0.0128
      4 C           2.6130    0.3210    0.0000 C.ar    1  LIG1        0.0781
      5 C           2.6130    1.3130    0.0000 C.ar    1  LIG1        0.3456
      6 O           1.7420    1.8210    0.0000 O.2     1  LIG1       -0.4213
      7 O           3.4830    1.8210    0.0000 O.2     1  LIG1       -0.2445
      8 C           1.7420   -1.1880    0.0000 C.3     1  LIG1        0.0267
      9 C           2.6130   -1.6920    0.0000 C.3     1  LIG1        0.0050
     10 C           0.0250   -0.1790    0.0000 C.ar    1  LIG1        0.0058
     11 C          -0.8500    0.3210    0.0000 C.ar    1  LIG1        0.0375
     12 C          -0.8500    1.3130    0.0000 C.ar    1  LIG1        0.1443
     13 C           0.0250    1.8210    0.0000 C.ar    1  LIG1        0.0473
     14 C           0.0250    2.8080    0.0000 C.3     1  LIG1        0.0375
     15 O          -1.7960    1.6170    0.0000 O.2     1  LIG1       -0.4506
     16 C          -2.3960    0.8080    0.0000 C.ar    1  LIG1        0.1795
     17 C          -1.7960    0.0040    0.0000 C.ar    1  LIG1        0.0406
     18 C          -2.1540   -0.9290    0.0000 C.ar    1  LIG1        0.0031
     19 C          -3.1290   -1.0880    0.0000 C.ar    1  LIG1        0.0001
     20 C          -3.4880   -2.0330    0.0000 C.ar    1  LIG1        0.0000
     21 C          -2.8500   -2.8040    0.0000 C.ar    1  LIG1        0.0000
     22 C          -1.8540   -2.6420    0.0000 C.ar    1  LIG1        0.0000
     23 C          -1.5170   -1.6920    0.0000 C.ar    1  LIG1        0.0001
@<TRIPOS>BOND
     1     1     2   ar
     2     1     6   ar
     3     1    13   ar
     4     2     3   ar
     5     2    10   ar
     6     3     4   ar
     7     3     8    1
     8     4     5   ar
     9     5     6   ar
    10     5     7    2
    11     8     9    1
    12    10    11   ar
    13    11    12   ar
    14    11    17   ar
    15    12    13   ar
    16    12    15   ar
    17    13    14    1
    18    15    16   ar
    19    16    17   ar
    20    17    18    1
    21    18    19   ar
    22    18    23   ar
    23    19    20   ar
    24    20    21   ar
    25    21    22   ar
    26    22    23   ar
