@<TRIPOS>MOLECULE
31885_ChemDiv_5321-4211
 21 24 0 0 0
SMALL
GASTEIGER
Energy = 0

@<TRIPOS>ATOM
      1 C           0.1710    1.1750    0.0000 C.ar    1  LIG1        0.0555
      2 N          -0.6460    0.6040    0.0000 N.ar    1  LIG1       -0.3263
      3 C          -1.4500    1.2130    0.0000 C.ar    1  LIG1        0.0596
      4 C          -1.1210    2.1630    0.0000 C.ar    1  LIG1        0.0132
      5 C          -0.1130    2.1330    0.0000 C.ar    1  LIG1       -0.0047
      6 C           0.5710    2.8630    0.0000 C.3     1  LIG1        0.0325
      7 C           1.5460    2.6330    0.0000 C.3     1  LIG1        0.0311
      8 C           1.8330    1.6790    0.0000 C.ar    1  LIG1       -0.0205
      9 C           1.1500    0.9540    0.0000 C.ar    1  LIG1        0.0115
     10 C           1.4330    0.0040    0.0000 C.ar    1  LIG1        0.0011
     11 C           2.4040   -0.2250    0.0000 C.ar    1  LIG1        0.0000
     12 C           3.0920    0.5080    0.0000 C.ar    1  LIG1       -0.0003
     13 C           2.7920    1.4540    0.0000 C.ar    1  LIG1       -0.0042
     14 C          -1.7750    2.9210    0.0000 C.ar    1  LIG1        0.0012
     15 C          -2.7500    2.7170    0.0000 C.ar    1  LIG1        0.0001
     16 C          -3.0960    1.7830    0.0000 C.ar    1  LIG1        0.0015
     17 C          -2.4250    1.0130    0.0000 C.ar    1  LIG1        0.0172
     18 C          -0.6630   -0.3880    0.0000 C.3     1  LIG1        0.1222
     19 C           0.2040   -0.9080    0.0000 C.3     1  LIG1        0.1298
     20 C           0.1750   -1.9130    0.0000 C.1     1  LIG1        0.0752
     21 N           0.1540   -2.9170    0.0000 N.1     1  LIG1       -0.1958
@<TRIPOS>BOND
     1     1     2   ar
     2     1     5   ar
     3     1     9    1
     4     2     3   ar
     5     2    18    1
     6     3     4   ar
     7     3    17   ar
     8     4     5   ar
     9     4    14   ar
    10     5     6    1
    11     6     7    1
    12     7     8    1
    13     8     9   ar
    14     8    13   ar
    15     9    10   ar
    16    10    11   ar
    17    11    12   ar
    18    12    13   ar
    19    14    15   ar
    20    15    16   ar
    21    16    17   ar
    22    18    19    1
    23    19    20    1
    24    20    21    3
