@<TRIPOS>MOLECULE
31889_ChemDiv_5638-0363
 18 20 0 0 0
SMALL
GASTEIGER
Energy = 0

@<TRIPOS>ATOM
      1 N          -1.3830   -0.5960    0.0000 N.ar    1  LIG1       -0.1947
      2 C          -1.3830    0.3960    0.0000 C.ar    1  LIG1        0.1764
      3 N          -0.5170    0.9040    0.0000 N.ar    1  LIG1       -0.2242
      4 C           0.3500    0.3960    0.0000 C.ar    1  LIG1        0.1034
      5 C           0.3500   -0.5960    0.0000 C.ar    1  LIG1        0.0541
      6 C          -0.5170   -1.0960    0.0000 C.ar    1  LIG1        0.1742
      7 N          -0.5170   -2.1080    0.0000 N.pl3   1  LIG1       -0.1070
      8 C           1.2130   -1.0960    0.0000 C.ar    1  LIG1        0.0043
      9 C           1.2130   -2.1080    0.0000 C.ar    1  LIG1        0.0001
     10 C           2.0750   -2.6000    0.0000 C.ar    1  LIG1        0.0000
     11 C           2.9420   -2.1080    0.0000 C.ar    1  LIG1        0.0000
     12 C           2.9420   -1.1130    0.0000 C.ar    1  LIG1        0.0000
     13 C           2.0880   -0.5960    0.0000 C.ar    1  LIG1        0.0001
     14 C          -2.3380    0.7080    0.0000 C.ar    1  LIG1        0.1250
     15 C          -2.9290   -0.1080    0.0000 C.ar    1  LIG1        0.1339
     16 N          -2.3380   -0.9000    0.0000 N.ar    1  LIG1       -0.1601
     17 C          -2.6460    1.6540    0.0000 C.1     1  LIG1        0.1052
     18 N          -2.9460    2.6040    0.0000 N.1     1  LIG1       -0.1907
@<TRIPOS>BOND
     1     1     2   ar
     2     1     6   ar
     3     1    16   ar
     4     2     3   ar
     5     2    14   ar
     6     3     4   ar
     7     4     5   ar
     8     5     6   ar
     9     5     8    1
    10     6     7    1
    11     8     9   ar
    12     8    13   ar
    13     9    10   ar
    14    10    11   ar
    15    11    12   ar
    16    12    13   ar
    17    14    15   ar
    18    14    17    1
    19    15    16   ar
    20    17    18    3
