@<TRIPOS>MOLECULE
31882_ChemDiv_6055-0136
 31 34 0 0 0
SMALL
GASTEIGER
Energy = 0

@<TRIPOS>ATOM
      1 C          -2.2250   -0.8130    0.0000 C.ar    1  LIG1        0.0897
      2 C          -2.2250   -1.8130    0.0000 C.ar    1  LIG1        0.0874
      3 N          -3.0880   -2.3000    0.0000 N.ar    1  LIG1       -0.2776
      4 C          -3.9460   -1.8130    0.0000 C.ar    1  LIG1        0.3339
      5 N          -3.9460   -0.8130    0.0000 N.ar    1  LIG1       -0.2467
      6 C          -3.0880   -0.3000    0.0000 C.ar    1  LIG1        0.2671
      7 O          -3.0880    0.7000    0.0000 O.2     1  LIG1       -0.2667
      8 C          -4.8170   -0.3130    0.0000 C.3     1  LIG1        0.1382
      9 O          -4.8170   -2.3130    0.0000 O.2     1  LIG1       -0.2462
     10 C          -3.0880   -3.3000    0.0000 C.3     1  LIG1        0.1351
     11 C          -1.2710   -2.1210    0.0000 C.ar    1  LIG1        0.0978
     12 N          -0.6880   -1.3130    0.0000 N.ar    1  LIG1       -0.3035
     13 C          -1.2710   -0.5000    0.0000 C.ar    1  LIG1        0.0700
     14 C          -0.9630    0.4460    0.0000 C.ar    1  LIG1        0.0163
     15 C          -1.6290    1.1830    0.0000 C.ar    1  LIG1        0.0011
     16 C          -1.3250    2.1380    0.0000 C.ar    1  LIG1       -0.0042
     17 C          -0.3460    2.3500    0.0000 C.ar    1  LIG1       -0.0218
     18 C           0.3250    1.6080    0.0000 C.ar    1  LIG1       -0.0042
     19 C           0.0170    0.6540    0.0000 C.ar    1  LIG1        0.0011
     20 C          -0.0380    3.3040    0.0000 C.3     1  LIG1        0.0310
     21 C           0.3130   -1.3130    0.0000 C.ar    1  LIG1        0.0642
     22 C           0.8130   -0.4460    0.0000 C.ar    1  LIG1        0.0188
     23 C           1.8130   -0.4380    0.0000 C.ar    1  LIG1        0.0160
     24 C           2.3130   -1.3130    0.0000 C.ar    1  LIG1        0.0479
     25 N           3.3130   -1.3130    0.0000 N.pl3   1  LIG1       -0.3075
     26 C           3.8130   -2.1750    0.0000 C.3     1  LIG1        0.0908
     27 C           4.8130   -2.1750    0.0000 C.3     1  LIG1        0.0232
     28 C           3.8130   -0.4380    0.0000 C.3     1  LIG1        0.0908
     29 C           4.8130   -0.4380    0.0000 C.3     1  LIG1        0.0232
     30 C           1.8130   -2.1790    0.0000 C.ar    1  LIG1        0.0160
     31 C           0.8130   -2.1750    0.0000 C.ar    1  LIG1        0.0188
@<TRIPOS>BOND
     1     1     2   ar
     2     1     6   ar
     3     1    13   ar
     4     2     3   ar
     5     2    11   ar
     6     3     4   ar
     7     3    10    1
     8     4     5   ar
     9     4     9    2
    10     5     6   ar
    11     5     8    1
    12     6     7    2
    13    11    12   ar
    14    12    13   ar
    15    12    21    1
    16    13    14    1
    17    14    15   ar
    18    14    19   ar
    19    15    16   ar
    20    16    17   ar
    21    17    18   ar
    22    17    20    1
    23    18    19   ar
    24    21    22   ar
    25    21    31   ar
    26    22    23   ar
    27    23    24   ar
    28    24    25    1
    29    24    30   ar
    30    25    26    1
    31    25    28    1
    32    26    27    1
    33    28    29    1
    34    30    31   ar
