@<TRIPOS>MOLECULE
31887_ChemDiv_5324-0002
 20 22 0 0 0
SMALL
GASTEIGER
Energy = 0

@<TRIPOS>ATOM
      1 N           0.5420    1.0170    0.0000 N.4     1  LIG1        0.3029
      2 C           0.2500    0.0710    0.0000 C.3     1  LIG1        0.1786
      3 C          -0.7290   -0.1380    0.0000 C.2     1  LIG1        0.2280
      4 C          -1.0080   -1.0960    0.0000 C.ar    1  LIG1        0.0406
      5 C          -0.3210   -1.8170    0.0000 C.ar    1  LIG1        0.0036
      6 C          -0.6130   -2.7920    0.0000 C.ar    1  LIG1        0.0068
      7 C          -1.5670   -3.0250    0.0000 C.ar    1  LIG1        0.0346
      8 C          -2.2710   -2.3000    0.0000 C.ar    1  LIG1        0.0068
      9 C          -2.0000   -1.3460    0.0000 C.ar    1  LIG1        0.0036
     10 BR         -1.8250   -3.9960    0.0000 Br      1  LIG1       -0.0490
     11 O          -1.4080    0.5830    0.0000 O.2     1  LIG1       -0.2851
     12 C           1.4000    1.5130    0.0000 C.3     1  LIG1        0.1114
     13 C           1.4000    2.5130    0.0000 C.3     1  LIG1        0.0887
     14 C           0.5420    3.0210    0.0000 C.3     1  LIG1        0.0200
     15 C           0.0540    2.2460    0.0000 C.3     1  LIG1        0.0615
     16 C           1.1250    1.8130    0.0000 C.3     1  LIG1        0.1089
     17 C          -0.3080    2.5130    0.0000 C.3     1  LIG1        0.0615
     18 C          -0.3080    1.5130    0.0000 C.3     1  LIG1        0.1089
     19 C           2.2670    3.0040    0.0000 C.3     1  LIG1        0.1879
     20 O           2.2670    4.0000    0.0000 O.3     1  LIG1       -0.2202
@<TRIPOS>BOND
     1     1     2    1
     2     1    12    1
     3     1    16    1
     4     1    18    1
     5     2     3    1
     6     3     4    1
     7     3    11    2
     8     4     5   ar
     9     4     9   ar
    10     5     6   ar
    11     6     7   ar
    12     7     8   ar
    13     7    10    1
    14     8     9   ar
    15    12    13    1
    16    13    14    1
    17    13    19    1
    18    14    15    1
    19    14    17    1
    20    15    16    1
    21    17    18    1
    22    19    20    1
