@<TRIPOS>MOLECULE
31896_ChemDiv_5436-1067
 25 28 0 0 0
SMALL
GASTEIGER
Energy = 0

@<TRIPOS>ATOM
      1 C           1.6920    1.3130    0.0000 C.ar    1  LIG1        0.1473
      2 C           1.6920    0.3040    0.0000 C.ar    1  LIG1        0.0308
      3 C           2.5460   -0.1880    0.0000 C.ar    1  LIG1       -0.0128
      4 C           3.4080    0.3040    0.0000 C.ar    1  LIG1        0.0781
      5 C           3.4080    1.3130    0.0000 C.ar    1  LIG1        0.3456
      6 O           2.5460    1.8130    0.0000 O.2     1  LIG1       -0.4213
      7 O           4.2960    1.8130    0.0000 O.2     1  LIG1       -0.2445
      8 C           2.5460   -1.1880    0.0000 C.3     1  LIG1        0.0267
      9 C           3.4080   -1.6790    0.0000 C.3     1  LIG1        0.0050
     10 C           0.8210   -0.1880    0.0000 C.ar    1  LIG1        0.0058
     11 C          -0.0580    0.3040    0.0000 C.ar    1  LIG1        0.0375
     12 C          -0.0580    1.3130    0.0000 C.ar    1  LIG1        0.1443
     13 C           0.8210    1.8130    0.0000 C.ar    1  LIG1        0.0473
     14 C           0.8210    2.8130    0.0000 C.3     1  LIG1        0.0375
     15 O          -0.9960    1.6290    0.0000 O.2     1  LIG1       -0.4506
     16 C          -1.5750    0.8000    0.0000 C.ar    1  LIG1        0.1795
     17 C          -0.9960    0.0000    0.0000 C.ar    1  LIG1        0.0406
     18 C          -1.3500   -0.9290    0.0000 C.ar    1  LIG1        0.0061
     19 C          -2.3420   -1.0960    0.0000 C.ar    1  LIG1        0.0370
     20 C          -2.6830   -2.0210    0.0000 C.ar    1  LIG1        0.1387
     21 O          -3.6920   -2.1790    0.0000 O.3     1  LIG1       -0.4714
     22 C          -4.3000   -1.3830    0.0000 C.3     1  LIG1        0.2525
     23 C          -2.0540   -2.8080    0.0000 C.ar    1  LIG1        0.0369
     24 C          -1.0710   -2.6250    0.0000 C.ar    1  LIG1        0.0031
     25 C          -0.7250   -1.7000    0.0000 C.ar    1  LIG1        0.0003
@<TRIPOS>BOND
     1     1     2   ar
     2     1     6   ar
     3     1    13   ar
     4     2     3   ar
     5     2    10   ar
     6     3     4   ar
     7     3     8    1
     8     4     5   ar
     9     5     6   ar
    10     5     7    2
    11     8     9    1
    12    10    11   ar
    13    11    12   ar
    14    11    17   ar
    15    12    13   ar
    16    12    15   ar
    17    13    14    1
    18    15    16   ar
    19    16    17   ar
    20    17    18    1
    21    18    19   ar
    22    18    25   ar
    23    19    20   ar
    24    20    21    1
    25    20    23   ar
    26    21    22    1
    27    23    24   ar
    28    24    25   ar
