@<TRIPOS>MOLECULE
31893_ChemDiv_6711-0031
 26 29 0 0 0
SMALL
GASTEIGER
Energy = 0

@<TRIPOS>ATOM
      1 N          -0.6500   -0.6040    0.0000 N.ar    1  LIG1       -0.1957
      2 C          -0.3830    0.3670    0.0000 C.ar    1  LIG1        0.1664
      3 C          -1.2080    0.9130    0.0000 C.ar    1  LIG1        0.0540
      4 C          -1.9880    0.2920    0.0000 C.ar    1  LIG1        0.0824
      5 N          -1.6380   -0.6460    0.0000 N.ar    1  LIG1       -0.1669
      6 C          -2.9540    0.5540    0.0000 C.3     1  LIG1        0.0540
      7 C          -1.2080    1.9130    0.0000 C.ar    1  LIG1        0.0381
      8 C          -2.0750    2.4080    0.0000 C.ar    1  LIG1        0.1388
      9 O          -2.9540    1.9000    0.0000 O.3     1  LIG1       -0.4714
     10 C          -3.8210    2.4000    0.0000 C.3     1  LIG1        0.2525
     11 C          -2.0750    3.4130    0.0000 C.ar    1  LIG1        0.0369
     12 C          -1.2080    3.9170    0.0000 C.ar    1  LIG1        0.0031
     13 C          -0.3460    3.4130    0.0000 C.ar    1  LIG1        0.0002
     14 C          -0.3460    2.4080    0.0000 C.ar    1  LIG1        0.0032
     15 N           0.5750    0.6130    0.0000 N.ar    1  LIG1       -0.2248
     16 C           1.2830   -0.1000    0.0000 C.ar    1  LIG1        0.1034
     17 C           1.0170   -1.0580    0.0000 C.ar    1  LIG1        0.0541
     18 C           0.0500   -1.3170    0.0000 C.ar    1  LIG1        0.1741
     19 N          -0.2170   -2.2710    0.0000 N.pl3   1  LIG1       -0.1070
     20 C           1.7130   -1.7710    0.0000 C.ar    1  LIG1        0.0044
     21 C           2.6830   -1.5130    0.0000 C.ar    1  LIG1        0.0010
     22 C           3.3790   -2.2330    0.0000 C.ar    1  LIG1        0.0114
     23 C           3.1040   -3.1960    0.0000 C.ar    1  LIG1        0.0577
     24 C           2.1380   -3.4460    0.0000 C.ar    1  LIG1        0.0114
     25 C           1.4420   -2.7380    0.0000 C.ar    1  LIG1        0.0010
     26 CL          3.8170   -3.9130    0.0000 Cl      1  LIG1       -0.0822
@<TRIPOS>BOND
     1     1     2   ar
     2     1     5   ar
     3     1    18   ar
     4     2     3   ar
     5     2    15   ar
     6     3     4   ar
     7     3     7    1
     8     4     5   ar
     9     4     6    1
    10     7     8   ar
    11     7    14   ar
    12     8     9    1
    13     8    11   ar
    14     9    10    1
    15    11    12   ar
    16    12    13   ar
    17    13    14   ar
    18    15    16   ar
    19    16    17   ar
    20    17    18   ar
    21    17    20    1
    22    18    19    1
    23    20    21   ar
    24    20    25   ar
    25    21    22   ar
    26    22    23   ar
    27    23    24   ar
    28    23    26    1
    29    24    25   ar
