@<TRIPOS>MOLECULE
31897_ChemDiv_8014-9415
 18 20 0 0 0
SMALL
GASTEIGER
Energy = 0

@<TRIPOS>ATOM
      1 N          -1.0460    0.9670    0.0000 N.ar    1  LIG1       -0.1957
      2 C          -0.3580    0.2330    0.0000 C.ar    1  LIG1        0.1741
      3 C           0.6130    0.4460    0.0000 C.ar    1  LIG1        0.0541
      4 C           0.9170    1.4000    0.0000 C.ar    1  LIG1        0.1034
      5 N           0.2500    2.1420    0.0000 N.ar    1  LIG1       -0.2248
      6 C          -0.7290    1.9290    0.0000 C.ar    1  LIG1        0.1665
      7 C          -1.5420    2.5130    0.0000 C.ar    1  LIG1        0.0553
      8 C          -2.3540    1.9290    0.0000 C.ar    1  LIG1        0.0825
      9 N          -2.0290    0.9670    0.0000 N.ar    1  LIG1       -0.1669
     10 C          -3.2960    2.2330    0.0000 C.3     1  LIG1        0.0541
     11 C           1.2790   -0.3000    0.0000 C.ar    1  LIG1        0.0044
     12 C           2.2580   -0.0880    0.0000 C.ar    1  LIG1        0.0010
     13 C           2.9250   -0.8330    0.0000 C.ar    1  LIG1        0.0114
     14 C           2.6170   -1.7790    0.0000 C.ar    1  LIG1        0.0577
     15 C           1.6460   -1.9920    0.0000 C.ar    1  LIG1        0.0114
     16 C           0.9710   -1.2420    0.0000 C.ar    1  LIG1        0.0010
     17 CL          3.2920   -2.5080    0.0000 Cl      1  LIG1       -0.0822
     18 N          -0.6630   -0.7290    0.0000 N.pl3   1  LIG1       -0.1070
@<TRIPOS>BOND
     1     1     2   ar
     2     1     6   ar
     3     1     9   ar
     4     2     3   ar
     5     2    18    1
     6     3     4   ar
     7     3    11    1
     8     4     5   ar
     9     5     6   ar
    10     6     7   ar
    11     7     8   ar
    12     8     9   ar
    13     8    10    1
    14    11    12   ar
    15    11    16   ar
    16    12    13   ar
    17    13    14   ar
    18    14    15   ar
    19    14    17    1
    20    15    16   ar
