@<TRIPOS>MOLECULE
31892_ChemDiv_5436-1027
 26 29 0 0 0
SMALL
GASTEIGER
Energy = 0

@<TRIPOS>ATOM
      1 C          -1.8000    1.3750    0.0000 C.ar    1  LIG1        0.0406
      2 C          -0.8670    1.6790    0.0000 C.ar    1  LIG1        0.0378
      3 C          -0.8670    2.6710    0.0000 C.ar    1  LIG1        0.1485
      4 O          -1.8000    2.9750    0.0000 O.2     1  LIG1       -0.4503
      5 C          -2.4000    2.1630    0.0000 C.ar    1  LIG1        0.1795
      6 C           0.0080    3.1710    0.0000 C.ar    1  LIG1        0.0750
      7 C           0.8790    2.6710    0.0000 C.ar    1  LIG1        0.1514
      8 C           0.8790    1.6790    0.0000 C.ar    1  LIG1        0.0311
      9 C           1.7460    1.1750    0.0000 C.ar    1  LIG1       -0.0128
     10 C           2.6210    1.6790    0.0000 C.ar    1  LIG1        0.0781
     11 C           2.6210    2.6710    0.0000 C.ar    1  LIG1        0.3456
     12 O           1.7460    3.1710    0.0000 O.2     1  LIG1       -0.4209
     13 O           3.4920    3.1710    0.0000 O.2     1  LIG1       -0.2445
     14 C           1.7460    0.1750    0.0000 C.3     1  LIG1        0.0267
     15 C           2.6080   -0.3250    0.0000 C.3     1  LIG1        0.0047
     16 C           2.6080   -1.3380    0.0000 C.3     1  LIG1        0.0003
     17 C           3.4880   -1.8290    0.0000 C.3     1  LIG1        0.0000
     18 C           0.0080    1.1750    0.0000 C.ar    1  LIG1        0.0059
     19 C          -2.1630    0.4210    0.0000 C.ar    1  LIG1        0.0033
     20 C          -3.1380    0.2670    0.0000 C.ar    1  LIG1        0.0032
     21 C          -3.4960   -0.6710    0.0000 C.ar    1  LIG1        0.0369
     22 C          -2.8580   -1.4630    0.0000 C.ar    1  LIG1        0.1387
     23 C          -1.8750   -1.2790    0.0000 C.ar    1  LIG1        0.0369
     24 C          -1.5380   -0.3420    0.0000 C.ar    1  LIG1        0.0032
     25 O          -3.1960   -2.3920    0.0000 O.3     1  LIG1       -0.4714
     26 C          -2.5670   -3.1670    0.0000 C.3     1  LIG1        0.2525
@<TRIPOS>BOND
     1     1     2   ar
     2     1     5   ar
     3     1    19    1
     4     2     3   ar
     5     2    18   ar
     6     3     4   ar
     7     3     6   ar
     8     4     5   ar
     9     6     7   ar
    10     7     8   ar
    11     7    12   ar
    12     8     9   ar
    13     8    18   ar
    14     9    10   ar
    15     9    14    1
    16    10    11   ar
    17    11    12   ar
    18    11    13    2
    19    14    15    1
    20    15    16    1
    21    16    17    1
    22    19    20   ar
    23    19    24   ar
    24    20    21   ar
    25    21    22   ar
    26    22    23   ar
    27    22    25    1
    28    23    24   ar
    29    25    26    1
