@<TRIPOS>MOLECULE
31895_ChemDiv_8007-8369
 23 26 0 0 0
SMALL
GASTEIGER
Energy = 0

@<TRIPOS>ATOM
      1 N          -0.0460   -0.4630    0.0000 N.ar    1  LIG1       -0.1954
      2 C          -0.0460    0.4380    0.0000 C.ar    1  LIG1        0.1664
      3 N           0.7960    0.9330    0.0000 N.ar    1  LIG1       -0.2307
      4 C           1.6040    0.4380    0.0000 C.ar    1  LIG1        0.0638
      5 C           1.6040   -0.4830    0.0000 C.ar    1  LIG1        0.0485
      6 C           0.7960   -0.9040    0.0000 C.ar    1  LIG1        0.1738
      7 N           0.7960   -1.8790    0.0000 N.pl3   1  LIG1       -0.1071
      8 C           2.5040   -0.9330    0.0000 C.ar    1  LIG1        0.0039
      9 C           3.3670   -0.4210    0.0000 C.ar    1  LIG1        0.0001
     10 C           4.2250   -0.9330    0.0000 C.ar    1  LIG1        0.0000
     11 C           4.2250   -1.9080    0.0000 C.ar    1  LIG1        0.0000
     12 C           3.3670   -2.4250    0.0000 C.ar    1  LIG1        0.0000
     13 C           2.5040   -1.9080    0.0000 C.ar    1  LIG1        0.0001
     14 C           2.5040    0.9540    0.0000 C.3     1  LIG1        0.0522
     15 C          -0.8130    0.9250    0.0000 C.ar    1  LIG1        0.0597
     16 C          -1.6960    0.4580    0.0000 C.ar    1  LIG1        0.1044
     17 N          -1.6960   -0.4710    0.0000 N.ar    1  LIG1       -0.1625
     18 C          -2.4880    0.9330    0.0000 C.ar    1  LIG1        0.0195
     19 C          -3.3580    0.4380    0.0000 C.ar    1  LIG1        0.0016
     20 C          -4.2290    0.9330    0.0000 C.ar    1  LIG1        0.0000
     21 C          -4.2290    1.9290    0.0000 C.ar    1  LIG1        0.0000
     22 C          -3.3580    2.4290    0.0000 C.ar    1  LIG1        0.0000
     23 C          -2.4880    1.9290    0.0000 C.ar    1  LIG1        0.0016
@<TRIPOS>BOND
     1     1     2   ar
     2     1     6   ar
     3     1    17   ar
     4     2     3   ar
     5     2    15   ar
     6     3     4   ar
     7     4     5   ar
     8     4    14    1
     9     5     6   ar
    10     5     8    1
    11     6     7    1
    12     8     9   ar
    13     8    13   ar
    14     9    10   ar
    15    10    11   ar
    16    11    12   ar
    17    12    13   ar
    18    15    16   ar
    19    16    17   ar
    20    16    18    1
    21    18    19   ar
    22    18    23   ar
    23    19    20   ar
    24    20    21   ar
    25    21    22   ar
    26    22    23   ar
