@<TRIPOS>MOLECULE
31899_ChemDiv_D015-0041
 23 26 0 0 0
SMALL
GASTEIGER
Energy = 0

@<TRIPOS>ATOM
      1 C          -0.9960   -0.1130    0.0000 C.ar    1  LIG1        0.1664
      2 N          -0.9960   -1.1130    0.0000 N.ar    1  LIG1       -0.1954
      3 C          -0.1380   -1.6250    0.0000 C.ar    1  LIG1        0.1738
      4 C           0.7330   -1.1130    0.0000 C.ar    1  LIG1        0.0485
      5 C           0.7330   -0.1130    0.0000 C.ar    1  LIG1        0.0638
      6 N          -0.1380    0.3790    0.0000 N.ar    1  LIG1       -0.2307
      7 C           1.6040    0.3960    0.0000 C.3     1  LIG1        0.0522
      8 C           1.5880   -1.6250    0.0000 C.ar    1  LIG1        0.0039
      9 C           1.5880   -2.6290    0.0000 C.ar    1  LIG1        0.0001
     10 C           2.4580   -3.1170    0.0000 C.ar    1  LIG1        0.0000
     11 C           3.3250   -2.6290    0.0000 C.ar    1  LIG1        0.0000
     12 C           3.3250   -1.6250    0.0000 C.ar    1  LIG1        0.0000
     13 C           2.4580   -1.1130    0.0000 C.ar    1  LIG1        0.0001
     14 N          -0.1380   -2.6130    0.0000 N.pl3   1  LIG1       -0.1071
     15 N          -1.9540   -1.4250    0.0000 N.ar    1  LIG1       -0.1609
     16 C          -2.5290   -0.6290    0.0000 C.ar    1  LIG1        0.1236
     17 C          -1.9540    0.1790    0.0000 C.ar    1  LIG1        0.0567
     18 C          -2.1710    1.1790    0.0000 C.ar    1  LIG1        0.0045
     19 C          -3.1130    1.4750    0.0000 C.ar    1  LIG1        0.0001
     20 C          -3.3290    2.4460    0.0000 C.ar    1  LIG1        0.0000
     21 C          -2.5790    3.1210    0.0000 C.ar    1  LIG1        0.0000
     22 C          -1.6380    2.8130    0.0000 C.ar    1  LIG1        0.0000
     23 C          -1.4210    1.8460    0.0000 C.ar    1  LIG1        0.0001
@<TRIPOS>BOND
     1     1     2   ar
     2     1     6   ar
     3     1    17   ar
     4     2     3   ar
     5     2    15   ar
     6     3     4   ar
     7     3    14    1
     8     4     5   ar
     9     4     8    1
    10     5     6   ar
    11     5     7    1
    12     8     9   ar
    13     8    13   ar
    14     9    10   ar
    15    10    11   ar
    16    11    12   ar
    17    12    13   ar
    18    15    16   ar
    19    16    17   ar
    20    17    18    1
    21    18    19   ar
    22    18    23   ar
    23    19    20   ar
    24    20    21   ar
    25    21    22   ar
    26    22    23   ar
