@<TRIPOS>MOLECULE
31902_ChemDiv_5436-0877
 19 22 0 0 0
SMALL
GASTEIGER
Energy = 0

@<TRIPOS>ATOM
      1 C           1.7000   -0.4670    0.0000 C.ar    1  LIG1       -0.0170
      2 C           0.8250    0.0460    0.0000 C.ar    1  LIG1        0.0308
      3 C           0.8250    1.0380    0.0000 C.ar    1  LIG1        0.1514
      4 O           1.6920    1.5380    0.0000 O.2     1  LIG1       -0.4212
      5 C           2.5670    1.0380    0.0000 C.ar    1  LIG1        0.3414
      6 C           2.5670    0.0460    0.0000 C.ar    1  LIG1        0.0499
      7 C           3.3000   -0.6250    0.0000 C.3     1  LIG1        0.0330
      8 C           2.8920   -1.5330    0.0000 C.3     1  LIG1        0.0096
      9 C           1.9040   -1.4380    0.0000 C.3     1  LIG1        0.0267
     10 O           3.4380    1.5380    0.0000 O.2     1  LIG1       -0.2448
     11 C          -0.0420    1.5380    0.0000 C.ar    1  LIG1        0.0750
     12 C          -0.9130    1.0380    0.0000 C.ar    1  LIG1        0.1476
     13 C          -0.9130    0.0460    0.0000 C.ar    1  LIG1        0.0334
     14 C          -1.8630   -0.2750    0.0000 C.ar    1  LIG1        0.0114
     15 C          -2.4540    0.5290    0.0000 C.ar    1  LIG1        0.1193
     16 O          -1.8630    1.3420    0.0000 O.2     1  LIG1       -0.4580
     17 C          -3.4420    0.5290    0.0000 C.3     1  LIG1        0.0721
     18 C          -2.1710   -1.2290    0.0000 C.3     1  LIG1        0.0340
     19 C          -0.0420   -0.4670    0.0000 C.ar    1  LIG1        0.0055
@<TRIPOS>BOND
     1     1     2   ar
     2     1     6   ar
     3     1     9    1
     4     2     3   ar
     5     2    19   ar
     6     3     4   ar
     7     3    11   ar
     8     4     5   ar
     9     5     6   ar
    10     5    10    2
    11     6     7    1
    12     7     8    1
    13     8     9    1
    14    11    12   ar
    15    12    13   ar
    16    12    16   ar
    17    13    14   ar
    18    13    19   ar
    19    14    15   ar
    20    14    18    1
    21    15    16   ar
    22    15    17    1
