@<TRIPOS>MOLECULE
31900_ChemDiv_5436-0847
 27 32 0 0 0
SMALL
GASTEIGER
Energy = 0

@<TRIPOS>ATOM
      1 C           1.7460    1.4460    0.0000 C.ar    1  LIG1        0.1472
      2 C           1.7460    0.4420    0.0000 C.ar    1  LIG1        0.0305
      3 C           2.6000   -0.0580    0.0000 C.ar    1  LIG1       -0.0170
      4 C           3.4830    0.4540    0.0000 C.ar    1  LIG1        0.0499
      5 C           3.4670    1.4460    0.0000 C.ar    1  LIG1        0.3414
      6 O           2.6000    1.9500    0.0000 O.2     1  LIG1       -0.4215
      7 O           4.3290    1.9500    0.0000 O.2     1  LIG1       -0.2449
      8 C           4.2250   -0.2210    0.0000 C.3     1  LIG1        0.0330
      9 C           3.8130   -1.1420    0.0000 C.3     1  LIG1        0.0096
     10 C           2.8330   -1.0380    0.0000 C.3     1  LIG1        0.0267
     11 C           0.8830   -0.0580    0.0000 C.ar    1  LIG1        0.0058
     12 C           0.0040    0.4420    0.0000 C.ar    1  LIG1        0.0375
     13 C           0.0040    1.4460    0.0000 C.ar    1  LIG1        0.1443
     14 C           0.8830    1.9500    0.0000 C.ar    1  LIG1        0.0473
     15 C           0.8830    2.9420    0.0000 C.3     1  LIG1        0.0375
     16 O          -0.9460    1.7540    0.0000 O.2     1  LIG1       -0.4506
     17 C          -1.5330    0.9580    0.0000 C.ar    1  LIG1        0.1795
     18 C          -0.9460    0.1460    0.0000 C.ar    1  LIG1        0.0407
     19 C          -1.5330   -0.6670    0.0000 C.ar    1  LIG1        0.0064
     20 C          -2.5210   -0.5500    0.0000 C.ar    1  LIG1        0.0403
     21 C          -3.1130   -1.3540    0.0000 C.ar    1  LIG1        0.1764
     22 C          -2.7210   -2.2750    0.0000 C.ar    1  LIG1        0.1764
     23 O          -3.4830   -2.9380    0.0000 O.3     1  LIG1       -0.4346
     24 C          -4.3330   -2.4210    0.0000 C.3     1  LIG1        0.4294
     25 O          -4.1170   -1.4580    0.0000 O.3     1  LIG1       -0.4346
     26 C          -1.7250   -2.3790    0.0000 C.ar    1  LIG1        0.0402
     27 C          -1.1250   -1.5920    0.0000 C.ar    1  LIG1        0.0034
@<TRIPOS>BOND
     1     1     2   ar
     2     1     6   ar
     3     1    14   ar
     4     2     3   ar
     5     2    11   ar
     6     3     4   ar
     7     3    10    1
     8     4     5   ar
     9     4     8    1
    10     5     6   ar
    11     5     7    2
    12     8     9    1
    13     9    10    1
    14    11    12   ar
    15    12    13   ar
    16    12    18   ar
    17    13    14   ar
    18    13    16   ar
    19    14    15    1
    20    16    17   ar
    21    17    18   ar
    22    18    19    1
    23    19    20   ar
    24    19    27   ar
    25    20    21   ar
    26    21    22   ar
    27    21    25    1
    28    22    23    1
    29    22    26   ar
    30    23    24    1
    31    24    25    1
    32    26    27   ar
