@<TRIPOS>MOLECULE
31904_ChemDiv_5436-0879
 24 28 0 0 0
SMALL
GASTEIGER
Energy = 0

@<TRIPOS>ATOM
      1 C           1.7000    0.8170    0.0000 C.ar    1  LIG1       -0.0170
      2 C           0.8250    1.3290    0.0000 C.ar    1  LIG1        0.0308
      3 C           0.8250    2.3210    0.0000 C.ar    1  LIG1        0.1514
      4 O           1.6920    2.8210    0.0000 O.2     1  LIG1       -0.4212
      5 C           2.5670    2.3210    0.0000 C.ar    1  LIG1        0.3414
      6 C           2.5670    1.3290    0.0000 C.ar    1  LIG1        0.0499
      7 C           3.3000    0.6580    0.0000 C.3     1  LIG1        0.0330
      8 C           2.8920   -0.2500    0.0000 C.3     1  LIG1        0.0096
      9 C           1.9040   -0.1540    0.0000 C.3     1  LIG1        0.0267
     10 O           3.4380    2.8210    0.0000 O.2     1  LIG1       -0.2448
     11 C          -0.0420    2.8210    0.0000 C.ar    1  LIG1        0.0750
     12 C          -0.9130    2.3210    0.0000 C.ar    1  LIG1        0.1485
     13 C          -0.9130    1.3290    0.0000 C.ar    1  LIG1        0.0378
     14 C          -1.8630    1.0080    0.0000 C.ar    1  LIG1        0.0406
     15 C          -2.4540    1.8130    0.0000 C.ar    1  LIG1        0.1795
     16 O          -1.8630    2.6250    0.0000 O.2     1  LIG1       -0.4503
     17 C          -2.1710    0.0540    0.0000 C.ar    1  LIG1        0.0032
     18 C          -3.1420   -0.1710    0.0000 C.ar    1  LIG1        0.0010
     19 C          -3.4420   -1.1170    0.0000 C.ar    1  LIG1        0.0114
     20 C          -2.7790   -1.8710    0.0000 C.ar    1  LIG1        0.0577
     21 C          -1.8000   -1.6330    0.0000 C.ar    1  LIG1        0.0114
     22 C          -1.4960   -0.6750    0.0000 C.ar    1  LIG1        0.0010
     23 CL         -3.0750   -2.8170    0.0000 Cl      1  LIG1       -0.0822
     24 C          -0.0420    0.8170    0.0000 C.ar    1  LIG1        0.0058
@<TRIPOS>BOND
     1     1     2   ar
     2     1     6   ar
     3     1     9    1
     4     2     3   ar
     5     2    24   ar
     6     3     4   ar
     7     3    11   ar
     8     4     5   ar
     9     5     6   ar
    10     5    10    2
    11     6     7    1
    12     7     8    1
    13     8     9    1
    14    11    12   ar
    15    12    13   ar
    16    12    16   ar
    17    13    14   ar
    18    13    24   ar
    19    14    15   ar
    20    14    17    1
    21    15    16   ar
    22    17    18   ar
    23    17    22   ar
    24    18    19   ar
    25    19    20   ar
    26    20    21   ar
    27    20    23    1
    28    21    22   ar
