@<TRIPOS>MOLECULE
31908_ChemDiv_D252-0028
 26 29 0 0 0
SMALL
GASTEIGER
Energy = 0

@<TRIPOS>ATOM
      1 C          -1.1540   -0.8130    0.0000 C.ar    1  LIG1        0.0897
      2 C          -1.1460   -1.8080    0.0000 C.ar    1  LIG1        0.0874
      3 N          -2.0210   -2.3080    0.0000 N.ar    1  LIG1       -0.2776
      4 C          -2.8750   -1.8130    0.0000 C.ar    1  LIG1        0.3339
      5 N          -2.8750   -0.8130    0.0000 N.ar    1  LIG1       -0.2467
      6 C          -2.0210   -0.3040    0.0000 C.ar    1  LIG1        0.2671
      7 O          -2.0210    0.6960    0.0000 O.2     1  LIG1       -0.2667
      8 C          -3.7460   -0.3130    0.0000 C.3     1  LIG1        0.1382
      9 O          -3.7460   -2.3130    0.0000 O.2     1  LIG1       -0.2462
     10 C          -2.0210   -3.3080    0.0000 C.3     1  LIG1        0.1351
     11 C          -0.2000   -2.1130    0.0000 C.ar    1  LIG1        0.0990
     12 N           0.3880   -1.2960    0.0000 N.ar    1  LIG1       -0.2861
     13 C          -0.2130   -0.4920    0.0000 C.ar    1  LIG1        0.0715
     14 C           0.1040    0.4630    0.0000 C.ar    1  LIG1        0.0164
     15 C          -0.5790    1.1920    0.0000 C.ar    1  LIG1        0.0020
     16 C          -0.2750    2.1460    0.0000 C.ar    1  LIG1        0.0067
     17 C           0.7130    2.3630    0.0000 C.ar    1  LIG1        0.0346
     18 C           1.3790    1.6210    0.0000 C.ar    1  LIG1        0.0067
     19 C           1.0750    0.6750    0.0000 C.ar    1  LIG1        0.0020
     20 BR          1.0130    3.3130    0.0000 Br      1  LIG1       -0.0490
     21 C           1.3880   -1.2920    0.0000 C.ar    1  LIG1        0.1893
     22 N           1.9710   -0.4790    0.0000 N.ar    1  LIG1       -0.0592
     23 O           2.9250   -0.7830    0.0000 O.2     1  LIG1       -0.3563
     24 C           2.9250   -1.7830    0.0000 C.ar    1  LIG1        0.1564
     25 C           1.9790   -2.0960    0.0000 C.ar    1  LIG1        0.0763
     26 C           3.7420   -2.3670    0.0000 C.3     1  LIG1        0.0754
@<TRIPOS>BOND
     1     1     2   ar
     2     1     6   ar
     3     1    13   ar
     4     2     3   ar
     5     2    11   ar
     6     3     4   ar
     7     3    10    1
     8     4     5   ar
     9     4     9    2
    10     5     6   ar
    11     5     8    1
    12     6     7    2
    13    11    12   ar
    14    12    13   ar
    15    12    21    1
    16    13    14    1
    17    14    15   ar
    18    14    19   ar
    19    15    16   ar
    20    16    17   ar
    21    17    18   ar
    22    17    20    1
    23    18    19   ar
    24    21    22   ar
    25    21    25   ar
    26    22    23   ar
    27    23    24   ar
    28    24    25   ar
    29    24    26    1
