@<TRIPOS>MOLECULE
31903_ChemDiv_D015-0206
 25 28 0 0 0
SMALL
GASTEIGER
Energy = 0

@<TRIPOS>ATOM
      1 N          -0.8580   -1.5880    0.0000 N.ar    1  LIG1       -0.1957
      2 C          -0.6040   -0.6170    0.0000 C.ar    1  LIG1        0.1663
      3 C          -1.4210   -0.0790    0.0000 C.ar    1  LIG1        0.0511
      4 C          -2.2080   -0.6920    0.0000 C.ar    1  LIG1        0.0823
      5 N          -1.8420   -1.6290    0.0000 N.ar    1  LIG1       -0.1669
      6 C          -3.1790   -0.4290    0.0000 C.3     1  LIG1        0.0540
      7 C          -1.4210    0.9290    0.0000 C.ar    1  LIG1        0.0043
      8 C          -2.2830    1.4290    0.0000 C.ar    1  LIG1        0.0032
      9 C          -2.2830    2.4380    0.0000 C.ar    1  LIG1        0.0369
     10 C          -1.4210    2.9330    0.0000 C.ar    1  LIG1        0.1387
     11 C          -0.5540    2.4380    0.0000 C.ar    1  LIG1        0.0369
     12 C          -0.5540    1.4290    0.0000 C.ar    1  LIG1        0.0032
     13 O          -1.4250    3.9380    0.0000 O.3     1  LIG1       -0.4714
     14 C          -0.5540    4.4290    0.0000 C.3     1  LIG1        0.2525
     15 N           0.3710   -0.3670    0.0000 N.ar    1  LIG1       -0.2248
     16 C           1.0670   -1.0710    0.0000 C.ar    1  LIG1        0.1034
     17 C           0.8040   -2.0500    0.0000 C.ar    1  LIG1        0.0541
     18 C          -0.1630   -2.2960    0.0000 C.ar    1  LIG1        0.1741
     19 N          -0.4250   -3.2670    0.0000 N.pl3   1  LIG1       -0.1070
     20 C           1.5080   -2.7540    0.0000 C.ar    1  LIG1        0.0043
     21 C           1.2420   -3.7170    0.0000 C.ar    1  LIG1        0.0001
     22 C           1.9460   -4.4290    0.0000 C.ar    1  LIG1        0.0000
     23 C           2.9080   -4.1790    0.0000 C.ar    1  LIG1        0.0000
     24 C           3.1750   -3.2080    0.0000 C.ar    1  LIG1        0.0000
     25 C           2.4750   -2.4920    0.0000 C.ar    1  LIG1        0.0001
@<TRIPOS>BOND
     1     1     2   ar
     2     1     5   ar
     3     1    18   ar
     4     2     3   ar
     5     2    15   ar
     6     3     4   ar
     7     3     7    1
     8     4     5   ar
     9     4     6    1
    10     7     8   ar
    11     7    12   ar
    12     8     9   ar
    13     9    10   ar
    14    10    11   ar
    15    10    13    1
    16    11    12   ar
    17    13    14    1
    18    15    16   ar
    19    16    17   ar
    20    17    18   ar
    21    17    20    1
    22    18    19    1
    23    20    21   ar
    24    20    25   ar
    25    21    22   ar
    26    22    23   ar
    27    23    24   ar
    28    24    25   ar
