@<TRIPOS>MOLECULE
31907_ChemDiv_5607-0278
 25 27 0 0 0
SMALL
GASTEIGER
Energy = 0

@<TRIPOS>ATOM
      1 N           1.7460   -0.2080    0.0000 N.4     1  LIG1        0.3810
      2 C           1.7460   -1.2460    0.0000 C.3     1  LIG1        0.1451
      3 C           0.8500   -1.7750    0.0000 C.3     1  LIG1        0.1194
      4 C          -0.0380   -1.2460    0.0000 C.3     1  LIG1        0.0995
      5 N          -0.9170   -1.7750    0.0000 N.4     1  LIG1        0.3767
      6 C          -0.9170   -2.7420    0.0000 C.3     1  LIG1        0.1659
      7 C          -1.7750   -3.2420    0.0000 C.ar    1  LIG1        0.0344
      8 C          -2.6420   -2.7580    0.0000 C.ar    1  LIG1        0.0014
      9 C          -3.4920   -3.2420    0.0000 C.ar    1  LIG1       -0.0001
     10 C          -3.4920   -4.2330    0.0000 C.ar    1  LIG1       -0.0000
     11 C          -2.6420   -4.7540    0.0000 C.ar    1  LIG1       -0.0001
     12 C          -1.7750   -4.2330    0.0000 C.ar    1  LIG1        0.0014
     13 C          -1.7750   -1.2710    0.0000 C.3     1  LIG1        0.1390
     14 C          -2.6420   -1.7750    0.0000 C.3     1  LIG1        0.0688
     15 C          -0.0380   -0.2080    0.0000 C.3     1  LIG1        0.1194
     16 C           0.8500    0.3000    0.0000 C.3     1  LIG1        0.1451
     17 C           2.6500    0.3000    0.0000 C.3     1  LIG1        0.1662
     18 C           2.6500    1.3460    0.0000 C.ar    1  LIG1        0.0344
     19 C           1.7920    1.8500    0.0000 C.ar    1  LIG1        0.0019
     20 C           1.7920    2.8130    0.0000 C.ar    1  LIG1        0.0060
     21 C           2.6500    3.2920    0.0000 C.ar    1  LIG1        0.0252
     22 S           2.6380    4.2540    0.0000 S.3     1  LIG1       -0.1127
     23 C           3.4670    4.7540    0.0000 C.3     1  LIG1        0.0742
     24 C           3.4670    2.8130    0.0000 C.ar    1  LIG1        0.0060
     25 C           3.4880    1.8330    0.0000 C.ar    1  LIG1        0.0019
@<TRIPOS>BOND
     1     1     2    1
     2     1    16    1
     3     1    17    1
     4     2     3    1
     5     3     4    1
     6     4     5    1
     7     4    15    1
     8     5     6    1
     9     5    13    1
    10     6     7    1
    11     7     8   ar
    12     7    12   ar
    13     8     9   ar
    14     9    10   ar
    15    10    11   ar
    16    11    12   ar
    17    13    14    1
    18    15    16    1
    19    17    18    1
    20    18    19   ar
    21    18    25   ar
    22    19    20   ar
    23    20    21   ar
    24    21    22    1
    25    21    24   ar
    26    22    23    1
    27    24    25   ar
