@<TRIPOS>MOLECULE
31901_ChemDiv_D015-0143
 25 28 0 0 0
SMALL
GASTEIGER
Energy = 0

@<TRIPOS>ATOM
      1 N          -0.4330   -0.8380    0.0000 N.ar    1  LIG1       -0.1957
      2 C          -0.1670    0.1330    0.0000 C.ar    1  LIG1        0.1664
      3 C          -0.9960    0.6790    0.0000 C.ar    1  LIG1        0.0540
      4 C          -1.7710    0.0580    0.0000 C.ar    1  LIG1        0.0824
      5 N          -1.4170   -0.8830    0.0000 N.ar    1  LIG1       -0.1669
      6 C          -2.7420    0.3250    0.0000 C.3     1  LIG1        0.0540
      7 C          -0.9960    1.6790    0.0000 C.ar    1  LIG1        0.0381
      8 C          -1.8580    2.1790    0.0000 C.ar    1  LIG1        0.1388
      9 O          -2.7380    1.6710    0.0000 O.3     1  LIG1       -0.4714
     10 C          -3.6040    2.1710    0.0000 C.3     1  LIG1        0.2525
     11 C          -1.8580    3.1830    0.0000 C.ar    1  LIG1        0.0369
     12 C          -0.9960    3.6830    0.0000 C.ar    1  LIG1        0.0031
     13 C          -0.1330    3.1830    0.0000 C.ar    1  LIG1        0.0002
     14 C          -0.1330    2.1790    0.0000 C.ar    1  LIG1        0.0032
     15 N           0.7920    0.3830    0.0000 N.ar    1  LIG1       -0.2248
     16 C           1.5000   -0.3290    0.0000 C.ar    1  LIG1        0.1034
     17 C           1.2380   -1.2880    0.0000 C.ar    1  LIG1        0.0541
     18 C           0.2670   -1.5460    0.0000 C.ar    1  LIG1        0.1741
     19 N           0.0040   -2.5040    0.0000 N.pl3   1  LIG1       -0.1070
     20 C           1.9330   -2.0040    0.0000 C.ar    1  LIG1        0.0043
     21 C           2.9040   -1.7460    0.0000 C.ar    1  LIG1        0.0001
     22 C           3.6000   -2.4630    0.0000 C.ar    1  LIG1        0.0000
     23 C           3.3290   -3.4290    0.0000 C.ar    1  LIG1        0.0000
     24 C           2.3540   -3.6790    0.0000 C.ar    1  LIG1        0.0000
     25 C           1.6580   -2.9710    0.0000 C.ar    1  LIG1        0.0001
@<TRIPOS>BOND
     1     1     2   ar
     2     1     5   ar
     3     1    18   ar
     4     2     3   ar
     5     2    15   ar
     6     3     4   ar
     7     3     7    1
     8     4     5   ar
     9     4     6    1
    10     7     8   ar
    11     7    14   ar
    12     8     9    1
    13     8    11   ar
    14     9    10    1
    15    11    12   ar
    16    12    13   ar
    17    13    14   ar
    18    15    16   ar
    19    16    17   ar
    20    17    18   ar
    21    17    20    1
    22    18    19    1
    23    20    21   ar
    24    20    25   ar
    25    21    22   ar
    26    22    23   ar
    27    23    24   ar
    28    24    25   ar
