@<TRIPOS>MOLECULE
31910_ChemDiv_D252-0135
 30 34 0 0 0
SMALL
GASTEIGER
Energy = 0

@<TRIPOS>ATOM
      1 C          -0.9710   -0.0130    0.0000 C.ar    1  LIG1        0.0897
      2 C          -0.9710   -1.0130    0.0000 C.ar    1  LIG1        0.0874
      3 N          -1.8330   -1.5130    0.0000 N.ar    1  LIG1       -0.2776
      4 C          -2.7000   -1.0130    0.0000 C.ar    1  LIG1        0.3339
      5 N          -2.7000   -0.0130    0.0000 N.ar    1  LIG1       -0.2467
      6 C          -1.8330    0.4880    0.0000 C.ar    1  LIG1        0.2671
      7 O          -1.8330    1.4880    0.0000 O.2     1  LIG1       -0.2667
      8 C          -3.5790    0.4880    0.0000 C.3     1  LIG1        0.1382
      9 O          -3.5790   -1.5250    0.0000 O.2     1  LIG1       -0.2462
     10 C          -1.8330   -2.5170    0.0000 C.3     1  LIG1        0.1351
     11 C          -0.0170   -1.3170    0.0000 C.ar    1  LIG1        0.0978
     12 N           0.5710   -0.5130    0.0000 N.ar    1  LIG1       -0.3021
     13 C          -0.0170    0.2960    0.0000 C.ar    1  LIG1        0.0706
     14 C           0.3330    1.2290    0.0000 C.ar    1  LIG1        0.0225
     15 C          -0.3040    2.0040    0.0000 C.ar    1  LIG1        0.0360
     16 BR         -1.1670    2.5040    0.0000 Br      1  LIG1       -0.0490
     17 C           0.0460    2.9330    0.0000 C.ar    1  LIG1        0.0067
     18 C           1.0330    3.1130    0.0000 C.ar    1  LIG1        0.0005
     19 C           1.6670    2.3290    0.0000 C.ar    1  LIG1        0.0001
     20 C           1.3210    1.3960    0.0000 C.ar    1  LIG1        0.0019
     21 C           1.5710   -0.5130    0.0000 C.ar    1  LIG1        0.0817
     22 C           2.0710   -1.3790    0.0000 C.ar    1  LIG1        0.0973
     23 N           1.5710   -2.2420    0.0000 N.ar    1  LIG1       -0.2424
     24 C           2.0630   -3.1080    0.0000 C.ar    1  LIG1        0.0989
     25 C           3.0630   -3.1080    0.0000 C.ar    1  LIG1        0.0207
     26 C           3.5630   -2.2420    0.0000 C.ar    1  LIG1        0.0031
     27 C           3.0630   -1.3880    0.0000 C.ar    1  LIG1        0.0191
     28 C           3.5750   -0.5250    0.0000 C.ar    1  LIG1        0.0016
     29 C           3.0630    0.3500    0.0000 C.ar    1  LIG1        0.0016
     30 C           2.0710    0.3500    0.0000 C.ar    1  LIG1        0.0190
@<TRIPOS>BOND
     1     1     2   ar
     2     1     6   ar
     3     1    13   ar
     4     2     3   ar
     5     2    11   ar
     6     3     4   ar
     7     3    10    1
     8     4     5   ar
     9     4     9    2
    10     5     6   ar
    11     5     8    1
    12     6     7    2
    13    11    12   ar
    14    12    13   ar
    15    12    21    1
    16    13    14    1
    17    14    15   ar
    18    14    20   ar
    19    15    16    1
    20    15    17   ar
    21    17    18   ar
    22    18    19   ar
    23    19    20   ar
    24    21    22   ar
    25    21    30   ar
    26    22    23   ar
    27    22    27   ar
    28    23    24   ar
    29    24    25   ar
    30    25    26   ar
    31    26    27   ar
    32    27    28   ar
    33    28    29   ar
    34    29    30   ar
