@<TRIPOS>MOLECULE
31918_ChemDiv_5546-0116
 23 26 0 0 0
SMALL
GASTEIGER
Energy = 0

@<TRIPOS>ATOM
      1 C          -0.9580   -1.0710    0.0000 C.2     1  LIG1        0.2492
      2 N          -0.0630   -0.5670    0.0000 N.am    1  LIG1       -0.2726
      3 C           0.0630    0.5210    0.0000 C.3     1  LIG1        0.1152
      4 C           1.0790    0.9580    0.0000 C.3     1  LIG1        0.1137
      5 N           1.9540    0.2790    0.0000 N.pl3   1  LIG1       -0.2897
      6 C           2.8880    0.6790    0.0000 C.ar    1  LIG1        0.1318
      7 N           3.7080    0.0630    0.0000 N.ar    1  LIG1       -0.2292
      8 C           4.6460    0.4500    0.0000 C.ar    1  LIG1        0.1003
      9 C           4.7880    1.4750    0.0000 C.ar    1  LIG1        0.0208
     10 C           3.9750    2.0920    0.0000 C.ar    1  LIG1        0.0045
     11 C           3.0250    1.7040    0.0000 C.ar    1  LIG1        0.0343
     12 C           1.8250   -0.8080    0.0000 C.3     1  LIG1        0.1137
     13 C           0.8080   -1.2290    0.0000 C.3     1  LIG1        0.1152
     14 C          -1.7630   -0.6000    0.0000 C.ar    1  LIG1        0.0568
     15 C          -2.5670   -1.0540    0.0000 C.ar    1  LIG1        0.0447
     16 C          -3.3670   -0.5830    0.0000 C.ar    1  LIG1        0.1766
     17 C          -3.3630    0.3500    0.0000 C.ar    1  LIG1        0.1764
     18 O          -4.2420    0.6210    0.0000 O.3     1  LIG1       -0.4346
     19 C          -4.7920   -0.1210    0.0000 C.3     1  LIG1        0.4294
     20 O          -4.2420   -0.8670    0.0000 O.3     1  LIG1       -0.4346
     21 C          -2.5460    0.7920    0.0000 C.ar    1  LIG1        0.0403
     22 C          -1.7460    0.3290    0.0000 C.ar    1  LIG1        0.0078
     23 O          -0.9670   -2.0880    0.0000 O.2     1  LIG1       -0.2699
@<TRIPOS>BOND
     1     1     2   am
     2     1    14    1
     3     1    23    2
     4     2     3    1
     5     2    13    1
     6     3     4    1
     7     4     5    1
     8     5     6    1
     9     5    12    1
    10     6     7   ar
    11     6    11   ar
    12     7     8   ar
    13     8     9   ar
    14     9    10   ar
    15    10    11   ar
    16    12    13    1
    17    14    15   ar
    18    14    22   ar
    19    15    16   ar
    20    16    17   ar
    21    16    20    1
    22    17    18    1
    23    17    21   ar
    24    18    19    1
    25    19    20    1
    26    21    22   ar
