@<TRIPOS>MOLECULE
31915_ChemDiv_6228-0500
 18 19 0 0 0
SMALL
GASTEIGER
Energy = 0

@<TRIPOS>ATOM
      1 N          -0.1380    2.4380    0.0000 N.4     1  LIG1        0.3049
      2 C           0.7920    1.9380    0.0000 C.3     1  LIG1        0.1362
      3 C           0.8380    0.9460    0.0000 C.ar    1  LIG1        0.0328
      4 C           0.0080    0.4040    0.0000 C.ar    1  LIG1        0.0016
      5 C           0.0540   -0.5880    0.0000 C.ar    1  LIG1        0.0063
      6 C           0.9170   -1.0420    0.0000 C.ar    1  LIG1        0.0756
      7 C           0.9630   -2.0420    0.0000 C.2     1  LIG1        0.3413
      8 O           1.8250   -2.5080    0.0000 O.2     1  LIG1       -0.2449
      9 O           0.1330   -2.5750    0.0000 O.3     1  LIG1       -0.4413
     10 C           0.1750   -3.5710    0.0000 C.3     1  LIG1        0.2560
     11 C           1.7420   -0.5080    0.0000 C.ar    1  LIG1        0.0063
     12 C           1.7000    0.4830    0.0000 C.ar    1  LIG1        0.0016
     13 C          -0.1380    3.5750    0.0000 C.3     1  LIG1        0.1708
     14 C          -0.1380    1.4330    0.0000 C.3     1  LIG1        0.1091
     15 C          -0.9920    0.9290    0.0000 C.3     1  LIG1        0.0613
     16 C          -1.8290    1.4330    0.0000 C.3     1  LIG1        0.0122
     17 C          -1.8290    2.4380    0.0000 C.3     1  LIG1        0.0613
     18 C          -0.9920    2.9330    0.0000 C.3     1  LIG1        0.1091
@<TRIPOS>BOND
     1     1     2    1
     2     1    13    1
     3     1    14    1
     4     1    18    1
     5     2     3    1
     6     3     4   ar
     7     3    12   ar
     8     4     5   ar
     9     5     6   ar
    10     6     7    1
    11     6    11   ar
    12     7     8    2
    13     7     9    1
    14     9    10    1
    15    11    12   ar
    16    14    15    1
    17    15    16    1
    18    16    17    1
    19    17    18    1
