@<TRIPOS>MOLECULE
31919_ChemDiv_8011-1965
 17 18 0 0 0
SMALL
GASTEIGER
Energy = 0

@<TRIPOS>ATOM
      1 C          -0.8710   -0.9880    0.0000 C.2     1  LIG1        0.2490
      2 N           0.0040   -0.5080    0.0000 N.am    1  LIG1       -0.2761
      3 C           0.0040    0.5170    0.0000 C.3     1  LIG1        0.0941
      4 C           0.8670    0.9960    0.0000 C.3     1  LIG1        0.0271
      5 C           1.7170    0.5170    0.0000 C.3     1  LIG1        0.0399
      6 C           2.6080    1.0210    0.0000 C.2     1  LIG1        0.0501
      7 O           2.6080    2.0130    0.0000 O.co2   1  LIG1       -0.5492
      8 O           3.4710    0.5170    0.0000 O.co2   1  LIG1       -0.5492
      9 C           1.7170   -0.5080    0.0000 C.3     1  LIG1        0.0271
     10 C           0.8670   -0.9880    0.0000 C.3     1  LIG1        0.0941
     11 O          -0.8710   -2.0080    0.0000 O.2     1  LIG1       -0.2699
     12 C          -1.7670   -0.4790    0.0000 C.ar    1  LIG1        0.0536
     13 C          -1.7670    0.5170    0.0000 C.ar    1  LIG1        0.0045
     14 C          -2.6170    1.0210    0.0000 C.ar    1  LIG1        0.0001
     15 C          -3.4750    0.5170    0.0000 C.ar    1  LIG1        0.0000
     16 C          -3.4750   -0.4790    0.0000 C.ar    1  LIG1        0.0001
     17 C          -2.6170   -0.9880    0.0000 C.ar    1  LIG1        0.0045
@<TRIPOS>BOND
     1     1     2   am
     2     1    11    2
     3     1    12    1
     4     2     3    1
     5     2    10    1
     6     3     4    1
     7     4     5    1
     8     5     6    1
     9     5     9    1
    10     6     7   ar
    11     6     8   ar
    12     9    10    1
    13    12    13   ar
    14    12    17   ar
    15    13    14   ar
    16    14    15   ar
    17    15    16   ar
    18    16    17   ar
