@<TRIPOS>MOLECULE
31917_ChemDiv_8006-6060
 20 22 0 0 0
SMALL
GASTEIGER
Energy = 0

@<TRIPOS>ATOM
      1 C          -0.0040    1.0080    0.0000 C.3     1  LIG1        0.1758
      2 N           0.8710    1.5210    0.0000 N.3     1  LIG1       -0.2269
      3 C           1.7380    1.0290    0.0000 C.3     1  LIG1        0.0775
      4 C           2.6130    1.5210    0.0000 C.3     1  LIG1        0.0176
      5 C           2.6130    2.5130    0.0000 C.3     1  LIG1        0.0029
      6 C           1.7380    3.0040    0.0000 C.3     1  LIG1        0.0176
      7 C           0.8710    2.5130    0.0000 C.3     1  LIG1        0.0775
      8 N          -0.8670    1.4960    0.0000 N.4     1  LIG1        0.3879
      9 C          -1.7420    1.0080    0.0000 C.3     1  LIG1        0.1407
     10 C          -2.6170    1.4960    0.0000 C.3     1  LIG1        0.0630
     11 C          -2.6170    2.5130    0.0000 C.3     1  LIG1        0.0123
     12 C          -1.7210    3.0040    0.0000 C.3     1  LIG1        0.0630
     13 C          -0.8670    2.5130    0.0000 C.3     1  LIG1        0.1407
     14 C          -0.0040   -0.0080    0.0000 C.ar    1  LIG1        0.0453
     15 C           0.8460   -0.5040    0.0000 C.ar    1  LIG1        0.0036
     16 C           0.8460   -1.4920    0.0000 C.ar    1  LIG1        0.0113
     17 C          -0.0040   -1.9830    0.0000 C.ar    1  LIG1        0.0577
     18 C          -0.8670   -1.5170    0.0000 C.ar    1  LIG1        0.0113
     19 C          -0.8670   -0.5040    0.0000 C.ar    1  LIG1        0.0036
     20 CL         -0.0040   -3.0000    0.0000 Cl      1  LIG1       -0.0822
@<TRIPOS>BOND
     1     1     2    1
     2     1     8    1
     3     1    14    1
     4     2     3    1
     5     2     7    1
     6     3     4    1
     7     4     5    1
     8     5     6    1
     9     6     7    1
    10     8     9    1
    11     8    13    1
    12     9    10    1
    13    10    11    1
    14    11    12    1
    15    12    13    1
    16    14    15   ar
    17    14    19   ar
    18    15    16   ar
    19    16    17   ar
    20    17    18   ar
    21    17    20    1
    22    18    19   ar
