@<TRIPOS>MOLECULE
31911_ChemDiv_6228-0353
 27 28 0 0 0
SMALL
GASTEIGER
Energy = 0

@<TRIPOS>ATOM
      1 N          -1.6210    4.1710    0.0000 N.4     1  LIG1        0.3003
      2 C          -1.6210    3.1290    0.0000 C.3     1  LIG1        0.1359
      3 C          -2.4460    2.6210    0.0000 C.ar    1  LIG1        0.0327
      4 C          -2.4460    1.5710    0.0000 C.ar    1  LIG1        0.0014
      5 C          -3.2540    1.0500    0.0000 C.ar    1  LIG1       -0.0001
      6 C          -4.0790    1.5710    0.0000 C.ar    1  LIG1       -0.0000
      7 C          -4.0790    2.6210    0.0000 C.ar    1  LIG1       -0.0001
      8 C          -3.2540    3.1420    0.0000 C.ar    1  LIG1        0.0014
      9 C          -0.8000    3.6670    0.0000 C.3     1  LIG1        0.1088
     10 C          -0.8000    2.6080    0.0000 C.3     1  LIG1        0.0610
     11 C           0.0000    2.0830    0.0000 C.3     1  LIG1        0.0061
     12 C           0.0000    1.0500    0.0000 C.3     1  LIG1        0.0002
     13 C           0.8210    0.5250    0.0000 C.3     1  LIG1        0.0000
     14 C           0.8210   -0.5210    0.0000 C.3     1  LIG1        0.0000
     15 C           1.6420   -1.0460    0.0000 C.3     1  LIG1        0.0000
     16 C           1.6290   -2.0920    0.0000 C.3     1  LIG1        0.0006
     17 C           2.4540   -2.6290    0.0000 C.3     1  LIG1        0.0116
     18 C           2.4540   -3.6750    0.0000 C.3     1  LIG1        0.1096
     19 C           3.2500   -4.2000    0.0000 C.2     1  LIG1        0.3171
     20 O           4.0750   -3.6750    0.0000 O.2     1  LIG1       -0.2501
     21 O           3.2500   -5.2330    0.0000 O.3     1  LIG1       -0.4444
     22 C           4.0750   -5.7540    0.0000 C.3     1  LIG1        0.2556
     23 C          -1.6210    5.2330    0.0000 C.3     1  LIG1        0.1088
     24 C          -2.4460    5.7540    0.0000 C.3     1  LIG1        0.0613
     25 C          -3.2540    5.2330    0.0000 C.3     1  LIG1        0.0122
     26 C          -3.2540    4.1710    0.0000 C.3     1  LIG1        0.0613
     27 C          -2.4460    3.6670    0.0000 C.3     1  LIG1        0.1088
@<TRIPOS>BOND
     1     1     2    1
     2     1     9    1
     3     1    23    1
     4     1    27    1
     5     2     3    1
     6     3     4   ar
     7     3     8   ar
     8     4     5   ar
     9     5     6   ar
    10     6     7   ar
    11     7     8   ar
    12     9    10    1
    13    10    11    1
    14    11    12    1
    15    12    13    1
    16    13    14    1
    17    14    15    1
    18    15    16    1
    19    16    17    1
    20    17    18    1
    21    18    19    1
    22    19    20    2
    23    19    21    1
    24    21    22    1
    25    23    24    1
    26    24    25    1
    27    25    26    1
    28    26    27    1
