@<TRIPOS>MOLECULE
31925_ChemDiv_5408-3297
 17 19 0 0 0
SMALL
GASTEIGER
Energy = 0

@<TRIPOS>ATOM
      1 N          -3.3710   -0.5000    0.0000 N.ar    1  LIG1       -0.1094
      2 N          -2.7710    0.3170    0.0000 N.ar    1  LIG1       -0.1405
      3 C          -1.8170    0.0000    0.0000 C.ar    1  LIG1        0.1110
      4 C          -1.8170   -1.0000    0.0000 C.ar    1  LIG1        0.0684
      5 S          -2.7710   -1.3170    0.0000 S.2     1  LIG1        0.0372
      6 C          -0.9540   -1.4960    0.0000 C.ar    1  LIG1        0.0097
      7 C          -0.0830   -1.0000    0.0000 C.ar    1  LIG1        0.0052
      8 C          -0.0830    0.0000    0.0000 C.ar    1  LIG1        0.0552
      9 C           0.7750    0.5000    0.0000 C.2     1  LIG1        0.2491
     10 N           1.6420    0.0170    0.0000 N.am    1  LIG1       -0.2743
     11 C           1.6420   -0.9830    0.0000 C.3     1  LIG1        0.1054
     12 C           2.5040   -1.4830    0.0000 C.3     1  LIG1        0.0791
     13 S           3.3670   -0.9830    0.0000 S.3     1  LIG1       -0.1366
     14 C           3.3670    0.0170    0.0000 C.3     1  LIG1        0.0791
     15 C           2.5040    0.5130    0.0000 C.3     1  LIG1        0.1054
     16 O           0.7710    1.5000    0.0000 O.2     1  LIG1       -0.2699
     17 C          -0.9540    0.5000    0.0000 C.ar    1  LIG1        0.0260
@<TRIPOS>BOND
     1     1     2   ar
     2     1     5   ar
     3     2     3   ar
     4     3     4   ar
     5     3    17   ar
     6     4     5   ar
     7     4     6   ar
     8     6     7   ar
     9     7     8   ar
    10     8     9    1
    11     8    17   ar
    12     9    10   am
    13     9    16    2
    14    10    11    1
    15    10    15    1
    16    11    12    1
    17    12    13    1
    18    13    14    1
    19    14    15    1
