@<TRIPOS>MOLECULE
31926_ChemDiv_5436-0882
 24 28 0 0 0
SMALL
GASTEIGER
Energy = 0

@<TRIPOS>ATOM
      1 C           0.8250    1.3500    0.0000 C.ar    1  LIG1        0.1472
      2 C           0.8250    0.3580    0.0000 C.ar    1  LIG1        0.0305
      3 C           1.7000   -0.1540    0.0000 C.ar    1  LIG1       -0.0170
      4 C           2.5670    0.3580    0.0000 C.ar    1  LIG1        0.0499
      5 C           2.5670    1.3500    0.0000 C.ar    1  LIG1        0.3414
      6 O           1.6920    1.8500    0.0000 O.2     1  LIG1       -0.4215
      7 O           3.4380    1.8500    0.0000 O.2     1  LIG1       -0.2449
      8 C           3.3000   -0.3130    0.0000 C.3     1  LIG1        0.0330
      9 C           2.8920   -1.2210    0.0000 C.3     1  LIG1        0.0096
     10 C           1.9040   -1.1250    0.0000 C.3     1  LIG1        0.0267
     11 C          -0.0420   -0.1540    0.0000 C.ar    1  LIG1        0.0058
     12 C          -0.9080    0.3580    0.0000 C.ar    1  LIG1        0.0375
     13 C          -0.9080    1.3500    0.0000 C.ar    1  LIG1        0.1443
     14 C          -0.0420    1.8500    0.0000 C.ar    1  LIG1        0.0473
     15 C          -0.0420    2.8460    0.0000 C.3     1  LIG1        0.0375
     16 O          -1.8630    1.6500    0.0000 O.2     1  LIG1       -0.4506
     17 C          -2.4540    0.8420    0.0000 C.ar    1  LIG1        0.1795
     18 C          -1.8630    0.0380    0.0000 C.ar    1  LIG1        0.0406
     19 C          -2.1710   -0.9210    0.0000 C.ar    1  LIG1        0.0031
     20 C          -3.1420   -1.1420    0.0000 C.ar    1  LIG1        0.0001
     21 C          -3.4420   -2.0880    0.0000 C.ar    1  LIG1        0.0000
     22 C          -2.7790   -2.8420    0.0000 C.ar    1  LIG1        0.0000
     23 C          -1.8000   -2.6040    0.0000 C.ar    1  LIG1        0.0000
     24 C          -1.4960   -1.6460    0.0000 C.ar    1  LIG1        0.0001
@<TRIPOS>BOND
     1     1     2   ar
     2     1     6   ar
     3     1    14   ar
     4     2     3   ar
     5     2    11   ar
     6     3     4   ar
     7     3    10    1
     8     4     5   ar
     9     4     8    1
    10     5     6   ar
    11     5     7    2
    12     8     9    1
    13     9    10    1
    14    11    12   ar
    15    12    13   ar
    16    12    18   ar
    17    13    14   ar
    18    13    16   ar
    19    14    15    1
    20    16    17   ar
    21    17    18   ar
    22    18    19    1
    23    19    20   ar
    24    19    24   ar
    25    20    21   ar
    26    21    22   ar
    27    22    23   ar
    28    23    24   ar
