@<TRIPOS>MOLECULE
31924_ChemDiv_5436-0881
 20 23 0 0 0
SMALL
GASTEIGER
Energy = 0

@<TRIPOS>ATOM
      1 C           0.8250    0.5380    0.0000 C.ar    1  LIG1        0.1472
      2 C           0.8250   -0.4540    0.0000 C.ar    1  LIG1        0.0305
      3 C           1.7000   -0.9670    0.0000 C.ar    1  LIG1       -0.0170
      4 C           2.5670   -0.4540    0.0000 C.ar    1  LIG1        0.0499
      5 C           2.5670    0.5380    0.0000 C.ar    1  LIG1        0.3414
      6 O           1.6920    1.0420    0.0000 O.2     1  LIG1       -0.4215
      7 O           3.4380    1.0420    0.0000 O.2     1  LIG1       -0.2449
      8 C           3.3000   -1.1210    0.0000 C.3     1  LIG1        0.0330
      9 C           2.8920   -2.0330    0.0000 C.3     1  LIG1        0.0096
     10 C           1.9040   -1.9380    0.0000 C.3     1  LIG1        0.0267
     11 C          -0.0420   -0.9670    0.0000 C.ar    1  LIG1        0.0055
     12 C          -0.9130   -0.4540    0.0000 C.ar    1  LIG1        0.0331
     13 C          -0.9130    0.5380    0.0000 C.ar    1  LIG1        0.1434
     14 O          -1.8630    0.8420    0.0000 O.2     1  LIG1       -0.4583
     15 C          -2.4540    0.0330    0.0000 C.ar    1  LIG1        0.1193
     16 C          -1.8630   -0.7710    0.0000 C.ar    1  LIG1        0.0114
     17 C          -2.1710   -1.7290    0.0000 C.3     1  LIG1        0.0340
     18 C          -3.4420    0.0330    0.0000 C.3     1  LIG1        0.0721
     19 C          -0.0420    1.0420    0.0000 C.ar    1  LIG1        0.0472
     20 C          -0.0420    2.0380    0.0000 C.3     1  LIG1        0.0375
@<TRIPOS>BOND
     1     1     2   ar
     2     1     6   ar
     3     1    19   ar
     4     2     3   ar
     5     2    11   ar
     6     3     4   ar
     7     3    10    1
     8     4     5   ar
     9     4     8    1
    10     5     6   ar
    11     5     7    2
    12     8     9    1
    13     9    10    1
    14    11    12   ar
    15    12    13   ar
    16    12    16   ar
    17    13    14   ar
    18    13    19   ar
    19    14    15   ar
    20    15    16   ar
    21    15    18    1
    22    16    17    1
    23    19    20    1
