@<TRIPOS>MOLECULE
31921_ChemDiv_D015-0207
 26 29 0 0 0
SMALL
GASTEIGER
Energy = 0

@<TRIPOS>ATOM
      1 N          -1.0790   -1.3580    0.0000 N.ar    1  LIG1       -0.1957
      2 C          -0.8250   -0.3880    0.0000 C.ar    1  LIG1        0.1663
      3 C          -1.6420    0.1460    0.0000 C.ar    1  LIG1        0.0511
      4 C          -2.4290   -0.4670    0.0000 C.ar    1  LIG1        0.0823
      5 N          -2.0670   -1.4040    0.0000 N.ar    1  LIG1       -0.1669
      6 C          -3.4000   -0.2000    0.0000 C.3     1  LIG1        0.0540
      7 C          -1.6420    1.1580    0.0000 C.ar    1  LIG1        0.0043
      8 C          -2.5080    1.6580    0.0000 C.ar    1  LIG1        0.0032
      9 C          -2.5080    2.6630    0.0000 C.ar    1  LIG1        0.0369
     10 C          -1.6420    3.1670    0.0000 C.ar    1  LIG1        0.1387
     11 C          -0.7750    2.6630    0.0000 C.ar    1  LIG1        0.0369
     12 C          -0.7750    1.6580    0.0000 C.ar    1  LIG1        0.0032
     13 O          -1.6420    4.1580    0.0000 O.3     1  LIG1       -0.4714
     14 C          -0.7750    4.6630    0.0000 C.3     1  LIG1        0.2525
     15 N           0.1500   -0.1420    0.0000 N.ar    1  LIG1       -0.2248
     16 C           0.8460   -0.8380    0.0000 C.ar    1  LIG1        0.1034
     17 C           0.5880   -1.8250    0.0000 C.ar    1  LIG1        0.0541
     18 C          -0.3830   -2.0710    0.0000 C.ar    1  LIG1        0.1741
     19 N          -0.6460   -3.0380    0.0000 N.pl3   1  LIG1       -0.1070
     20 C           1.2830   -2.5250    0.0000 C.ar    1  LIG1        0.0044
     21 C           1.0250   -3.4880    0.0000 C.ar    1  LIG1        0.0010
     22 C           1.7250   -4.2040    0.0000 C.ar    1  LIG1        0.0114
     23 C           2.6880   -3.9500    0.0000 C.ar    1  LIG1        0.0577
     24 C           2.9540   -2.9790    0.0000 C.ar    1  LIG1        0.0114
     25 C           2.2540   -2.2670    0.0000 C.ar    1  LIG1        0.0010
     26 CL          3.3960   -4.6630    0.0000 Cl      1  LIG1       -0.0822
@<TRIPOS>BOND
     1     1     2   ar
     2     1     5   ar
     3     1    18   ar
     4     2     3   ar
     5     2    15   ar
     6     3     4   ar
     7     3     7    1
     8     4     5   ar
     9     4     6    1
    10     7     8   ar
    11     7    12   ar
    12     8     9   ar
    13     9    10   ar
    14    10    11   ar
    15    10    13    1
    16    11    12   ar
    17    13    14    1
    18    15    16   ar
    19    16    17   ar
    20    17    18   ar
    21    17    20    1
    22    18    19    1
    23    20    21   ar
    24    20    25   ar
    25    21    22   ar
    26    22    23   ar
    27    23    24   ar
    28    23    26    1
    29    24    25   ar
