@<TRIPOS>MOLECULE
31922_ChemDiv_5436-0880
 19 22 0 0 0
SMALL
GASTEIGER
Energy = 0

@<TRIPOS>ATOM
      1 C           0.3330    0.5380    0.0000 C.ar    1  LIG1        0.1472
      2 C           0.3330   -0.4540    0.0000 C.ar    1  LIG1        0.0305
      3 C           1.2080   -0.9630    0.0000 C.ar    1  LIG1       -0.0170
      4 C           2.0710   -0.4540    0.0000 C.ar    1  LIG1        0.0499
      5 C           2.0710    0.5380    0.0000 C.ar    1  LIG1        0.3414
      6 O           1.1960    1.0380    0.0000 O.2     1  LIG1       -0.4215
      7 O           2.9420    1.0380    0.0000 O.2     1  LIG1       -0.2449
      8 C           2.8040   -1.1210    0.0000 C.3     1  LIG1        0.0330
      9 C           2.3960   -2.0330    0.0000 C.3     1  LIG1        0.0096
     10 C           1.4080   -1.9380    0.0000 C.3     1  LIG1        0.0267
     11 C          -0.5330   -0.9630    0.0000 C.ar    1  LIG1        0.0055
     12 C          -1.4040   -0.4540    0.0000 C.ar    1  LIG1        0.0335
     13 C          -1.4040    0.5380    0.0000 C.ar    1  LIG1        0.1440
     14 C          -0.5330    1.0380    0.0000 C.ar    1  LIG1        0.0472
     15 C          -0.5330    2.0380    0.0000 C.3     1  LIG1        0.0375
     16 O          -2.3540    0.8420    0.0000 O.2     1  LIG1       -0.4510
     17 C          -2.9460    0.0330    0.0000 C.ar    1  LIG1        0.1752
     18 C          -2.3540   -0.7710    0.0000 C.ar    1  LIG1        0.0187
     19 C          -2.6630   -1.7290    0.0000 C.3     1  LIG1        0.0344
@<TRIPOS>BOND
     1     1     2   ar
     2     1     6   ar
     3     1    14   ar
     4     2     3   ar
     5     2    11   ar
     6     3     4   ar
     7     3    10    1
     8     4     5   ar
     9     4     8    1
    10     5     6   ar
    11     5     7    2
    12     8     9    1
    13     9    10    1
    14    11    12   ar
    15    12    13   ar
    16    12    18   ar
    17    13    14   ar
    18    13    16   ar
    19    14    15    1
    20    16    17   ar
    21    17    18   ar
    22    18    19    1
