@<TRIPOS>MOLECULE
31936_ChemDiv_5436-1061
 25 29 0 0 0
SMALL
GASTEIGER
Energy = 0

@<TRIPOS>ATOM
      1 C           2.5540    0.3170    0.0000 C.ar    1  LIG1       -0.0170
      2 C           1.6790    0.8170    0.0000 C.ar    1  LIG1        0.0308
      3 C           1.6790    1.8040    0.0000 C.ar    1  LIG1        0.1514
      4 O           2.5540    2.3170    0.0000 O.2     1  LIG1       -0.4212
      5 C           3.4210    1.8040    0.0000 C.ar    1  LIG1        0.3414
      6 C           3.4210    0.8170    0.0000 C.ar    1  LIG1        0.0499
      7 C           4.1630    0.1380    0.0000 C.3     1  LIG1        0.0330
      8 C           3.7630   -0.7880    0.0000 C.3     1  LIG1        0.0096
      9 C           2.7540   -0.6750    0.0000 C.3     1  LIG1        0.0267
     10 O           4.2830    2.3170    0.0000 O.2     1  LIG1       -0.2448
     11 C           0.8170    2.3170    0.0000 C.ar    1  LIG1        0.0750
     12 C          -0.0330    1.8040    0.0000 C.ar    1  LIG1        0.1485
     13 C          -0.0330    0.8170    0.0000 C.ar    1  LIG1        0.0378
     14 C          -1.0000    0.5000    0.0000 C.ar    1  LIG1        0.0407
     15 C          -1.5750    1.3000    0.0000 C.ar    1  LIG1        0.1795
     16 O          -1.0000    2.1080    0.0000 O.2     1  LIG1       -0.4503
     17 C          -1.3460   -0.4330    0.0000 C.ar    1  LIG1        0.0061
     18 C          -2.3290   -0.5920    0.0000 C.ar    1  LIG1        0.0370
     19 C          -2.6790   -1.5250    0.0000 C.ar    1  LIG1        0.1387
     20 O          -3.6630   -1.6790    0.0000 O.3     1  LIG1       -0.4714
     21 C          -4.2880   -0.9170    0.0000 C.3     1  LIG1        0.2525
     22 C          -2.0330   -2.3130    0.0000 C.ar    1  LIG1        0.0369
     23 C          -1.0580   -2.1460    0.0000 C.ar    1  LIG1        0.0031
     24 C          -0.7000   -1.1960    0.0000 C.ar    1  LIG1        0.0003
     25 C           0.8170    0.3170    0.0000 C.ar    1  LIG1        0.0058
@<TRIPOS>BOND
     1     1     2   ar
     2     1     6   ar
     3     1     9    1
     4     2     3   ar
     5     2    25   ar
     6     3     4   ar
     7     3    11   ar
     8     4     5   ar
     9     5     6   ar
    10     5    10    2
    11     6     7    1
    12     7     8    1
    13     8     9    1
    14    11    12   ar
    15    12    13   ar
    16    12    16   ar
    17    13    14   ar
    18    13    25   ar
    19    14    15   ar
    20    14    17    1
    21    15    16   ar
    22    17    18   ar
    23    17    24   ar
    24    18    19   ar
    25    19    20    1
    26    19    22   ar
    27    20    21    1
    28    22    23   ar
    29    23    24   ar
