@<TRIPOS>MOLECULE
31932_ChemDiv_5436-0957
 24 28 0 0 0
SMALL
GASTEIGER
Energy = 0

@<TRIPOS>ATOM
      1 C           1.7290    0.7830    0.0000 C.ar    1  LIG1       -0.0170
      2 C           0.8750    1.2830    0.0000 C.ar    1  LIG1        0.0308
      3 C           0.8750    2.2830    0.0000 C.ar    1  LIG1        0.1514
      4 O           1.7290    2.7830    0.0000 O.2     1  LIG1       -0.4212
      5 C           2.6080    2.2830    0.0000 C.ar    1  LIG1        0.3414
      6 C           2.6080    1.2830    0.0000 C.ar    1  LIG1        0.0499
      7 C           3.3630    0.6170    0.0000 C.3     1  LIG1        0.0330
      8 C           2.9420   -0.2920    0.0000 C.3     1  LIG1        0.0096
      9 C           1.9540   -0.1880    0.0000 C.3     1  LIG1        0.0267
     10 O           3.4830    2.7830    0.0000 O.2     1  LIG1       -0.2448
     11 C           0.0130    2.7830    0.0000 C.ar    1  LIG1        0.0750
     12 C          -0.8630    2.2830    0.0000 C.ar    1  LIG1        0.1485
     13 C          -0.8630    1.2830    0.0000 C.ar    1  LIG1        0.0378
     14 C          -1.8040    0.9790    0.0000 C.ar    1  LIG1        0.0406
     15 C          -2.3920    1.7710    0.0000 C.ar    1  LIG1        0.1795
     16 O          -1.8040    2.6000    0.0000 O.2     1  LIG1       -0.4503
     17 C          -2.1540    0.0420    0.0000 C.ar    1  LIG1        0.0031
     18 C          -3.1380   -0.1250    0.0000 C.ar    1  LIG1       -0.0002
     19 C          -3.4880   -1.0630    0.0000 C.ar    1  LIG1       -0.0043
     20 C          -2.8630   -1.8380    0.0000 C.ar    1  LIG1       -0.0218
     21 C          -1.8670   -1.6670    0.0000 C.ar    1  LIG1       -0.0043
     22 C          -1.5290   -0.7330    0.0000 C.ar    1  LIG1       -0.0002
     23 C          -3.2000   -2.7790    0.0000 C.3     1  LIG1        0.0310
     24 C           0.0130    0.7830    0.0000 C.ar    1  LIG1        0.0058
@<TRIPOS>BOND
     1     1     2   ar
     2     1     6   ar
     3     1     9    1
     4     2     3   ar
     5     2    24   ar
     6     3     4   ar
     7     3    11   ar
     8     4     5   ar
     9     5     6   ar
    10     5    10    2
    11     6     7    1
    12     7     8    1
    13     8     9    1
    14    11    12   ar
    15    12    13   ar
    16    12    16   ar
    17    13    14   ar
    18    13    24   ar
    19    14    15   ar
    20    14    17    1
    21    15    16   ar
    22    17    18   ar
    23    17    22   ar
    24    18    19   ar
    25    19    20   ar
    26    20    21   ar
    27    20    23    1
    28    21    22   ar
