@<TRIPOS>MOLECULE
31934_ChemDiv_5436-1059
 26 30 0 0 0
SMALL
GASTEIGER
Energy = 0

@<TRIPOS>ATOM
      1 C           1.6880    1.3170    0.0000 C.ar    1  LIG1        0.1472
      2 C           1.6880    0.3250    0.0000 C.ar    1  LIG1        0.0305
      3 C           2.5500   -0.1750    0.0000 C.ar    1  LIG1       -0.0170
      4 C           3.4250    0.3420    0.0000 C.ar    1  LIG1        0.0499
      5 C           3.4250    1.3170    0.0000 C.ar    1  LIG1        0.3414
      6 O           2.5500    1.8170    0.0000 O.2     1  LIG1       -0.4215
      7 O           4.2960    1.8170    0.0000 O.2     1  LIG1       -0.2449
      8 C           4.1750   -0.3420    0.0000 C.3     1  LIG1        0.0330
      9 C           3.7630   -1.2500    0.0000 C.3     1  LIG1        0.0096
     10 C           2.7630   -1.1710    0.0000 C.3     1  LIG1        0.0267
     11 C           0.8250   -0.1750    0.0000 C.ar    1  LIG1        0.0058
     12 C          -0.0460    0.3250    0.0000 C.ar    1  LIG1        0.0375
     13 C          -0.0460    1.3170    0.0000 C.ar    1  LIG1        0.1443
     14 C           0.8250    1.8170    0.0000 C.ar    1  LIG1        0.0473
     15 C           0.8250    2.8130    0.0000 C.3     1  LIG1        0.0375
     16 O          -0.9960    1.6170    0.0000 O.2     1  LIG1       -0.4506
     17 C          -1.5880    0.8250    0.0000 C.ar    1  LIG1        0.1795
     18 C          -0.9960    0.0210    0.0000 C.ar    1  LIG1        0.0406
     19 C          -1.3580   -0.9290    0.0000 C.ar    1  LIG1        0.0061
     20 C          -2.3330   -1.0830    0.0000 C.ar    1  LIG1        0.0370
     21 C          -2.6920   -2.0170    0.0000 C.ar    1  LIG1        0.1387
     22 O          -3.6670   -2.1580    0.0000 O.3     1  LIG1       -0.4714
     23 C          -4.3000   -1.3710    0.0000 C.3     1  LIG1        0.2525
     24 C          -2.0460   -2.8080    0.0000 C.ar    1  LIG1        0.0369
     25 C          -1.0630   -2.6250    0.0000 C.ar    1  LIG1        0.0031
     26 C          -0.7130   -1.6920    0.0000 C.ar    1  LIG1        0.0003
@<TRIPOS>BOND
     1     1     2   ar
     2     1     6   ar
     3     1    14   ar
     4     2     3   ar
     5     2    11   ar
     6     3     4   ar
     7     3    10    1
     8     4     5   ar
     9     4     8    1
    10     5     6   ar
    11     5     7    2
    12     8     9    1
    13     9    10    1
    14    11    12   ar
    15    12    13   ar
    16    12    18   ar
    17    13    14   ar
    18    13    16   ar
    19    14    15    1
    20    16    17   ar
    21    17    18   ar
    22    18    19    1
    23    19    20   ar
    24    19    26   ar
    25    20    21   ar
    26    21    22    1
    27    21    24   ar
    28    22    23    1
    29    24    25   ar
    30    25    26   ar
