@<TRIPOS>MOLECULE
31935_ChemDiv_5408-3369
 23 26 0 0 0
SMALL
GASTEIGER
Energy = 0

@<TRIPOS>ATOM
      1 C          -3.0500   -1.5580    0.0000 C.ar    1  LIG1        0.1101
      2 C          -3.0500   -2.5580    0.0000 C.ar    1  LIG1        0.1089
      3 N          -4.0040   -2.8750    0.0000 N.ar    1  LIG1       -0.1901
      4 S          -4.5920   -2.0580    0.0000 S.2     1  LIG1        0.1165
      5 N          -4.0040   -1.2460    0.0000 N.ar    1  LIG1       -0.1901
      6 C          -2.1920   -3.0580    0.0000 C.ar    1  LIG1        0.0227
      7 C          -1.3210   -2.5580    0.0000 C.ar    1  LIG1        0.0183
      8 C          -1.3210   -1.5580    0.0000 C.ar    1  LIG1        0.0766
      9 C          -2.1920   -1.0630    0.0000 C.ar    1  LIG1        0.0380
     10 N          -0.4580   -1.0580    0.0000 N.am    1  LIG1       -0.1609
     11 C           0.4040   -1.5460    0.0000 C.2     1  LIG1        0.3438
     12 N           1.2630   -1.0460    0.0000 N.am    1  LIG1       -0.1821
     13 C           1.2630   -0.0500    0.0000 C.3     1  LIG1        0.1433
     14 C           2.1210    0.4580    0.0000 C.ar    1  LIG1        0.0027
     15 C           2.1080    1.4710    0.0000 C.ar    1  LIG1        0.0376
     16 C           2.9790    1.9750    0.0000 C.ar    1  LIG1        0.1762
     17 C           3.8500    1.4880    0.0000 C.ar    1  LIG1        0.1764
     18 O           4.5880    2.1540    0.0000 O.3     1  LIG1       -0.4346
     19 C           4.1790    3.0630    0.0000 C.3     1  LIG1        0.4294
     20 O           3.1830    2.9460    0.0000 O.3     1  LIG1       -0.4346
     21 C           3.8630    0.4750    0.0000 C.ar    1  LIG1        0.0399
     22 C           2.9880   -0.0380    0.0000 C.ar    1  LIG1        0.0008
     23 O           0.4040   -2.5420    0.0000 O.2     1  LIG1       -0.2488
@<TRIPOS>BOND
     1     1     2   ar
     2     1     5   ar
     3     1     9   ar
     4     2     3   ar
     5     2     6   ar
     6     3     4   ar
     7     4     5   ar
     8     6     7   ar
     9     7     8   ar
    10     8     9   ar
    11     8    10    1
    12    10    11   am
    13    11    12   am
    14    11    23    2
    15    12    13    1
    16    13    14    1
    17    14    15   ar
    18    14    22   ar
    19    15    16   ar
    20    16    17   ar
    21    16    20    1
    22    17    18    1
    23    17    21   ar
    24    18    19    1
    25    19    20    1
    26    21    22   ar
