@<TRIPOS>MOLECULE
31937_ChemDiv_8016-6994
 16 17 0 0 0
SMALL
GASTEIGER
Energy = 0

@<TRIPOS>ATOM
      1 C           2.2460    0.0580    0.0000 C.1     1  LIG1       -0.0486
      2 C           1.2170    0.8170    0.0000 C.3     1  LIG1        0.1914
      3 C           0.7460    1.6460    0.0000 C.3     1  LIG1        0.1058
      4 C          -0.2080    1.6460    0.0000 C.3     1  LIG1        0.1427
      5 N          -0.6830    0.8170    0.0000 N.4     1  LIG1        0.3809
      6 C          -1.6330    0.8170    0.0000 C.3     1  LIG1        0.1662
      7 C          -2.1000   -0.0040    0.0000 C.ar    1  LIG1        0.0344
      8 C          -1.6330   -0.8210    0.0000 C.ar    1  LIG1        0.0014
      9 C          -2.1000   -1.6420    0.0000 C.ar    1  LIG1       -0.0001
     10 C          -3.0460   -1.6420    0.0000 C.ar    1  LIG1       -0.0000
     11 C          -3.5250   -0.8210    0.0000 C.ar    1  LIG1       -0.0001
     12 C          -3.0460   -0.0040    0.0000 C.ar    1  LIG1        0.0014
     13 C          -0.2080   -0.0040    0.0000 C.3     1  LIG1        0.1427
     14 C           0.7460   -0.0040    0.0000 C.3     1  LIG1        0.1058
     15 O           2.1580    1.5330    0.0000 O.3     1  LIG1       -0.2120
     16 C           3.5210    0.0580    0.0000 C.1     1  LIG1       -0.0117
@<TRIPOS>BOND
     1     1     2    1
     2     1    16    3
     3     2     3    1
     4     2    14    1
     5     2    15    1
     6     3     4    1
     7     4     5    1
     8     5     6    1
     9     5    13    1
    10     6     7    1
    11     7     8   ar
    12     7    12   ar
    13     8     9   ar
    14     9    10   ar
    15    10    11   ar
    16    11    12   ar
    17    13    14    1
