@<TRIPOS>MOLECULE
31944_ChemDiv_5554-0015
 35 38 0 0 0
SMALL
GASTEIGER
Energy = 0

@<TRIPOS>ATOM
      1 C          -2.0880    2.8040    0.0000 C.3     1  LIG1        0.0250
      2 C          -2.4290    3.7580    0.0000 C.3     1  LIG1        0.0023
      3 C          -2.2630    2.2830    0.0000 C.3     1  LIG1        0.0025
      4 C          -1.1880    1.8580    0.0000 C.3     1  LIG1        0.0295
      5 C          -0.9920    2.3210    0.0000 C.3     1  LIG1        0.1151
      6 O          -0.0130    2.2880    0.0000 O.3     1  LIG1       -0.3544
      7 C           0.4880    1.4210    0.0000 C.3     1  LIG1        0.1635
      8 C           1.4580    1.3830    0.0000 C.3     1  LIG1        0.1271
      9 N           1.8960    0.4960    0.0000 N.am    1  LIG1       -0.2582
     10 C           2.8790    0.4380    0.0000 C.2     1  LIG1        0.3276
     11 N           3.3920    1.2750    0.0000 N.am    1  LIG1       -0.1622
     12 C           2.9040    2.1330    0.0000 C.ar    1  LIG1        0.0749
     13 C           1.9330    2.1580    0.0000 C.ar    1  LIG1        0.0166
     14 C           1.4080    3.0380    0.0000 C.ar    1  LIG1        0.0013
     15 C           1.9330    3.8790    0.0000 C.ar    1  LIG1        0.0001
     16 C           2.9420    3.8920    0.0000 C.ar    1  LIG1        0.0013
     17 C           3.4290    3.0130    0.0000 C.ar    1  LIG1        0.0166
     18 O           3.3920   -0.4460    0.0000 O.2     1  LIG1       -0.2504
     19 C           1.3330   -0.3290    0.0000 C.3     1  LIG1        0.1185
     20 C           0.3380   -0.2580    0.0000 C.3     1  LIG1        0.1383
     21 N          -0.2000   -1.0830    0.0000 N.am    1  LIG1       -0.1851
     22 C          -1.2080   -1.0250    0.0000 C.2     1  LIG1        0.3435
     23 N          -1.7130   -1.8790    0.0000 N.am    1  LIG1       -0.1610
     24 C          -1.2330   -2.7290    0.0000 C.ar    1  LIG1        0.0750
     25 C          -0.2420   -2.7460    0.0000 C.ar    1  LIG1        0.0166
     26 C           0.2630   -3.6250    0.0000 C.ar    1  LIG1        0.0013
     27 C          -0.2750   -4.4830    0.0000 C.ar    1  LIG1        0.0001
     28 C          -1.2460   -4.4830    0.0000 C.ar    1  LIG1        0.0013
     29 C          -1.7540   -3.6170    0.0000 C.ar    1  LIG1        0.0166
     30 O          -1.6920   -0.1460    0.0000 O.2     1  LIG1       -0.2488
     31 C          -3.4330    1.6670    0.0000 C.3     1  LIG1        0.0002
     32 C          -3.1880    2.1580    0.0000 C.3     1  LIG1        0.0023
     33 C          -3.2080    4.3040    0.0000 C.3     1  LIG1        0.0001
     34 C          -1.8290    4.4830    0.0000 C.3     1  LIG1        0.0001
     35 C          -1.5130    3.1630    0.0000 C.3     1  LIG1        0.0024
@<TRIPOS>BOND
     1     1     2    1
     2     1     5    1
     3     1    32    1
     4     1    35    1
     5     2     3    1
     6     2    33    1
     7     2    34    1
     8     3     4    1
     9     3    31    1
    10     4     5    1
    11     5     6    1
    12     6     7    1
    13     7     8    1
    14     8     9    1
    15     9    10   am
    16     9    19    1
    17    10    11   am
    18    10    18    2
    19    11    12    1
    20    12    13   ar
    21    12    17   ar
    22    13    14   ar
    23    14    15   ar
    24    15    16   ar
    25    16    17   ar
    26    19    20    1
    27    20    21    1
    28    21    22   am
    29    22    23   am
    30    22    30    2
    31    23    24    1
    32    24    25   ar
    33    24    29   ar
    34    25    26   ar
    35    26    27   ar
    36    27    28   ar
    37    28    29   ar
    38    31    32    1
