@<TRIPOS>MOLECULE
31948_ChemDiv_5555-0333
 20 22 0 0 0
SMALL
GASTEIGER
Energy = 0

@<TRIPOS>ATOM
      1 C          -0.4960    0.5330    0.0000 C.ar    1  LIG1       -0.0148
      2 C           0.3500    0.0330    0.0000 C.3     1  LIG1        0.0502
      3 C           1.2000    0.5330    0.0000 C.3     1  LIG1        0.0504
      4 C           2.1210    0.0330    0.0000 C.2     1  LIG1        0.0510
      5 O           2.1210   -1.0250    0.0000 O.co2   1  LIG1       -0.5491
      6 O           2.9670    0.5330    0.0000 O.co2   1  LIG1       -0.5491
      7 C           0.3500   -1.0250    0.0000 C.ar    1  LIG1       -0.0181
      8 C          -0.4960   -1.5170    0.0000 C.ar    1  LIG1       -0.0039
      9 C          -0.4960   -2.5080    0.0000 C.ar    1  LIG1       -0.0003
     10 C           0.3500   -3.0040    0.0000 C.ar    1  LIG1       -0.0000
     11 C           1.2000   -2.5080    0.0000 C.ar    1  LIG1       -0.0003
     12 C           1.2000   -1.5170    0.0000 C.ar    1  LIG1       -0.0039
     13 C          -0.4960    1.5210    0.0000 C.ar    1  LIG1        0.0362
     14 C          -1.3460    2.0130    0.0000 C.ar    1  LIG1        0.1761
     15 C          -2.2670    1.5210    0.0000 C.ar    1  LIG1        0.1764
     16 O          -2.9710    2.0130    0.0000 O.3     1  LIG1       -0.4346
     17 C          -2.6210    3.0080    0.0000 C.3     1  LIG1        0.4294
     18 O          -1.6290    3.0080    0.0000 O.3     1  LIG1       -0.4346
     19 C          -2.2670    0.5330    0.0000 C.ar    1  LIG1        0.0399
     20 C          -1.3460    0.0330    0.0000 C.ar    1  LIG1       -0.0006
@<TRIPOS>BOND
     1     1     2    1
     2     1    13   ar
     3     1    20   ar
     4     2     3    1
     5     2     7    1
     6     3     4    1
     7     4     5   ar
     8     4     6   ar
     9     7     8   ar
    10     7    12   ar
    11     8     9   ar
    12     9    10   ar
    13    10    11   ar
    14    11    12   ar
    15    13    14   ar
    16    14    15   ar
    17    14    18    1
    18    15    16    1
    19    15    19   ar
    20    16    17    1
    21    17    18    1
    22    19    20   ar
