@<TRIPOS>MOLECULE
31949_ChemDiv_5324-0046
 24 27 0 0 0
SMALL
GASTEIGER
Energy = 0

@<TRIPOS>ATOM
      1 N          -0.4750   -0.5500    0.0000 N.pl3   1  LIG1       -0.3047
      2 C           0.1790    0.2000    0.0000 C.3     1  LIG1        0.0887
      3 C          -0.3630    1.0380    0.0000 C.3     1  LIG1        0.0970
      4 C          -1.2920    0.8170    0.0000 C.ar    1  LIG1       -0.0018
      5 C          -1.3630   -0.1960    0.0000 C.ar    1  LIG1        0.0442
      6 C          -2.2420   -0.6420    0.0000 C.ar    1  LIG1        0.0142
      7 C          -3.0750   -0.1080    0.0000 C.ar    1  LIG1        0.0012
      8 C          -3.0210    0.9080    0.0000 C.ar    1  LIG1       -0.0002
      9 C          -2.1250    1.3580    0.0000 C.ar    1  LIG1       -0.0028
     10 C           0.1250    1.9630    0.0000 C.3     1  LIG1        0.1148
     11 N           1.1500    2.0130    0.0000 N.4     1  LIG1        0.3039
     12 C           1.6830    1.1290    0.0000 C.3     1  LIG1        0.1106
     13 C           1.2170    0.2420    0.0000 C.3     1  LIG1        0.0812
     14 C           1.6290    2.8580    0.0000 C.3     1  LIG1        0.1449
     15 C           2.6000    2.9040    0.0000 C.3     1  LIG1        0.2425
     16 O           3.0710    3.7880    0.0000 O.3     1  LIG1       -0.2138
     17 C           0.5920    2.8580    0.0000 C.3     1  LIG1        0.1705
     18 C          -0.2710   -1.5670    0.0000 C.3     1  LIG1        0.1177
     19 C          -1.0330   -2.1880    0.0000 C.ar    1  LIG1       -0.0024
     20 C          -1.9830   -1.8330    0.0000 C.ar    1  LIG1       -0.0026
     21 C          -2.7460   -2.4540    0.0000 C.ar    1  LIG1       -0.0003
     22 C          -2.6040   -3.4380    0.0000 C.ar    1  LIG1       -0.0000
     23 C          -1.6580   -3.7830    0.0000 C.ar    1  LIG1       -0.0003
     24 C          -0.8920   -3.1630    0.0000 C.ar    1  LIG1       -0.0026
@<TRIPOS>BOND
     1     1     2    1
     2     1     5    1
     3     1    18    1
     4     2     3    1
     5     2    13    1
     6     3     4    1
     7     3    10    1
     8     4     5   ar
     9     4     9   ar
    10     5     6   ar
    11     6     7   ar
    12     7     8   ar
    13     8     9   ar
    14    10    11    1
    15    11    12    1
    16    11    14    1
    17    11    17    1
    18    12    13    1
    19    14    15    1
    20    15    16    1
    21    18    19    1
    22    19    20   ar
    23    19    24   ar
    24    20    21   ar
    25    21    22   ar
    26    22    23   ar
    27    23    24   ar
