@<TRIPOS>MOLECULE
31941_ChemDiv_C429-0312
 38 41 0 0 0
SMALL
GASTEIGER
Energy = 0

@<TRIPOS>ATOM
      1 C           2.1460   -1.2380    0.0000 C.2     1  LIG1        0.2645
      2 C           1.2790   -1.7460    0.0000 C.ar    1  LIG1        0.0537
      3 C           0.4080   -1.2380    0.0000 C.ar    1  LIG1        0.0089
      4 C          -0.4580   -1.7460    0.0000 C.ar    1  LIG1        0.0552
      5 C          -1.3170   -1.2380    0.0000 C.2     1  LIG1        0.2647
      6 N          -2.1880   -1.7460    0.0000 N.am    1  LIG1       -0.2030
      7 C          -3.0500   -1.2380    0.0000 C.3     1  LIG1        0.1075
      8 C          -3.9170   -1.7380    0.0000 C.3     1  LIG1        0.0845
      9 C          -4.7750   -1.2250    0.0000 C.3     1  LIG1        0.1408
     10 N          -4.7710   -0.2250    0.0000 N.4     1  LIG1        0.3808
     11 C          -5.6330    0.2750    0.0000 C.3     1  LIG1        0.1662
     12 C          -5.6170    1.2750    0.0000 C.ar    1  LIG1        0.0344
     13 C          -4.7580    1.7670    0.0000 C.ar    1  LIG1        0.0014
     14 C          -4.7420    2.7630    0.0000 C.ar    1  LIG1       -0.0001
     15 C          -5.6000    3.2630    0.0000 C.ar    1  LIG1       -0.0000
     16 C          -6.4630    2.7670    0.0000 C.ar    1  LIG1       -0.0001
     17 C          -6.4750    1.7710    0.0000 C.ar    1  LIG1        0.0014
     18 C          -3.9000    0.2630    0.0000 C.3     1  LIG1        0.1408
     19 C          -3.0500   -0.2420    0.0000 C.3     1  LIG1        0.0845
     20 O          -1.3170   -0.2420    0.0000 O.2     1  LIG1       -0.2684
     21 C          -0.4580   -2.7500    0.0000 C.ar    1  LIG1        0.0043
     22 C           0.4080   -3.2460    0.0000 C.ar    1  LIG1       -0.0015
     23 C           1.2790   -2.7500    0.0000 C.ar    1  LIG1        0.0150
     24 C           2.1460   -3.2460    0.0000 C.3     1  LIG1        0.2087
     25 O           2.1460   -4.2540    0.0000 O.3     1  LIG1       -0.2152
     26 N           2.1420   -0.2420    0.0000 N.am    1  LIG1       -0.2033
     27 C           3.0040    0.2630    0.0000 C.3     1  LIG1        0.0990
     28 C           3.0000    1.2580    0.0000 C.3     1  LIG1        0.0433
     29 C           3.8670    1.7670    0.0000 C.3     1  LIG1        0.0985
     30 N           4.7380    1.2580    0.0000 N.am    1  LIG1       -0.2459
     31 C           5.6040    1.7580    0.0000 C.2     1  LIG1        0.4049
     32 O           6.4750    1.2540    0.0000 O.2     1  LIG1       -0.2262
     33 O           5.6040    2.7630    0.0000 O.3     1  LIG1       -0.4345
     34 C           4.7380    3.2630    0.0000 C.3     1  LIG1        0.2102
     35 C           4.7380    4.2540    0.0000 C.3     1  LIG1        0.0513
     36 C           4.7380    0.2580    0.0000 C.3     1  LIG1        0.0985
     37 C           3.8670   -0.2420    0.0000 C.3     1  LIG1        0.0433
     38 O           3.0170   -1.7380    0.0000 O.2     1  LIG1       -0.2684
@<TRIPOS>BOND
     1     1     2    1
     2     1    26   am
     3     1    38    2
     4     2     3   ar
     5     2    23   ar
     6     3     4   ar
     7     4     5    1
     8     4    21   ar
     9     5     6   am
    10     5    20    2
    11     6     7    1
    12     7     8    1
    13     7    19    1
    14     8     9    1
    15     9    10    1
    16    10    11    1
    17    10    18    1
    18    11    12    1
    19    12    13   ar
    20    12    17   ar
    21    13    14   ar
    22    14    15   ar
    23    15    16   ar
    24    16    17   ar
    25    18    19    1
    26    21    22   ar
    27    22    23   ar
    28    23    24    1
    29    24    25    1
    30    26    27    1
    31    27    28    1
    32    27    37    1
    33    28    29    1
    34    29    30    1
    35    30    31   am
    36    30    36    1
    37    31    32    2
    38    31    33    1
    39    33    34    1
    40    34    35    1
    41    36    37    1
