@<TRIPOS>MOLECULE
31943_ChemDiv_C790-0060
 28 30 0 0 0
SMALL
GASTEIGER
Energy = 0

@<TRIPOS>ATOM
      1 C          -0.7130    0.7000    0.0000 C.2     1  LIG1        0.2492
      2 C          -0.9710   -0.2670    0.0000 C.ar    1  LIG1        0.0579
      3 C          -0.2580   -0.9670    0.0000 C.ar    1  LIG1        0.0579
      4 C           0.7080   -0.7080    0.0000 C.2     1  LIG1        0.2492
      5 N           1.4170   -1.4170    0.0000 N.am    1  LIG1       -0.2761
      6 C           1.1500   -2.3790    0.0000 C.3     1  LIG1        0.0941
      7 C           1.8580   -3.0830    0.0000 C.3     1  LIG1        0.0271
      8 C           2.8250   -2.8330    0.0000 C.3     1  LIG1        0.0399
      9 C           3.5290   -3.5380    0.0000 C.2     1  LIG1        0.0501
     10 O           4.5000   -3.2830    0.0000 O.co2   1  LIG1       -0.5492
     11 O           3.2710   -4.5000    0.0000 O.co2   1  LIG1       -0.5492
     12 C           3.0830   -1.8630    0.0000 C.3     1  LIG1        0.0271
     13 C           2.3790   -1.1500    0.0000 C.3     1  LIG1        0.0941
     14 O           0.9670    0.2580    0.0000 O.2     1  LIG1       -0.2699
     15 C          -0.5170   -1.9380    0.0000 C.ar    1  LIG1        0.0047
     16 C          -1.4790   -2.1960    0.0000 C.ar    1  LIG1        0.0001
     17 C          -2.1920   -1.5000    0.0000 C.ar    1  LIG1        0.0001
     18 C          -1.9330   -0.5290    0.0000 C.ar    1  LIG1        0.0047
     19 N          -1.4170    1.4130    0.0000 N.am    1  LIG1       -0.2761
     20 C          -1.1540    2.3830    0.0000 C.3     1  LIG1        0.0941
     21 C          -1.8670    3.0830    0.0000 C.3     1  LIG1        0.0271
     22 C          -2.8250    2.8250    0.0000 C.3     1  LIG1        0.0399
     23 C          -3.5330    3.5330    0.0000 C.2     1  LIG1        0.0501
     24 O          -4.5040    3.2750    0.0000 O.co2   1  LIG1       -0.5492
     25 O          -3.2750    4.5000    0.0000 O.co2   1  LIG1       -0.5492
     26 C          -3.0830    1.8670    0.0000 C.3     1  LIG1        0.0271
     27 C          -2.3830    1.1540    0.0000 C.3     1  LIG1        0.0941
     28 O           0.2540    0.9630    0.0000 O.2     1  LIG1       -0.2699
@<TRIPOS>BOND
     1     1     2    1
     2     1    19   am
     3     1    28    2
     4     2     3   ar
     5     2    18   ar
     6     3     4    1
     7     3    15   ar
     8     4     5   am
     9     4    14    2
    10     5     6    1
    11     5    13    1
    12     6     7    1
    13     7     8    1
    14     8     9    1
    15     8    12    1
    16     9    10   ar
    17     9    11   ar
    18    12    13    1
    19    15    16   ar
    20    16    17   ar
    21    17    18   ar
    22    19    20    1
    23    19    27    1
    24    20    21    1
    25    21    22    1
    26    22    23    1
    27    22    26    1
    28    23    24   ar
    29    23    25   ar
    30    26    27    1
