@<TRIPOS>MOLECULE
31954_ChemDiv_5436-1065
 24 28 0 0 0
SMALL
GASTEIGER
Energy = 0

@<TRIPOS>ATOM
      1 C           1.7290    0.7880    0.0000 C.ar    1  LIG1       -0.0170
      2 C           0.8750    1.2880    0.0000 C.ar    1  LIG1        0.0308
      3 C           0.8750    2.2960    0.0000 C.ar    1  LIG1        0.1514
      4 O           1.7290    2.7880    0.0000 O.2     1  LIG1       -0.4212
      5 C           2.5920    2.2960    0.0000 C.ar    1  LIG1        0.3414
      6 C           2.6080    1.2880    0.0000 C.ar    1  LIG1        0.0499
      7 C           3.3580    0.6080    0.0000 C.3     1  LIG1        0.0330
      8 C           2.9420   -0.3000    0.0000 C.3     1  LIG1        0.0096
      9 C           1.9500   -0.1830    0.0000 C.3     1  LIG1        0.0267
     10 O           3.4790    2.7880    0.0000 O.2     1  LIG1       -0.2448
     11 C           0.0130    2.7880    0.0000 C.ar    1  LIG1        0.0750
     12 C          -0.8580    2.2960    0.0000 C.ar    1  LIG1        0.1485
     13 C          -0.8580    1.2880    0.0000 C.ar    1  LIG1        0.0378
     14 C          -1.8080    0.9880    0.0000 C.ar    1  LIG1        0.0406
     15 C          -2.3960    1.8000    0.0000 C.ar    1  LIG1        0.1795
     16 O          -1.8080    2.6000    0.0000 O.2     1  LIG1       -0.4503
     17 C          -2.1500    0.0580    0.0000 C.ar    1  LIG1        0.0032
     18 C          -3.1460   -0.1210    0.0000 C.ar    1  LIG1        0.0006
     19 C          -3.4830   -1.0330    0.0000 C.ar    1  LIG1        0.0067
     20 C          -2.8580   -1.8210    0.0000 C.ar    1  LIG1        0.0346
     21 C          -1.8750   -1.6540    0.0000 C.ar    1  LIG1        0.0067
     22 C          -1.5250   -0.7250    0.0000 C.ar    1  LIG1        0.0006
     23 BR         -3.2040   -2.7830    0.0000 Br      1  LIG1       -0.0490
     24 C           0.0130    0.7880    0.0000 C.ar    1  LIG1        0.0058
@<TRIPOS>BOND
     1     1     2   ar
     2     1     6   ar
     3     1     9    1
     4     2     3   ar
     5     2    24   ar
     6     3     4   ar
     7     3    11   ar
     8     4     5   ar
     9     5     6   ar
    10     5    10    2
    11     6     7    1
    12     7     8    1
    13     8     9    1
    14    11    12   ar
    15    12    13   ar
    16    12    16   ar
    17    13    14   ar
    18    13    24   ar
    19    14    15   ar
    20    14    17    1
    21    15    16   ar
    22    17    18   ar
    23    17    22   ar
    24    18    19   ar
    25    19    20   ar
    26    20    21   ar
    27    20    23    1
    28    21    22   ar
