@<TRIPOS>MOLECULE
31950_ChemDiv_5556-0488
 27 31 0 0 0
SMALL
GASTEIGER
Energy = 0

@<TRIPOS>ATOM
      1 C          -1.4130   -0.6420    0.0000 C.2     1  LIG1        0.2336
      2 C          -1.4130    0.3460    0.0000 C.3     1  LIG1        0.1269
      3 C          -2.2790    0.8500    0.0000 C.ar    1  LIG1        0.0249
      4 C          -2.2790    1.8540    0.0000 C.ar    1  LIG1        0.1420
      5 O          -1.4130    2.3580    0.0000 O.3     1  LIG1       -0.4541
      6 C          -0.5420    1.8540    0.0000 C.ar    1  LIG1        0.1420
      7 C          -0.5420    0.8500    0.0000 C.ar    1  LIG1        0.0249
      8 C           0.3210    0.3460    0.0000 C.ar    1  LIG1       -0.0005
      9 C           1.1880    0.8500    0.0000 C.ar    1  LIG1       -0.0001
     10 C           1.1880    1.8540    0.0000 C.ar    1  LIG1        0.0031
     11 C           0.3210    2.3540    0.0000 C.ar    1  LIG1        0.0372
     12 C          -3.1500    2.3540    0.0000 C.ar    1  LIG1        0.0372
     13 C          -4.0130    1.8540    0.0000 C.ar    1  LIG1        0.0031
     14 C          -4.0130    0.8500    0.0000 C.ar    1  LIG1       -0.0001
     15 C          -3.1380    0.3580    0.0000 C.ar    1  LIG1       -0.0005
     16 N          -0.5500   -1.1500    0.0000 N.am    1  LIG1       -0.2787
     17 C           0.3670   -0.7420    0.0000 C.3     1  LIG1        0.0978
     18 C           1.0290   -1.4830    0.0000 C.3     1  LIG1        0.0439
     19 C           0.5380   -2.3540    0.0000 C.3     1  LIG1        0.0276
     20 C          -0.4460   -2.1500    0.0000 C.3     1  LIG1        0.0938
     21 C           2.0170   -1.3880    0.0000 C.ar    1  LIG1       -0.0208
     22 C           2.6000   -2.1920    0.0000 C.ar    1  LIG1       -0.0042
     23 C           3.5880   -2.0880    0.0000 C.ar    1  LIG1       -0.0003
     24 C           4.0080   -1.1830    0.0000 C.ar    1  LIG1       -0.0000
     25 C           3.4080   -0.3670    0.0000 C.ar    1  LIG1       -0.0003
     26 C           2.4210   -0.4830    0.0000 C.ar    1  LIG1       -0.0042
     27 O          -2.2790   -1.1500    0.0000 O.2     1  LIG1       -0.2742
@<TRIPOS>BOND
     1     1     2    1
     2     1    16   am
     3     1    27    2
     4     2     3    1
     5     2     7    1
     6     3     4   ar
     7     3    15   ar
     8     4     5    1
     9     4    12   ar
    10     5     6    1
    11     6     7   ar
    12     6    11   ar
    13     7     8   ar
    14     8     9   ar
    15     9    10   ar
    16    10    11   ar
    17    12    13   ar
    18    13    14   ar
    19    14    15   ar
    20    16    17    1
    21    16    20    1
    22    17    18    1
    23    18    19    1
    24    18    21    1
    25    19    20    1
    26    21    22   ar
    27    21    26   ar
    28    22    23   ar
    29    23    24   ar
    30    24    25   ar
    31    25    26   ar
