@<TRIPOS>MOLECULE
31951_ChemDiv_5324-0048
 22 25 0 0 0
SMALL
GASTEIGER
Energy = 0

@<TRIPOS>ATOM
      1 N           0.2380   -0.1130    0.0000 N.pl3   1  LIG1       -0.3047
      2 C           0.8750    0.6540    0.0000 C.3     1  LIG1        0.0887
      3 C           0.3580    1.4790    0.0000 C.3     1  LIG1        0.0970
      4 C          -0.6130    1.2460    0.0000 C.ar    1  LIG1       -0.0018
      5 C          -0.6380    0.2500    0.0000 C.ar    1  LIG1        0.0442
      6 C          -1.5210   -0.2080    0.0000 C.ar    1  LIG1        0.0142
      7 C          -2.3750    0.3000    0.0000 C.ar    1  LIG1        0.0012
      8 C          -2.3460    1.2920    0.0000 C.ar    1  LIG1       -0.0002
      9 C          -1.4630    1.7540    0.0000 C.ar    1  LIG1       -0.0028
     10 C           0.8170    2.3880    0.0000 C.3     1  LIG1        0.1149
     11 N           1.8130    2.4380    0.0000 N.4     1  LIG1        0.3064
     12 C           2.3710    1.5630    0.0000 C.3     1  LIG1        0.1107
     13 C           1.9080    0.7040    0.0000 C.3     1  LIG1        0.0812
     14 C           1.2750    3.3040    0.0000 C.3     1  LIG1        0.1707
     15 C           2.2750    3.3540    0.0000 C.3     1  LIG1        0.1707
     16 C           0.4500   -1.1210    0.0000 C.3     1  LIG1        0.1177
     17 C          -0.3080   -1.7630    0.0000 C.ar    1  LIG1       -0.0024
     18 C          -1.2460   -1.3960    0.0000 C.ar    1  LIG1       -0.0026
     19 C          -2.0420   -2.0290    0.0000 C.ar    1  LIG1       -0.0003
     20 C          -1.8880   -2.9830    0.0000 C.ar    1  LIG1       -0.0000
     21 C          -0.9500   -3.3500    0.0000 C.ar    1  LIG1       -0.0003
     22 C          -0.1500   -2.7080    0.0000 C.ar    1  LIG1       -0.0026
@<TRIPOS>BOND
     1     1     2    1
     2     1     5    1
     3     1    16    1
     4     2     3    1
     5     2    13    1
     6     3     4    1
     7     3    10    1
     8     4     5   ar
     9     4     9   ar
    10     5     6   ar
    11     6     7   ar
    12     7     8   ar
    13     8     9   ar
    14    10    11    1
    15    11    12    1
    16    11    14    1
    17    11    15    1
    18    12    13    1
    19    16    17    1
    20    17    18   ar
    21    17    22   ar
    22    18    19   ar
    23    19    20   ar
    24    20    21   ar
    25    21    22   ar
