@<TRIPOS>MOLECULE
31957_ChemDiv_5408-3462
 25 28 0 0 0
SMALL
GASTEIGER
Energy = 0

@<TRIPOS>ATOM
      1 N          -3.3790   -2.9960    0.0000 N.ar    1  LIG1       -0.1094
      2 N          -2.7750   -2.1750    0.0000 N.ar    1  LIG1       -0.1404
      3 C          -1.8210   -2.4960    0.0000 C.ar    1  LIG1        0.1122
      4 C          -1.8210   -3.4920    0.0000 C.ar    1  LIG1        0.0685
      5 S          -2.7750   -3.8130    0.0000 S.2     1  LIG1        0.0372
      6 C          -0.9580   -3.9920    0.0000 C.ar    1  LIG1        0.0109
      7 C          -0.0920   -3.4920    0.0000 C.ar    1  LIG1        0.0173
      8 C          -0.0920   -2.4960    0.0000 C.ar    1  LIG1        0.0766
      9 C          -0.9580   -1.9960    0.0000 C.ar    1  LIG1        0.0381
     10 N           0.7710   -1.9920    0.0000 N.am    1  LIG1       -0.1606
     11 C           1.6330   -2.4790    0.0000 C.2     1  LIG1        0.3477
     12 N           2.5000   -1.9790    0.0000 N.am    1  LIG1       -0.1607
     13 C           2.5000   -0.9830    0.0000 C.ar    1  LIG1        0.0751
     14 C           3.3750   -0.4830    0.0000 C.ar    1  LIG1        0.0179
     15 C           3.3630    0.5170    0.0000 C.ar    1  LIG1        0.0159
     16 C           2.5000    1.0170    0.0000 C.ar    1  LIG1        0.0481
     17 N           2.5000    1.9960    0.0000 N.pl3   1  LIG1       -0.3028
     18 C           3.3630    2.4960    0.0000 C.3     1  LIG1        0.1231
     19 C           3.3580    3.4960    0.0000 C.3     1  LIG1        0.1636
     20 O           2.4960    3.9960    0.0000 O.3     1  LIG1       -0.3501
     21 C           1.6290    3.4960    0.0000 C.3     1  LIG1        0.1636
     22 C           1.6290    2.4960    0.0000 C.3     1  LIG1        0.1231
     23 C           1.6290    0.5000    0.0000 C.ar    1  LIG1        0.0159
     24 C           1.6330   -0.4920    0.0000 C.ar    1  LIG1        0.0179
     25 O           1.6330   -3.4790    0.0000 O.2     1  LIG1       -0.2484
@<TRIPOS>BOND
     1     1     2   ar
     2     1     5   ar
     3     2     3   ar
     4     3     4   ar
     5     3     9   ar
     6     4     5   ar
     7     4     6   ar
     8     6     7   ar
     9     7     8   ar
    10     8     9   ar
    11     8    10    1
    12    10    11   am
    13    11    12   am
    14    11    25    2
    15    12    13    1
    16    13    14   ar
    17    13    24   ar
    18    14    15   ar
    19    15    16   ar
    20    16    17    1
    21    16    23   ar
    22    17    18    1
    23    17    22    1
    24    18    19    1
    25    19    20    1
    26    20    21    1
    27    21    22    1
    28    23    24   ar
