@<TRIPOS>MOLECULE
31952_ChemDiv_5556-0494
 25 28 0 0 0
SMALL
GASTEIGER
Energy = 0

@<TRIPOS>ATOM
      1 C          -1.6630    0.3460    0.0000 C.3     1  LIG1        0.1284
      2 C          -2.5290    0.8500    0.0000 C.ar    1  LIG1        0.0250
      3 C          -2.5130    1.8540    0.0000 C.ar    1  LIG1        0.1420
      4 O          -1.6630    2.3580    0.0000 O.3     1  LIG1       -0.4541
      5 C          -0.7750    1.8540    0.0000 C.ar    1  LIG1        0.1420
      6 C          -0.7830    0.8500    0.0000 C.ar    1  LIG1        0.0250
      7 C           0.0710    0.3460    0.0000 C.ar    1  LIG1       -0.0005
      8 C           0.9540    0.8500    0.0000 C.ar    1  LIG1       -0.0001
      9 C           0.9540    1.8540    0.0000 C.ar    1  LIG1        0.0031
     10 C           0.0880    2.3540    0.0000 C.ar    1  LIG1        0.0372
     11 C          -3.3830    2.3540    0.0000 C.ar    1  LIG1        0.0372
     12 C          -4.2460    1.8540    0.0000 C.ar    1  LIG1        0.0031
     13 C          -4.2460    0.8500    0.0000 C.ar    1  LIG1       -0.0001
     14 C          -3.3830    0.3580    0.0000 C.ar    1  LIG1       -0.0005
     15 C          -1.6630   -0.6420    0.0000 C.2     1  LIG1        0.2493
     16 O          -2.5130   -1.1500    0.0000 O.2     1  LIG1       -0.2726
     17 N          -0.7830   -1.1500    0.0000 N.am    1  LIG1       -0.2048
     18 C           0.0710   -0.6420    0.0000 C.3     1  LIG1        0.1172
     19 C           0.9330   -1.1500    0.0000 C.3     1  LIG1        0.0479
     20 C           1.8000   -0.6630    0.0000 C.3     1  LIG1        0.1095
     21 N           2.6580   -1.1500    0.0000 N.ar    1  LIG1       -0.3078
     22 C           3.5750   -0.7420    0.0000 C.ar    1  LIG1        0.1786
     23 N           4.2420   -1.4920    0.0000 N.ar    1  LIG1       -0.2223
     24 C           3.7460   -2.3540    0.0000 C.ar    1  LIG1        0.1193
     25 C           2.7670   -2.1460    0.0000 C.ar    1  LIG1        0.0980
@<TRIPOS>BOND
     1     1     2    1
     2     1     6    1
     3     1    15    1
     4     2     3   ar
     5     2    14   ar
     6     3     4    1
     7     3    11   ar
     8     4     5    1
     9     5     6   ar
    10     5    10   ar
    11     6     7   ar
    12     7     8   ar
    13     8     9   ar
    14     9    10   ar
    15    11    12   ar
    16    12    13   ar
    17    13    14   ar
    18    15    16    2
    19    15    17   am
    20    17    18    1
    21    18    19    1
    22    19    20    1
    23    20    21    1
    24    21    22   ar
    25    21    25   ar
    26    22    23   ar
    27    23    24   ar
    28    24    25   ar
