@<TRIPOS>MOLECULE
31959_ChemDiv_5408-3464
 21 23 0 0 0
SMALL
GASTEIGER
Energy = 0

@<TRIPOS>ATOM
      1 N          -3.8170   -2.2460    0.0000 N.ar    1  LIG1       -0.1094
      2 N          -3.2130   -1.4250    0.0000 N.ar    1  LIG1       -0.1404
      3 C          -2.2580   -1.7460    0.0000 C.ar    1  LIG1        0.1122
      4 C          -2.2580   -2.7460    0.0000 C.ar    1  LIG1        0.0685
      5 S          -3.2130   -3.0670    0.0000 S.2     1  LIG1        0.0372
      6 C          -1.3920   -3.2500    0.0000 C.ar    1  LIG1        0.0109
      7 C          -0.5250   -2.7460    0.0000 C.ar    1  LIG1        0.0173
      8 C          -0.5250   -1.7460    0.0000 C.ar    1  LIG1        0.0766
      9 C          -1.3920   -1.2460    0.0000 C.ar    1  LIG1        0.0381
     10 N           0.3420   -1.2420    0.0000 N.am    1  LIG1       -0.1609
     11 C           1.2040   -1.7330    0.0000 C.2     1  LIG1        0.3435
     12 O           1.2040   -2.7330    0.0000 O.2     1  LIG1       -0.2488
     13 N           2.0710   -1.2290    0.0000 N.am    1  LIG1       -0.1866
     14 C           2.0710   -0.2330    0.0000 C.3     1  LIG1        0.1212
     15 C           2.9380    0.2830    0.0000 C.3     1  LIG1        0.0452
     16 C           2.9380    1.2670    0.0000 C.2     1  LIG1       -0.0467
     17 C           3.8000    1.7710    0.0000 C.2     1  LIG1       -0.0346
     18 C           3.8130    2.7500    0.0000 C.3     1  LIG1        0.0254
     19 C           2.9460    3.2540    0.0000 C.3     1  LIG1        0.0050
     20 C           2.0790    2.7630    0.0000 C.3     1  LIG1        0.0047
     21 C           2.0790    1.7710    0.0000 C.3     1  LIG1        0.0218
@<TRIPOS>BOND
     1     1     2   ar
     2     1     5   ar
     3     2     3   ar
     4     3     4   ar
     5     3     9   ar
     6     4     5   ar
     7     4     6   ar
     8     6     7   ar
     9     7     8   ar
    10     8     9   ar
    11     8    10    1
    12    10    11   am
    13    11    12    2
    14    11    13   am
    15    13    14    1
    16    14    15    1
    17    15    16    1
    18    16    17    2
    19    16    21    1
    20    17    18    1
    21    18    19    1
    22    19    20    1
    23    20    21    1
