@<TRIPOS>MOLECULE
31955_ChemDiv_5408-3403
 23 26 0 0 0
SMALL
GASTEIGER
Energy = 0

@<TRIPOS>ATOM
      1 C           0.6330   -1.4540    0.0000 C.2     1  LIG1        0.3275
      2 N           1.5000   -0.9540    0.0000 N.am    1  LIG1       -0.2622
      3 C           1.6040    0.0330    0.0000 C.3     1  LIG1        0.0993
      4 C           2.5750    0.2540    0.0000 C.3     1  LIG1        0.0439
      5 C           3.0830   -0.5920    0.0000 C.3     1  LIG1        0.0276
      6 C           2.4040   -1.3500    0.0000 C.3     1  LIG1        0.0954
      7 C           2.9790    1.1630    0.0000 C.ar    1  LIG1       -0.0208
      8 C           3.9750    1.2670    0.0000 C.ar    1  LIG1       -0.0042
      9 C           4.3790    2.1750    0.0000 C.ar    1  LIG1       -0.0003
     10 C           3.7830    2.9750    0.0000 C.ar    1  LIG1       -0.0000
     11 C           2.7830    2.8710    0.0000 C.ar    1  LIG1       -0.0003
     12 C           2.3880    1.9540    0.0000 C.ar    1  LIG1       -0.0042
     13 N          -0.2290   -0.9630    0.0000 N.am    1  LIG1       -0.1621
     14 C          -1.0920   -1.4710    0.0000 C.ar    1  LIG1        0.0765
     15 C          -1.9630   -0.9710    0.0000 C.ar    1  LIG1        0.0381
     16 C          -2.8250   -1.4710    0.0000 C.ar    1  LIG1        0.1122
     17 N          -3.7790   -1.1500    0.0000 N.ar    1  LIG1       -0.1404
     18 N          -4.3830   -1.9710    0.0000 N.ar    1  LIG1       -0.1094
     19 S          -3.7790   -2.7920    0.0000 S.2     1  LIG1        0.0372
     20 C          -2.8250   -2.4710    0.0000 C.ar    1  LIG1        0.0685
     21 C          -1.9630   -2.9710    0.0000 C.ar    1  LIG1        0.0109
     22 C          -1.0920   -2.4710    0.0000 C.ar    1  LIG1        0.0173
     23 O           0.6330   -2.4580    0.0000 O.2     1  LIG1       -0.2504
@<TRIPOS>BOND
     1     1     2   am
     2     1    13   am
     3     1    23    2
     4     2     3    1
     5     2     6    1
     6     3     4    1
     7     4     5    1
     8     4     7    1
     9     5     6    1
    10     7     8   ar
    11     7    12   ar
    12     8     9   ar
    13     9    10   ar
    14    10    11   ar
    15    11    12   ar
    16    13    14    1
    17    14    15   ar
    18    14    22   ar
    19    15    16   ar
    20    16    17   ar
    21    16    20   ar
    22    17    18   ar
    23    18    19   ar
    24    19    20   ar
    25    20    21   ar
    26    21    22   ar
