@<TRIPOS>MOLECULE
31953_ChemDiv_5408-3379
 16 18 0 0 0
SMALL
GASTEIGER
Energy = 0

@<TRIPOS>ATOM
      1 N          -3.3000   -0.5000    0.0000 N.ar    1  LIG1       -0.1094
      2 N          -2.7000    0.3170    0.0000 N.ar    1  LIG1       -0.1405
      3 C          -1.7460    0.0000    0.0000 C.ar    1  LIG1        0.1110
      4 C          -1.7460   -1.0000    0.0000 C.ar    1  LIG1        0.0684
      5 S          -2.7000   -1.3170    0.0000 S.2     1  LIG1        0.0372
      6 C          -0.8830   -1.4960    0.0000 C.ar    1  LIG1        0.0097
      7 C          -0.0170   -1.0000    0.0000 C.ar    1  LIG1        0.0052
      8 C          -0.0170    0.0000    0.0000 C.ar    1  LIG1        0.0552
      9 C           0.8460    0.5000    0.0000 C.2     1  LIG1        0.2491
     10 N           1.7080    0.0130    0.0000 N.am    1  LIG1       -0.2761
     11 C           1.8250   -0.9790    0.0000 C.3     1  LIG1        0.0938
     12 C           2.8130   -1.1790    0.0000 C.3     1  LIG1        0.0233
     13 C           3.2960   -0.3170    0.0000 C.3     1  LIG1        0.0233
     14 C           2.6170    0.4130    0.0000 C.3     1  LIG1        0.0938
     15 O           0.8420    1.5000    0.0000 O.2     1  LIG1       -0.2699
     16 C          -0.8830    0.4960    0.0000 C.ar    1  LIG1        0.0260
@<TRIPOS>BOND
     1     1     2   ar
     2     1     5   ar
     3     2     3   ar
     4     3     4   ar
     5     3    16   ar
     6     4     5   ar
     7     4     6   ar
     8     6     7   ar
     9     7     8   ar
    10     8     9    1
    11     8    16   ar
    12     9    10   am
    13     9    15    2
    14    10    11    1
    15    10    14    1
    16    11    12    1
    17    12    13    1
    18    13    14    1
