@<TRIPOS>MOLECULE
31958_ChemDiv_5436-0892
 21 24 0 0 0
SMALL
GASTEIGER
Energy = 0

@<TRIPOS>ATOM
      1 C           1.1920    0.5040    0.0000 C.ar    1  LIG1        0.0094
      2 C           0.3290    1.0130    0.0000 C.ar    1  LIG1        0.0351
      3 C           0.3290    2.0000    0.0000 C.ar    1  LIG1        0.1517
      4 O           1.1920    2.5000    0.0000 O.2     1  LIG1       -0.4209
      5 C           2.0670    2.0000    0.0000 C.ar    1  LIG1        0.3459
      6 C           2.0670    1.0130    0.0000 C.ar    1  LIG1        0.0824
      7 O           2.9330    2.5000    0.0000 O.2     1  LIG1       -0.2445
      8 C          -0.5330    2.5000    0.0000 C.ar    1  LIG1        0.0750
      9 C          -1.4000    2.0000    0.0000 C.ar    1  LIG1        0.1482
     10 C          -1.3830    0.9960    0.0000 C.ar    1  LIG1        0.0338
     11 C          -0.5330    0.5040    0.0000 C.ar    1  LIG1        0.0059
     12 C          -2.3460    0.6710    0.0000 C.ar    1  LIG1        0.0187
     13 C          -2.9380    1.4960    0.0000 C.ar    1  LIG1        0.1753
     14 O          -2.3500    2.3040    0.0000 O.2     1  LIG1       -0.4507
     15 C          -2.6500   -0.2710    0.0000 C.3     1  LIG1        0.0344
     16 C           1.2040   -0.5000    0.0000 C.ar    1  LIG1        0.0003
     17 C           0.3290   -1.0000    0.0000 C.ar    1  LIG1        0.0000
     18 C           0.3290   -1.9960    0.0000 C.ar    1  LIG1        0.0000
     19 C           1.2040   -2.4960    0.0000 C.ar    1  LIG1        0.0000
     20 C           2.0670   -1.9920    0.0000 C.ar    1  LIG1        0.0000
     21 C           2.0670   -0.9830    0.0000 C.ar    1  LIG1        0.0000
@<TRIPOS>BOND
     1     1     2   ar
     2     1     6   ar
     3     1    16    1
     4     2     3   ar
     5     2    11   ar
     6     3     4   ar
     7     3     8   ar
     8     4     5   ar
     9     5     6   ar
    10     5     7    2
    11     8     9   ar
    12     9    10   ar
    13     9    14   ar
    14    10    11   ar
    15    10    12   ar
    16    12    13   ar
    17    12    15    1
    18    13    14   ar
    19    16    17   ar
    20    16    21   ar
    21    17    18   ar
    22    18    19   ar
    23    19    20   ar
    24    20    21   ar
