@<TRIPOS>MOLECULE
31956_ChemDiv_5436-0849
 25 28 0 0 0
SMALL
GASTEIGER
Energy = 0

@<TRIPOS>ATOM
      1 C           0.6710    0.5040    0.0000 C.ar    1  LIG1        0.0348
      2 C           0.6710    1.5040    0.0000 C.ar    1  LIG1        0.1476
      3 C          -0.2040    1.9920    0.0000 C.ar    1  LIG1        0.0473
      4 C          -1.0670    1.5040    0.0000 C.ar    1  LIG1        0.1440
      5 C          -1.0670    0.5040    0.0000 C.ar    1  LIG1        0.0335
      6 C          -2.0250    0.2130    0.0000 C.ar    1  LIG1        0.0177
      7 C          -2.6040    1.0040    0.0000 C.ar    1  LIG1        0.1752
      8 O          -2.0250    1.8130    0.0000 O.2     1  LIG1       -0.4510
      9 C          -2.3250   -0.7420    0.0000 C.3     1  LIG1        0.0220
     10 C          -2.6460   -1.7040    0.0000 C.3     1  LIG1        0.0045
     11 C          -1.3710   -1.0580    0.0000 C.3     1  LIG1        0.0045
     12 C          -3.2790   -0.4380    0.0000 C.3     1  LIG1        0.0045
     13 C          -0.2040    0.0080    0.0000 C.ar    1  LIG1        0.0058
     14 C          -0.2040    3.0040    0.0000 C.3     1  LIG1        0.0375
     15 O           1.5330    1.9920    0.0000 O.2     1  LIG1       -0.4213
     16 C           2.3880    1.5040    0.0000 C.ar    1  LIG1        0.3459
     17 C           2.3880    0.5040    0.0000 C.ar    1  LIG1        0.0824
     18 C           1.5330    0.0080    0.0000 C.ar    1  LIG1        0.0094
     19 C           1.5330   -0.9830    0.0000 C.ar    1  LIG1        0.0003
     20 C           0.6580   -1.4830    0.0000 C.ar    1  LIG1        0.0000
     21 C           0.6580   -2.5000    0.0000 C.ar    1  LIG1        0.0000
     22 C           1.5330   -3.0000    0.0000 C.ar    1  LIG1        0.0000
     23 C           2.3880   -2.5000    0.0000 C.ar    1  LIG1        0.0000
     24 C           2.3880   -1.4830    0.0000 C.ar    1  LIG1        0.0000
     25 O           3.2750    1.9920    0.0000 O.2     1  LIG1       -0.2445
@<TRIPOS>BOND
     1     1     2   ar
     2     1    13   ar
     3     1    18   ar
     4     2     3   ar
     5     2    15   ar
     6     3     4   ar
     7     3    14    1
     8     4     5   ar
     9     4     8   ar
    10     5     6   ar
    11     5    13   ar
    12     6     7   ar
    13     6     9    1
    14     7     8   ar
    15     9    10    1
    16     9    11    1
    17     9    12    1
    18    15    16   ar
    19    16    17   ar
    20    16    25    2
    21    17    18   ar
    22    18    19    1
    23    19    20   ar
    24    19    24   ar
    25    20    21   ar
    26    21    22   ar
    27    22    23   ar
    28    23    24   ar
