@<TRIPOS>MOLECULE
31962_ChemDiv_5436-0896
 22 25 0 0 0
SMALL
GASTEIGER
Energy = 0

@<TRIPOS>ATOM
      1 C           0.3290    0.5170    0.0000 C.ar    1  LIG1        0.0348
      2 C           0.3290    1.5040    0.0000 C.ar    1  LIG1        0.1476
      3 C          -0.5330    2.0040    0.0000 C.ar    1  LIG1        0.0473
      4 C          -1.4000    1.5040    0.0000 C.ar    1  LIG1        0.1440
      5 C          -1.3830    0.5000    0.0000 C.ar    1  LIG1        0.0335
      6 C          -0.5330    0.0080    0.0000 C.ar    1  LIG1        0.0058
      7 C          -2.3460    0.1750    0.0000 C.ar    1  LIG1        0.0187
      8 C          -2.9380    1.0000    0.0000 C.ar    1  LIG1        0.1752
      9 O          -2.3500    1.8080    0.0000 O.2     1  LIG1       -0.4510
     10 C          -2.6500   -0.7710    0.0000 C.3     1  LIG1        0.0344
     11 C          -0.5330    2.9960    0.0000 C.3     1  LIG1        0.0375
     12 O           1.1920    2.0040    0.0000 O.2     1  LIG1       -0.4213
     13 C           2.0670    1.5040    0.0000 C.ar    1  LIG1        0.3459
     14 C           2.0670    0.5170    0.0000 C.ar    1  LIG1        0.0824
     15 C           1.1920    0.0080    0.0000 C.ar    1  LIG1        0.0094
     16 C           1.2040   -0.9960    0.0000 C.ar    1  LIG1        0.0003
     17 C           2.0670   -1.4790    0.0000 C.ar    1  LIG1        0.0000
     18 C           2.0670   -2.4880    0.0000 C.ar    1  LIG1        0.0000
     19 C           1.2040   -2.9920    0.0000 C.ar    1  LIG1        0.0000
     20 C           0.3290   -2.4960    0.0000 C.ar    1  LIG1        0.0000
     21 C           0.3290   -1.4960    0.0000 C.ar    1  LIG1        0.0000
     22 O           2.9330    2.0040    0.0000 O.2     1  LIG1       -0.2445
@<TRIPOS>BOND
     1     1     2   ar
     2     1     6   ar
     3     1    15   ar
     4     2     3   ar
     5     2    12   ar
     6     3     4   ar
     7     3    11    1
     8     4     5   ar
     9     4     9   ar
    10     5     6   ar
    11     5     7   ar
    12     7     8   ar
    13     7    10    1
    14     8     9   ar
    15    12    13   ar
    16    13    14   ar
    17    13    22    2
    18    14    15   ar
    19    15    16    1
    20    16    17   ar
    21    16    21   ar
    22    17    18   ar
    23    18    19   ar
    24    19    20   ar
    25    20    21   ar
