@<TRIPOS>MOLECULE
31968_ChemDiv_5436-0986
 24 27 0 0 0
SMALL
GASTEIGER
Energy = 0

@<TRIPOS>ATOM
      1 C           1.6960    1.2540    0.0000 C.ar    1  LIG1        0.0094
      2 C           0.8290    1.7630    0.0000 C.ar    1  LIG1        0.0351
      3 C           0.8290    2.7540    0.0000 C.ar    1  LIG1        0.1517
      4 O           1.6960    3.2540    0.0000 O.2     1  LIG1       -0.4209
      5 C           2.5630    2.7540    0.0000 C.ar    1  LIG1        0.3459
      6 C           2.5630    1.7630    0.0000 C.ar    1  LIG1        0.0824
      7 O           3.4380    3.2540    0.0000 O.2     1  LIG1       -0.2445
      8 C          -0.0460    3.2540    0.0000 C.ar    1  LIG1        0.0750
      9 C          -0.9080    2.7540    0.0000 C.ar    1  LIG1        0.1476
     10 C          -0.9080    1.7630    0.0000 C.ar    1  LIG1        0.0334
     11 C          -1.8670    1.4630    0.0000 C.ar    1  LIG1        0.0114
     12 C          -2.4330    2.2630    0.0000 C.ar    1  LIG1        0.1193
     13 O          -1.8670    3.0580    0.0000 O.2     1  LIG1       -0.4580
     14 C          -3.4420    2.2630    0.0000 C.3     1  LIG1        0.0721
     15 C          -2.1670    0.5040    0.0000 C.3     1  LIG1        0.0340
     16 C          -0.0460    1.2540    0.0000 C.ar    1  LIG1        0.0058
     17 C           1.6960    0.2630    0.0000 C.ar    1  LIG1        0.0005
     18 C           0.8290   -0.2380    0.0000 C.ar    1  LIG1        0.0031
     19 C           0.8290   -1.2540    0.0000 C.ar    1  LIG1        0.0369
     20 C           1.6960   -1.7540    0.0000 C.ar    1  LIG1        0.1387
     21 C           2.5500   -1.2540    0.0000 C.ar    1  LIG1        0.0369
     22 C           2.5500   -0.2380    0.0000 C.ar    1  LIG1        0.0031
     23 O           1.7000   -2.7670    0.0000 O.3     1  LIG1       -0.4714
     24 C           2.5630   -3.2500    0.0000 C.3     1  LIG1        0.2525
@<TRIPOS>BOND
     1     1     2   ar
     2     1     6   ar
     3     1    17    1
     4     2     3   ar
     5     2    16   ar
     6     3     4   ar
     7     3     8   ar
     8     4     5   ar
     9     5     6   ar
    10     5     7    2
    11     8     9   ar
    12     9    10   ar
    13     9    13   ar
    14    10    11   ar
    15    10    16   ar
    16    11    12   ar
    17    11    15    1
    18    12    13   ar
    19    12    14    1
    20    17    18   ar
    21    17    22   ar
    22    18    19   ar
    23    19    20   ar
    24    20    21   ar
    25    20    23    1
    26    21    22   ar
    27    23    24    1
