@<TRIPOS>MOLECULE
31969_ChemDiv_5586-3102
 17 19 0 0 0
SMALL
GASTEIGER
Energy = 0

@<TRIPOS>ATOM
      1 C          -0.5290    0.0420    0.0000 C.3     1  LIG1        0.0642
      2 C          -0.5290    1.0330    0.0000 C.2     1  LIG1        0.1724
      3 C           0.3960    1.3460    0.0000 C.ar    1  LIG1        0.0307
      4 C           0.9630    0.5500    0.0000 C.ar    1  LIG1       -0.0190
      5 C           0.3960   -0.2670    0.0000 C.3     1  LIG1        0.0338
      6 C           1.9750    0.6630    0.0000 C.ar    1  LIG1       -0.0042
      7 C           2.4000    1.5750    0.0000 C.ar    1  LIG1       -0.0003
      8 C           1.8130    2.3630    0.0000 C.ar    1  LIG1        0.0001
      9 C           0.8210    2.2500    0.0000 C.ar    1  LIG1        0.0025
     10 O          -1.3580    1.6540    0.0000 O.2     1  LIG1       -0.2914
     11 C          -1.4130   -0.4750    0.0000 C.3     1  LIG1        0.0349
     12 C          -1.4460   -1.4670    0.0000 C.3     1  LIG1        0.0933
     13 O          -0.5290   -1.9630    0.0000 O.3     1  LIG1       -0.3585
     14 C           0.3210   -1.4710    0.0000 C.3     1  LIG1        0.1424
     15 C           0.3210   -0.4750    0.0000 C.3     1  LIG1        0.0397
     16 C          -2.4040   -1.7500    0.0000 C.3     1  LIG1        0.0296
     17 C          -1.9500   -2.3580    0.0000 C.3     1  LIG1        0.0296
@<TRIPOS>BOND
     1     1     2    1
     2     1     5    1
     3     1    11    1
     4     1    15    1
     5     2     3    1
     6     2    10    2
     7     3     4   ar
     8     3     9   ar
     9     4     5    1
    10     4     6   ar
    11     6     7   ar
    12     7     8   ar
    13     8     9   ar
    14    11    12    1
    15    12    13    1
    16    12    16    1
    17    12    17    1
    18    13    14    1
    19    14    15    1
