@<TRIPOS>MOLECULE
31966_ChemDiv_5436-0985
 25 28 0 0 0
SMALL
GASTEIGER
Energy = 0

@<TRIPOS>ATOM
      1 C          -0.9080    2.2500    0.0000 C.ar    1  LIG1        0.1434
      2 C          -0.9080    1.2580    0.0000 C.ar    1  LIG1        0.0331
      3 C          -1.8630    0.9540    0.0000 C.ar    1  LIG1        0.0114
      4 C          -2.4290    1.7580    0.0000 C.ar    1  LIG1        0.1193
      5 O          -1.8630    2.5500    0.0000 O.2     1  LIG1       -0.4583
      6 C          -3.4420    1.7580    0.0000 C.3     1  LIG1        0.0721
      7 C          -2.1670    0.0000    0.0000 C.3     1  LIG1        0.0340
      8 C          -0.0460    0.7460    0.0000 C.ar    1  LIG1        0.0058
      9 C           0.8290    1.2580    0.0000 C.ar    1  LIG1        0.0348
     10 C           0.8290    2.2500    0.0000 C.ar    1  LIG1        0.1476
     11 C          -0.0460    2.7500    0.0000 C.ar    1  LIG1        0.0472
     12 C          -0.0460    3.7580    0.0000 C.3     1  LIG1        0.0375
     13 O           1.6920    2.7500    0.0000 O.2     1  LIG1       -0.4213
     14 C           2.5630    2.2500    0.0000 C.ar    1  LIG1        0.3459
     15 C           2.5630    1.2580    0.0000 C.ar    1  LIG1        0.0824
     16 C           1.6920    0.7460    0.0000 C.ar    1  LIG1        0.0094
     17 C           1.6920   -0.2420    0.0000 C.ar    1  LIG1        0.0005
     18 C           0.8290   -0.7420    0.0000 C.ar    1  LIG1        0.0031
     19 C           0.8290   -1.7580    0.0000 C.ar    1  LIG1        0.0369
     20 C           1.6920   -2.2580    0.0000 C.ar    1  LIG1        0.1387
     21 C           2.5460   -1.7580    0.0000 C.ar    1  LIG1        0.0369
     22 C           2.5460   -0.7420    0.0000 C.ar    1  LIG1        0.0031
     23 O           1.7000   -3.2710    0.0000 O.3     1  LIG1       -0.4714
     24 C           2.5630   -3.7540    0.0000 C.3     1  LIG1        0.2525
     25 O           3.4380    2.7500    0.0000 O.2     1  LIG1       -0.2445
@<TRIPOS>BOND
     1     1     2   ar
     2     1     5   ar
     3     1    11   ar
     4     2     3   ar
     5     2     8   ar
     6     3     4   ar
     7     3     7    1
     8     4     5   ar
     9     4     6    1
    10     8     9   ar
    11     9    10   ar
    12     9    16   ar
    13    10    11   ar
    14    10    13   ar
    15    11    12    1
    16    13    14   ar
    17    14    15   ar
    18    14    25    2
    19    15    16   ar
    20    16    17    1
    21    17    18   ar
    22    17    22   ar
    23    18    19   ar
    24    19    20   ar
    25    20    21   ar
    26    20    23    1
    27    21    22   ar
    28    23    24    1
