@<TRIPOS>MOLECULE
31960_ChemDiv_5436-0893
 22 25 0 0 0
SMALL
GASTEIGER
Energy = 0

@<TRIPOS>ATOM
      1 C           1.6880    0.5040    0.0000 C.ar    1  LIG1        0.0094
      2 C           0.8250    1.0130    0.0000 C.ar    1  LIG1        0.0351
      3 C           0.8250    2.0000    0.0000 C.ar    1  LIG1        0.1517
      4 O           1.6880    2.5000    0.0000 O.2     1  LIG1       -0.4209
      5 C           2.5580    2.0000    0.0000 C.ar    1  LIG1        0.3459
      6 C           2.5580    1.0130    0.0000 C.ar    1  LIG1        0.0824
      7 O           3.4290    2.5000    0.0000 O.2     1  LIG1       -0.2445
      8 C          -0.0380    2.5000    0.0000 C.ar    1  LIG1        0.0750
      9 C          -0.9040    2.0000    0.0000 C.ar    1  LIG1        0.1476
     10 C          -0.8920    1.0000    0.0000 C.ar    1  LIG1        0.0334
     11 C          -1.8540    0.6710    0.0000 C.ar    1  LIG1        0.0114
     12 C          -2.4420    1.4960    0.0000 C.ar    1  LIG1        0.1193
     13 O          -1.8580    2.3040    0.0000 O.2     1  LIG1       -0.4580
     14 C          -3.4330    1.4710    0.0000 C.3     1  LIG1        0.0721
     15 C          -2.1540   -0.2710    0.0000 C.3     1  LIG1        0.0340
     16 C          -0.0380    0.5040    0.0000 C.ar    1  LIG1        0.0058
     17 C           1.6960   -0.5000    0.0000 C.ar    1  LIG1        0.0003
     18 C           2.5580   -0.9830    0.0000 C.ar    1  LIG1        0.0000
     19 C           2.5580   -1.9920    0.0000 C.ar    1  LIG1        0.0000
     20 C           1.6960   -2.4960    0.0000 C.ar    1  LIG1        0.0000
     21 C           0.8250   -1.9960    0.0000 C.ar    1  LIG1        0.0000
     22 C           0.8250   -1.0000    0.0000 C.ar    1  LIG1        0.0000
@<TRIPOS>BOND
     1     1     2   ar
     2     1     6   ar
     3     1    17    1
     4     2     3   ar
     5     2    16   ar
     6     3     4   ar
     7     3     8   ar
     8     4     5   ar
     9     5     6   ar
    10     5     7    2
    11     8     9   ar
    12     9    10   ar
    13     9    13   ar
    14    10    11   ar
    15    10    16   ar
    16    11    12   ar
    17    11    15    1
    18    12    13   ar
    19    12    14    1
    20    17    18   ar
    21    17    22   ar
    22    18    19   ar
    23    19    20   ar
    24    20    21   ar
    25    21    22   ar
