@<TRIPOS>MOLECULE
31964_ChemDiv_5436-0897
 23 26 0 0 0
SMALL
GASTEIGER
Energy = 0

@<TRIPOS>ATOM
      1 C          -0.9040    1.5040    0.0000 C.ar    1  LIG1        0.1434
      2 C          -0.8920    0.5000    0.0000 C.ar    1  LIG1        0.0331
      3 C          -1.8540    0.1750    0.0000 C.ar    1  LIG1        0.0114
      4 C          -2.4420    1.0000    0.0000 C.ar    1  LIG1        0.1193
      5 O          -1.8580    1.8080    0.0000 O.2     1  LIG1       -0.4583
      6 C          -3.4330    0.9750    0.0000 C.3     1  LIG1        0.0721
      7 C          -2.1540   -0.7710    0.0000 C.3     1  LIG1        0.0340
      8 C          -0.0380    0.0080    0.0000 C.ar    1  LIG1        0.0058
      9 C           0.8250    0.5170    0.0000 C.ar    1  LIG1        0.0348
     10 C           0.8250    1.5040    0.0000 C.ar    1  LIG1        0.1476
     11 C          -0.0380    2.0040    0.0000 C.ar    1  LIG1        0.0472
     12 C          -0.0380    3.0000    0.0000 C.3     1  LIG1        0.0375
     13 O           1.6880    2.0040    0.0000 O.2     1  LIG1       -0.4213
     14 C           2.5630    1.5040    0.0000 C.ar    1  LIG1        0.3459
     15 C           2.5630    0.5170    0.0000 C.ar    1  LIG1        0.0824
     16 C           1.6880    0.0080    0.0000 C.ar    1  LIG1        0.0094
     17 C           1.7000   -0.9960    0.0000 C.ar    1  LIG1        0.0003
     18 C           0.8250   -1.4960    0.0000 C.ar    1  LIG1        0.0000
     19 C           0.8250   -2.4960    0.0000 C.ar    1  LIG1        0.0000
     20 C           1.7000   -2.9960    0.0000 C.ar    1  LIG1        0.0000
     21 C           2.5630   -2.4920    0.0000 C.ar    1  LIG1        0.0000
     22 C           2.5630   -1.4790    0.0000 C.ar    1  LIG1        0.0000
     23 O           3.4290    2.0040    0.0000 O.2     1  LIG1       -0.2445
@<TRIPOS>BOND
     1     1     2   ar
     2     1     5   ar
     3     1    11   ar
     4     2     3   ar
     5     2     8   ar
     6     3     4   ar
     7     3     7    1
     8     4     5   ar
     9     4     6    1
    10     8     9   ar
    11     9    10   ar
    12     9    16   ar
    13    10    11   ar
    14    10    13   ar
    15    11    12    1
    16    13    14   ar
    17    14    15   ar
    18    14    23    2
    19    15    16   ar
    20    16    17    1
    21    17    18   ar
    22    17    22   ar
    23    18    19   ar
    24    19    20   ar
    25    20    21   ar
    26    21    22   ar
