@<TRIPOS>MOLECULE
31961_ChemDiv_D003-0079
 18 20 0 0 0
SMALL
GASTEIGER
Energy = 0

@<TRIPOS>ATOM
      1 C           1.2080   -0.2420    0.0000 C.2     1  LIG1        0.3275
      2 N           2.0710    0.2580    0.0000 N.am    1  LIG1       -0.2608
      3 C           2.9330   -0.2420    0.0000 C.3     1  LIG1        0.1067
      4 C           3.7960    0.2580    0.0000 C.3     1  LIG1        0.0791
      5 S           3.7960    1.2580    0.0000 S.3     1  LIG1       -0.1366
      6 C           2.9330    1.7580    0.0000 C.3     1  LIG1        0.0791
      7 C           2.0670    1.2580    0.0000 C.3     1  LIG1        0.1067
      8 N           0.3460    0.2500    0.0000 N.am    1  LIG1       -0.1621
      9 C          -0.5170   -0.2540    0.0000 C.ar    1  LIG1        0.0765
     10 C          -1.3830    0.2460    0.0000 C.ar    1  LIG1        0.0381
     11 C          -2.2460   -0.2540    0.0000 C.ar    1  LIG1        0.1122
     12 N          -3.2000    0.0630    0.0000 N.ar    1  LIG1       -0.1404
     13 N          -3.8000   -0.7540    0.0000 N.ar    1  LIG1       -0.1094
     14 S          -3.2000   -1.5710    0.0000 S.2     1  LIG1        0.0372
     15 C          -2.2460   -1.2540    0.0000 C.ar    1  LIG1        0.0685
     16 C          -1.3830   -1.7540    0.0000 C.ar    1  LIG1        0.0109
     17 C          -0.5170   -1.2540    0.0000 C.ar    1  LIG1        0.0173
     18 O           1.2080   -1.2380    0.0000 O.2     1  LIG1       -0.2504
@<TRIPOS>BOND
     1     1     2   am
     2     1     8   am
     3     1    18    2
     4     2     3    1
     5     2     7    1
     6     3     4    1
     7     4     5    1
     8     5     6    1
     9     6     7    1
    10     8     9    1
    11     9    10   ar
    12     9    17   ar
    13    10    11   ar
    14    11    12   ar
    15    11    15   ar
    16    12    13   ar
    17    13    14   ar
    18    14    15   ar
    19    15    16   ar
    20    16    17   ar
