@<TRIPOS>MOLECULE
31970_ChemDiv_6481-5071
 23 25 0 0 0
SMALL
GASTEIGER
Energy = 0

@<TRIPOS>ATOM
      1 N          -0.8830   -1.5290    0.0000 N.ar    1  LIG1       -0.2036
      2 C          -0.3250   -0.6960    0.0000 C.ar    1  LIG1        0.2503
      3 N          -0.9330    0.0880    0.0000 N.ar    1  LIG1       -0.1728
      4 S          -1.8750   -0.2540    0.0000 S.2     1  LIG1        0.0355
      5 C          -1.8380   -1.2420    0.0000 C.ar    1  LIG1        0.1312
      6 C          -2.5960   -1.8880    0.0000 C.ar    1  LIG1        0.0254
      7 C          -3.5460   -1.5630    0.0000 C.ar    1  LIG1        0.0029
      8 C          -4.2920   -2.2130    0.0000 C.ar    1  LIG1        0.0115
      9 C          -4.1130   -3.1960    0.0000 C.ar    1  LIG1        0.0577
     10 C          -3.1670   -3.5250    0.0000 C.ar    1  LIG1        0.0115
     11 C          -2.4130   -2.8790    0.0000 C.ar    1  LIG1        0.0029
     12 CL         -4.8960   -3.8420    0.0000 Cl      1  LIG1       -0.0822
     13 N           0.6880   -0.6630    0.0000 N.am    1  LIG1       -0.1420
     14 C           1.1540    0.2080    0.0000 C.2     1  LIG1        0.2597
     15 O           0.6250    1.0540    0.0000 O.2     1  LIG1       -0.2719
     16 C           2.1670    0.2460    0.0000 C.3     1  LIG1        0.1569
     17 S           2.6250    1.1330    0.0000 S.3     1  LIG1       -0.0028
     18 C           3.0000    2.0670    0.0000 C.ar    1  LIG1        0.4817
     19 N           3.9710    2.3250    0.0000 N.ar    1  LIG1        0.2062
     20 C           4.0420    3.3170    0.0000 C.ar    1  LIG1        0.7262
     21 N           3.1080    3.6750    0.0000 N.ar    1  LIG1        0.3230
     22 N           2.4710    2.9250    0.0000 N.ar    1  LIG1        0.1680
     23 N           4.8920    3.8460    0.0000 N.pl3   1  LIG1        0.0250
@<TRIPOS>BOND
     1     1     2   ar
     2     1     5   ar
     3     2     3   ar
     4     2    13    1
     5     3     4   ar
     6     4     5   ar
     7     5     6    1
     8     6     7   ar
     9     6    11   ar
    10     7     8   ar
    11     8     9   ar
    12     9    10   ar
    13     9    12    1
    14    10    11   ar
    15    13    14   am
    16    14    15    2
    17    14    16    1
    18    16    17    1
    19    17    18    1
    20    18    19   ar
    21    18    22   ar
    22    19    20   ar
    23    20    21   ar
    24    20    23    1
    25    21    22   ar
