@<TRIPOS>MOLECULE
31979_ChemDiv_5591-3588
 30 34 0 0 0
SMALL
GASTEIGER
Energy = 0

@<TRIPOS>ATOM
      1 S           1.1250    0.5460    0.0000 S.O2    1  LIG1       -0.0578
      2 C           1.1250    1.5960    0.0000 C.ar    1  LIG1        0.0893
      3 C           0.3210    2.1250    0.0000 C.ar    1  LIG1        0.0173
      4 C           0.3210    3.1750    0.0000 C.ar    1  LIG1        0.0236
      5 C           1.1250    3.7040    0.0000 C.ar    1  LIG1        0.0847
      6 N           0.9250    4.7330    0.0000 N.ar    1  LIG1       -0.2079
      7 C          -0.2830    4.7330    0.0000 C.ar    1  LIG1        0.2792
      8 C          -0.4830    3.7040    0.0000 C.ar    1  LIG1        0.0593
      9 C          -1.2880    3.1750    0.0000 C.ar    1  LIG1        0.0048
     10 C          -1.2880    2.1250    0.0000 C.ar    1  LIG1        0.0002
     11 C          -0.4830    1.5960    0.0000 C.ar    1  LIG1        0.0013
     12 O          -0.9630    5.4290    0.0000 O.2     1  LIG1       -0.2652
     13 C           1.9290    3.1750    0.0000 C.ar    1  LIG1        0.0205
     14 C           1.9290    2.1250    0.0000 C.ar    1  LIG1        0.0184
     15 N           1.1250   -0.5040    0.0000 N.pl3   1  LIG1       -0.5358
     16 C           0.3210   -1.0330    0.0000 C.ar    1  LIG1       -0.1121
     17 C           0.3210   -2.0920    0.0000 C.ar    1  LIG1       -0.0206
     18 C          -0.4830   -2.6210    0.0000 C.ar    1  LIG1        0.0381
     19 C          -0.6670   -3.6460    0.0000 C.ar    1  LIG1        0.0679
     20 C          -1.5830   -3.7670    0.0000 C.ar    1  LIG1        0.1260
     21 O          -1.9790   -2.8040    0.0000 O.2     1  LIG1       -0.4577
     22 C          -1.2880   -2.0920    0.0000 C.ar    1  LIG1        0.1448
     23 C          -1.2880   -1.0330    0.0000 C.ar    1  LIG1        0.0356
     24 C          -0.4830   -0.5040    0.0000 C.ar    1  LIG1       -0.0207
     25 C          -2.0540   -4.6830    0.0000 C.3     1  LIG1        0.0726
     26 C          -0.0630   -4.4290    0.0000 C.2     1  LIG1        0.1762
     27 O           0.8460   -4.2290    0.0000 O.2     1  LIG1       -0.2912
     28 C          -0.3540   -5.4290    0.0000 C.3     1  LIG1        0.0774
     29 O           2.0500    0.5460    0.0000 O.2     1  LIG1       -0.1842
     30 O           0.1920    0.5460    0.0000 O.2     1  LIG1       -0.1842
@<TRIPOS>BOND
     1     1     2    1
     2     1    15    1
     3     1    29    2
     4     1    30    2
     5     2     3   ar
     6     2    14   ar
     7     3     4   ar
     8     3    11   ar
     9     4     5   ar
    10     4     8   ar
    11     5     6   ar
    12     5    13   ar
    13     6     7   ar
    14     7     8   ar
    15     7    12    2
    16     8     9   ar
    17     9    10   ar
    18    10    11   ar
    19    13    14   ar
    20    15    16    1
    21    16    17   ar
    22    16    24   ar
    23    17    18   ar
    24    18    19   ar
    25    18    22   ar
    26    19    20   ar
    27    19    26    1
    28    20    21   ar
    29    20    25    1
    30    21    22   ar
    31    22    23   ar
    32    23    24   ar
    33    26    27    2
    34    26    28    1
