@<TRIPOS>MOLECULE
31972_ChemDiv_6481-5195
 33 37 0 0 0
SMALL
GASTEIGER
Energy = 0

@<TRIPOS>ATOM
      1 N           2.7790    2.0750    0.0000 N.ar    1  LIG1       -0.2541
      2 C           1.9460    1.5040    0.0000 C.ar    1  LIG1        0.1794
      3 N           1.0420    1.9420    0.0000 N.ar    1  LIG1       -0.2013
      4 C           0.9710    2.9330    0.0000 C.ar    1  LIG1        0.1916
      5 C           1.7920    3.5000    0.0000 C.ar    1  LIG1        0.1149
      6 C           2.7080    3.0790    0.0000 C.ar    1  LIG1        0.2707
      7 O           3.5210    3.6420    0.0000 O.2     1  LIG1       -0.2664
      8 C           1.5040    4.4460    0.0000 C.ar    1  LIG1        0.1301
      9 N           0.4920    4.4670    0.0000 N.ar    1  LIG1       -0.1447
     10 N           0.1710    3.5330    0.0000 N.ar    1  LIG1       -0.1282
     11 S           2.0250    0.5170    0.0000 S.3     1  LIG1       -0.0670
     12 C           1.5670   -0.3750    0.0000 C.3     1  LIG1        0.1520
     13 C           0.5540   -0.4080    0.0000 C.2     1  LIG1        0.2595
     14 N           0.0880   -1.2790    0.0000 N.am    1  LIG1       -0.1420
     15 C          -0.9290   -1.3170    0.0000 C.ar    1  LIG1        0.2503
     16 N          -1.4880   -2.1420    0.0000 N.ar    1  LIG1       -0.2036
     17 C          -2.4420   -1.8580    0.0000 C.ar    1  LIG1        0.1312
     18 S          -2.4750   -0.8710    0.0000 S.2     1  LIG1        0.0355
     19 N          -1.5330   -0.5290    0.0000 N.ar    1  LIG1       -0.1728
     20 C          -3.2040   -2.5040    0.0000 C.ar    1  LIG1        0.0254
     21 C          -4.1540   -2.1790    0.0000 C.ar    1  LIG1        0.0029
     22 C          -4.8960   -2.8250    0.0000 C.ar    1  LIG1        0.0115
     23 C          -4.7210   -3.8130    0.0000 C.ar    1  LIG1        0.0577
     24 C          -3.7710   -4.1420    0.0000 C.ar    1  LIG1        0.0115
     25 C          -3.0170   -3.4960    0.0000 C.ar    1  LIG1        0.0029
     26 CL         -5.4960   -4.4670    0.0000 Cl      1  LIG1       -0.0822
     27 O           0.0290    0.4380    0.0000 O.2     1  LIG1       -0.2719
     28 C           3.6830    1.6540    0.0000 C.ar    1  LIG1        0.0687
     29 C           4.4920    2.2130    0.0000 C.ar    1  LIG1        0.0177
     30 C           5.4000    1.8000    0.0000 C.ar    1  LIG1        0.0015
     31 C           5.4920    0.8040    0.0000 C.ar    1  LIG1        0.0001
     32 C           4.6670    0.2210    0.0000 C.ar    1  LIG1        0.0015
     33 C           3.7580    0.6580    0.0000 C.ar    1  LIG1        0.0177
@<TRIPOS>BOND
     1     1     2   ar
     2     1     6   ar
     3     1    28    1
     4     2     3   ar
     5     2    11    1
     6     3     4   ar
     7     4     5   ar
     8     4    10   ar
     9     5     6   ar
    10     5     8   ar
    11     6     7    2
    12     8     9   ar
    13     9    10   ar
    14    11    12    1
    15    12    13    1
    16    13    14   am
    17    13    27    2
    18    14    15    1
    19    15    16   ar
    20    15    19   ar
    21    16    17   ar
    22    17    18   ar
    23    17    20    1
    24    18    19   ar
    25    20    21   ar
    26    20    25   ar
    27    21    22   ar
    28    22    23   ar
    29    23    24   ar
    30    23    26    1
    31    24    25   ar
    32    28    29   ar
    33    28    33   ar
    34    29    30   ar
    35    30    31   ar
    36    31    32   ar
    37    32    33   ar
