@<TRIPOS>MOLECULE
31974_ChemDiv_6574-0201
 27 29 0 0 0
SMALL
GASTEIGER
Energy = 0

@<TRIPOS>ATOM
      1 S          -0.6920   -2.1960    0.0000 S.O2    1  LIG1        0.0770
      2 C          -1.2460   -3.0380    0.0000 C.ar    1  LIG1        0.1193
      3 C          -2.2420   -2.9830    0.0000 C.ar    1  LIG1       -0.0032
      4 C          -2.8000   -3.8210    0.0000 C.ar    1  LIG1       -0.0033
      5 C          -2.3500   -4.7130    0.0000 C.ar    1  LIG1       -0.0045
      6 C          -1.3420   -4.7710    0.0000 C.ar    1  LIG1       -0.0205
      7 C          -0.7960   -3.9290    0.0000 C.ar    1  LIG1        0.0154
      8 C          -0.8920   -5.6880    0.0000 C.3     1  LIG1        0.0311
      9 C          -2.6880   -2.0500    0.0000 C.3     1  LIG1        0.0324
     10 N          -0.1380   -1.3580    0.0000 N.3     1  LIG1       -0.0678
     11 C          -0.5880   -0.4580    0.0000 C.3     1  LIG1        0.2021
     12 C          -0.0460    0.3830    0.0000 C.2     1  LIG1        0.2678
     13 N           0.9630    0.3210    0.0000 N.am    1  LIG1       -0.1414
     14 C           1.5130    1.1630    0.0000 C.ar    1  LIG1        0.2503
     15 N           1.1580    2.0960    0.0000 N.ar    1  LIG1       -0.2036
     16 C           1.9330    2.7130    0.0000 C.ar    1  LIG1        0.1312
     17 S           2.7500    2.1630    0.0000 S.2     1  LIG1        0.0355
     18 N           2.4920    1.2080    0.0000 N.ar    1  LIG1       -0.1728
     19 C           1.9330    3.7040    0.0000 C.ar    1  LIG1        0.0253
     20 C           2.7960    4.2000    0.0000 C.ar    1  LIG1        0.0021
     21 C           2.7960    5.1960    0.0000 C.ar    1  LIG1        0.0001
     22 C           1.9330    5.6880    0.0000 C.ar    1  LIG1        0.0000
     23 C           1.0790    5.1960    0.0000 C.ar    1  LIG1        0.0001
     24 C           1.0790    4.2000    0.0000 C.ar    1  LIG1        0.0021
     25 O          -0.4960    1.2750    0.0000 O.2     1  LIG1       -0.2713
     26 O          -1.5330   -1.6420    0.0000 O.2     1  LIG1       -0.1516
     27 O           0.1460   -2.7420    0.0000 O.2     1  LIG1       -0.1516
@<TRIPOS>BOND
     1     1     2    1
     2     1    10    1
     3     1    26    2
     4     1    27    2
     5     2     3   ar
     6     2     7   ar
     7     3     4   ar
     8     3     9    1
     9     4     5   ar
    10     5     6   ar
    11     6     7   ar
    12     6     8    1
    13    10    11    1
    14    11    12    1
    15    12    13   am
    16    12    25    2
    17    13    14    1
    18    14    15   ar
    19    14    18   ar
    20    15    16   ar
    21    16    17   ar
    22    16    19    1
    23    17    18   ar
    24    19    20   ar
    25    19    24   ar
    26    20    21   ar
    27    21    22   ar
    28    22    23   ar
    29    23    24   ar
