@<TRIPOS>MOLECULE
31976_ChemDiv_6574-0240
 21 23 0 0 0
SMALL
GASTEIGER
Energy = 0

@<TRIPOS>ATOM
      1 N           0.8630    0.8290    0.0000 N.ar    1  LIG1       -0.2036
      2 C           0.1210    0.1670    0.0000 C.ar    1  LIG1        0.2505
      3 N           0.1210   -0.8330    0.0000 N.am    1  LIG1       -0.1389
      4 C          -0.7460   -1.3330    0.0000 C.2     1  LIG1        0.2712
      5 C          -0.7460   -2.3210    0.0000 C.ar    1  LIG1        0.0515
      6 C          -1.6130   -2.8250    0.0000 C.ar    1  LIG1       -0.0174
      7 C          -2.4710   -2.3290    0.0000 C.3     1  LIG1        0.0312
      8 C          -1.6130   -3.8330    0.0000 C.ar    1  LIG1       -0.0041
      9 C          -0.7460   -4.3290    0.0000 C.ar    1  LIG1       -0.0003
     10 C           0.1210   -3.8330    0.0000 C.ar    1  LIG1        0.0001
     11 C           0.1210   -2.8250    0.0000 C.ar    1  LIG1        0.0043
     12 O          -1.6130   -0.8330    0.0000 O.2     1  LIG1       -0.2679
     13 N          -0.7460    0.6630    0.0000 N.ar    1  LIG1       -0.1728
     14 S          -0.5380    1.6330    0.0000 S.2     1  LIG1        0.0355
     15 C           0.4500    1.7380    0.0000 C.ar    1  LIG1        0.1312
     16 C           0.9500    2.6040    0.0000 C.ar    1  LIG1        0.0253
     17 C           0.4500    3.4670    0.0000 C.ar    1  LIG1        0.0021
     18 C           0.9580    4.3290    0.0000 C.ar    1  LIG1        0.0001
     19 C           1.9710    4.3290    0.0000 C.ar    1  LIG1        0.0000
     20 C           2.4670    3.4670    0.0000 C.ar    1  LIG1        0.0001
     21 C           1.9630    2.6040    0.0000 C.ar    1  LIG1        0.0021
@<TRIPOS>BOND
     1     1     2   ar
     2     1    15   ar
     3     2     3    1
     4     2    13   ar
     5     3     4   am
     6     4     5    1
     7     4    12    2
     8     5     6   ar
     9     5    11   ar
    10     6     7    1
    11     6     8   ar
    12     8     9   ar
    13     9    10   ar
    14    10    11   ar
    15    13    14   ar
    16    14    15   ar
    17    15    16    1
    18    16    17   ar
    19    16    21   ar
    20    17    18   ar
    21    18    19   ar
    22    19    20   ar
    23    20    21   ar
