@<TRIPOS>MOLECULE
31978_ChemDiv_6574-0252
 23 26 0 0 0
SMALL
GASTEIGER
Energy = 0

@<TRIPOS>ATOM
      1 N           1.6130    0.0170    0.0000 N.ar    1  LIG1       -0.2036
      2 C           0.6710    0.3250    0.0000 C.ar    1  LIG1        0.2505
      3 N          -0.2040   -0.1790    0.0000 N.am    1  LIG1       -0.1389
      4 C          -1.0710    0.3210    0.0000 C.2     1  LIG1        0.2715
      5 C          -1.9250   -0.1790    0.0000 C.ar    1  LIG1        0.0561
      6 C          -2.7920    0.3210    0.0000 C.ar    1  LIG1        0.0126
      7 C          -3.6540   -0.1790    0.0000 C.ar    1  LIG1        0.0487
      8 S          -4.6080    0.1290    0.0000 S.2     1  LIG1       -0.0645
      9 C          -5.2000   -0.6750    0.0000 C.ar    1  LIG1        0.1345
     10 N          -4.6080   -1.4960    0.0000 N.ar    1  LIG1       -0.2363
     11 C          -3.6540   -1.1830    0.0000 C.ar    1  LIG1        0.0879
     12 C          -2.7920   -1.6880    0.0000 C.ar    1  LIG1        0.0198
     13 C          -1.9250   -1.1830    0.0000 C.ar    1  LIG1        0.0062
     14 O          -1.0710    1.3210    0.0000 O.2     1  LIG1       -0.2679
     15 N           0.6710    1.3250    0.0000 N.ar    1  LIG1       -0.1728
     16 S           1.6130    1.6380    0.0000 S.2     1  LIG1        0.0355
     17 C           2.2000    0.8250    0.0000 C.ar    1  LIG1        0.1312
     18 C           3.1960    0.8250    0.0000 C.ar    1  LIG1        0.0253
     19 C           3.7000    1.6920    0.0000 C.ar    1  LIG1        0.0021
     20 C           4.7000    1.6920    0.0000 C.ar    1  LIG1        0.0001
     21 C           5.1960    0.8210    0.0000 C.ar    1  LIG1        0.0000
     22 C           4.7000   -0.0420    0.0000 C.ar    1  LIG1        0.0001
     23 C           3.7000   -0.0420    0.0000 C.ar    1  LIG1        0.0021
@<TRIPOS>BOND
     1     1     2   ar
     2     1    17   ar
     3     2     3    1
     4     2    15   ar
     5     3     4   am
     6     4     5    1
     7     4    14    2
     8     5     6   ar
     9     5    13   ar
    10     6     7   ar
    11     7     8   ar
    12     7    11   ar
    13     8     9   ar
    14     9    10   ar
    15    10    11   ar
    16    11    12   ar
    17    12    13   ar
    18    15    16   ar
    19    16    17   ar
    20    17    18    1
    21    18    19   ar
    22    18    23   ar
    23    19    20   ar
    24    20    21   ar
    25    21    22   ar
    26    22    23   ar
