@<TRIPOS>MOLECULE
31986_ChemDiv_5735-0005
 21 24 0 0 0
SMALL
GASTEIGER
Energy = 0

@<TRIPOS>ATOM
      1 C          -1.3210    0.8920    0.0000 C.ar    1  LIG1        0.1134
      2 C          -1.3210    1.7830    0.0000 C.ar    1  LIG1        0.0398
      3 C           0.2460    1.7830    0.0000 C.ar    1  LIG1        0.0145
      4 C           0.2460    0.8920    0.0000 C.ar    1  LIG1        0.0860
      5 S          -0.5330    0.4420    0.0000 S.2     1  LIG1       -0.0632
      6 C           1.1210    0.4040    0.0000 C.ar    1  LIG1        0.2564
      7 O           1.9290    0.8920    0.0000 O.2     1  LIG1       -0.4099
      8 C           2.7790    0.4040    0.0000 C.ar    1  LIG1        0.2886
      9 N           2.7790   -0.5710    0.0000 N.ar    1  LIG1       -0.0998
     10 N           1.1210   -0.5710    0.0000 N.ar    1  LIG1       -0.1059
     11 S           3.6380    0.8630    0.0000 S.2     1  LIG1        0.0128
     12 C          -2.8750    1.7830    0.0000 C.ar    1  LIG1        0.0813
     13 N          -2.8750    0.8920    0.0000 N.ar    1  LIG1       -0.1690
     14 N          -2.0960    0.4420    0.0000 N.ar    1  LIG1       -0.2239
     15 C          -2.0960   -0.4170    0.0000 C.ar    1  LIG1        0.0833
     16 C          -1.3420   -0.8420    0.0000 C.ar    1  LIG1        0.0192
     17 C          -1.3420   -1.7630    0.0000 C.ar    1  LIG1        0.0015
     18 C          -2.0960   -2.2040    0.0000 C.ar    1  LIG1        0.0001
     19 C          -2.8750   -1.7630    0.0000 C.ar    1  LIG1        0.0015
     20 C          -2.8750   -0.8420    0.0000 C.ar    1  LIG1        0.0192
     21 C          -3.6420    2.2080    0.0000 C.3     1  LIG1        0.0540
@<TRIPOS>BOND
     1     1     2   ar
     2     1     5   ar
     3     1    14   ar
     4     2     3   ar
     5     2    12   ar
     6     3     4   ar
     7     4     5   ar
     8     4     6    1
     9     6     7   ar
    10     6    10   ar
    11     7     8   ar
    12     8     9   ar
    13     8    11    2
    14     9    10   ar
    15    12    13   ar
    16    12    21    1
    17    13    14   ar
    18    14    15    1
    19    15    16   ar
    20    15    20   ar
    21    16    17   ar
    22    17    18   ar
    23    18    19   ar
    24    19    20   ar
