@<TRIPOS>MOLECULE
31982_ChemDiv_6850-0220
 28 31 0 0 0
SMALL
GASTEIGER
Energy = 0

@<TRIPOS>ATOM
      1 N           1.7500    0.9040    0.0000 N.ar    1  LIG1       -0.2036
      2 C           2.1830    1.8000    0.0000 C.ar    1  LIG1        0.2503
      3 N           3.1830    1.6500    0.0000 N.ar    1  LIG1       -0.1728
      4 S           3.3380    0.6580    0.0000 S.2     1  LIG1        0.0355
      5 C           2.4710    0.2080    0.0000 C.ar    1  LIG1        0.1312
      6 C           2.4290   -0.8040    0.0000 C.ar    1  LIG1        0.0253
      7 C           3.2750   -1.3330    0.0000 C.ar    1  LIG1        0.0017
      8 C           3.2460   -2.3330    0.0000 C.ar    1  LIG1       -0.0042
      9 C           2.3670   -2.8080    0.0000 C.ar    1  LIG1       -0.0218
     10 C           1.5040   -2.2710    0.0000 C.ar    1  LIG1       -0.0042
     11 C           1.5460   -1.2710    0.0000 C.ar    1  LIG1        0.0017
     12 C           2.3460   -3.8080    0.0000 C.3     1  LIG1        0.0310
     13 N           1.8250    2.7290    0.0000 N.am    1  LIG1       -0.1420
     14 C           0.8380    2.8920    0.0000 C.2     1  LIG1        0.2595
     15 O           0.4710    3.8130    0.0000 O.2     1  LIG1       -0.2719
     16 C           0.2130    2.1080    0.0000 C.3     1  LIG1        0.1505
     17 S           0.5790    1.1790    0.0000 S.3     1  LIG1       -0.0850
     18 C          -0.0540    0.3880    0.0000 C.ar    1  LIG1        0.1105
     19 C          -1.0460    0.5420    0.0000 C.ar    1  LIG1        0.0436
     20 C          -1.6670   -0.2330    0.0000 C.ar    1  LIG1        0.1138
     21 S          -2.6000    0.1170    0.0000 S.2     1  LIG1       -0.0726
     22 C          -2.5540    1.1170    0.0000 C.ar    1  LIG1        0.0052
     23 C          -1.6000    1.3710    0.0000 C.ar    1  LIG1       -0.0159
     24 C          -1.2500    2.3170    0.0000 C.3     1  LIG1        0.0314
     25 C          -3.3420    1.7380    0.0000 C.3     1  LIG1        0.0379
     26 N          -1.3040   -1.1630    0.0000 N.ar    1  LIG1       -0.2173
     27 C          -0.3130   -1.3170    0.0000 C.ar    1  LIG1        0.1998
     28 N           0.3080   -0.5330    0.0000 N.ar    1  LIG1       -0.2176
@<TRIPOS>BOND
     1     1     2   ar
     2     1     5   ar
     3     2     3   ar
     4     2    13    1
     5     3     4   ar
     6     4     5   ar
     7     5     6    1
     8     6     7   ar
     9     6    11   ar
    10     7     8   ar
    11     8     9   ar
    12     9    10   ar
    13     9    12    1
    14    10    11   ar
    15    13    14   am
    16    14    15    2
    17    14    16    1
    18    16    17    1
    19    17    18    1
    20    18    19   ar
    21    18    28   ar
    22    19    20   ar
    23    19    23   ar
    24    20    21   ar
    25    20    26   ar
    26    21    22   ar
    27    22    23   ar
    28    22    25    1
    29    23    24    1
    30    26    27   ar
    31    27    28   ar
