@<TRIPOS>MOLECULE
31987_ChemDiv_6384-2830
 33 37 0 0 0
SMALL
GASTEIGER
Energy = 0

@<TRIPOS>ATOM
      1 N          -2.2790   -2.5920    0.0000 N.ar    1  LIG1       -0.1896
      2 C          -2.8580   -1.7750    0.0000 C.ar    1  LIG1        0.2033
      3 N          -2.2540   -0.9710    0.0000 N.ar    1  LIG1       -0.0560
      4 O          -1.3080   -1.3000    0.0000 O.2     1  LIG1       -0.3356
      5 C          -1.3290   -2.3000    0.0000 C.ar    1  LIG1        0.2529
      6 C          -0.5250   -2.9000    0.0000 C.3     1  LIG1        0.1617
      7 N           0.3960   -2.5080    0.0000 N.3     1  LIG1       -0.2548
      8 C           0.5080   -1.5170    0.0000 C.3     1  LIG1        0.1345
      9 C           1.4380   -1.1290    0.0000 C.3     1  LIG1        0.1270
     10 N           2.2380   -1.7330    0.0000 N.4     1  LIG1        0.3108
     11 C           3.1000   -2.2330    0.0000 C.3     1  LIG1        0.1979
     12 C           3.9630   -1.7330    0.0000 C.ar    1  LIG1        0.2927
     13 N           4.0630   -0.7420    0.0000 N.ar    1  LIG1       -0.1858
     14 C           5.0420   -0.5330    0.0000 C.ar    1  LIG1        0.2035
     15 N           5.5420   -1.4000    0.0000 N.ar    1  LIG1       -0.0558
     16 O           4.8710   -2.1420    0.0000 O.2     1  LIG1       -0.3309
     17 C           5.4460    0.3750    0.0000 C.ar    1  LIG1        0.0391
     18 C           6.4460    0.4830    0.0000 C.ar    1  LIG1        0.0028
     19 C           6.8500    1.3920    0.0000 C.ar    1  LIG1       -0.0042
     20 C           6.2670    2.2040    0.0000 C.ar    1  LIG1       -0.0218
     21 C           5.2670    2.0920    0.0000 C.ar    1  LIG1       -0.0042
     22 C           4.8630    1.1830    0.0000 C.ar    1  LIG1        0.0028
     23 C           6.6710    3.1170    0.0000 C.3     1  LIG1        0.0310
     24 C           2.1130   -2.7250    0.0000 C.3     1  LIG1        0.1270
     25 C           1.1920   -3.1130    0.0000 C.3     1  LIG1        0.1345
     26 C           2.4960   -0.7670    0.0000 C.3     1  LIG1        0.1711
     27 C          -3.8500   -1.7500    0.0000 C.ar    1  LIG1        0.0391
     28 C          -4.3420   -0.8710    0.0000 C.ar    1  LIG1        0.0028
     29 C          -5.3420   -0.8630    0.0000 C.ar    1  LIG1       -0.0042
     30 C          -5.8540   -1.7130    0.0000 C.ar    1  LIG1       -0.0218
     31 C          -5.3710   -2.5920    0.0000 C.ar    1  LIG1       -0.0042
     32 C          -4.3710   -2.6080    0.0000 C.ar    1  LIG1        0.0028
     33 C          -6.8500   -1.6960    0.0000 C.3     1  LIG1        0.0310
@<TRIPOS>BOND
     1     1     2   ar
     2     1     5   ar
     3     2     3   ar
     4     2    27    1
     5     3     4   ar
     6     4     5   ar
     7     5     6    1
     8     6     7    1
     9     7     8    1
    10     7    25    1
    11     8     9    1
    12     9    10    1
    13    10    11    1
    14    10    24    1
    15    10    26    1
    16    11    12    1
    17    12    13   ar
    18    12    16   ar
    19    13    14   ar
    20    14    15   ar
    21    14    17    1
    22    15    16   ar
    23    17    18   ar
    24    17    22   ar
    25    18    19   ar
    26    19    20   ar
    27    20    21   ar
    28    20    23    1
    29    21    22   ar
    30    24    25    1
    31    27    28   ar
    32    27    32   ar
    33    28    29   ar
    34    29    30   ar
    35    30    31   ar
    36    30    33    1
    37    31    32   ar
