@<TRIPOS>MOLECULE
31980_ChemDiv_6574-0258
 22 24 0 0 0
SMALL
GASTEIGER
Energy = 0

@<TRIPOS>ATOM
      1 N          -0.0960   -0.3130    0.0000 N.ar    1  LIG1       -0.2036
      2 C          -0.8540    0.3540    0.0000 C.ar    1  LIG1        0.2505
      3 N          -0.8670    1.3540    0.0000 N.am    1  LIG1       -0.1388
      4 C          -0.0130    1.8710    0.0000 C.2     1  LIG1        0.2737
      5 C          -0.0290    2.8580    0.0000 C.ar    1  LIG1        0.0829
      6 C           0.8290    3.3710    0.0000 C.ar    1  LIG1        0.1445
      7 F           1.7080    2.8790    0.0000 F       1  LIG1       -0.2040
      8 C           0.8170    4.3670    0.0000 C.ar    1  LIG1        0.0298
      9 C          -0.0580    4.8540    0.0000 C.ar    1  LIG1        0.0023
     10 C          -0.9130    4.3460    0.0000 C.ar    1  LIG1        0.0003
     11 C          -0.8960    3.3420    0.0000 C.ar    1  LIG1        0.0068
     12 O           0.8630    1.3880    0.0000 O.2     1  LIG1       -0.2678
     13 N          -1.7130   -0.1500    0.0000 N.ar    1  LIG1       -0.1728
     14 S          -1.4880   -1.1330    0.0000 S.2     1  LIG1        0.0355
     15 C          -0.4920   -1.2250    0.0000 C.ar    1  LIG1        0.1312
     16 C          -0.0630   -2.1330    0.0000 C.ar    1  LIG1        0.0254
     17 C          -0.6380   -2.9500    0.0000 C.ar    1  LIG1        0.0029
     18 C          -0.2170   -3.8580    0.0000 C.ar    1  LIG1        0.0115
     19 C           0.7830   -3.9500    0.0000 C.ar    1  LIG1        0.0577
     20 C           1.3540   -3.1330    0.0000 C.ar    1  LIG1        0.0115
     21 C           0.9330   -2.2250    0.0000 C.ar    1  LIG1        0.0029
     22 CL          1.1960   -4.8540    0.0000 Cl      1  LIG1       -0.0822
@<TRIPOS>BOND
     1     1     2   ar
     2     1    15   ar
     3     2     3    1
     4     2    13   ar
     5     3     4   am
     6     4     5    1
     7     4    12    2
     8     5     6   ar
     9     5    11   ar
    10     6     7    1
    11     6     8   ar
    12     8     9   ar
    13     9    10   ar
    14    10    11   ar
    15    13    14   ar
    16    14    15   ar
    17    15    16    1
    18    16    17   ar
    19    16    21   ar
    20    17    18   ar
    21    18    19   ar
    22    19    20   ar
    23    19    22    1
    24    20    21   ar
