@<TRIPOS>MOLECULE
31988_ChemDiv_5737-0002
 27 30 0 0 0
SMALL
GASTEIGER
Energy = 0

@<TRIPOS>ATOM
      1 C           0.2040    1.7790    0.0000 C.ar    1  LIG1        0.1103
      2 N          -0.3790    0.9790    0.0000 N.ar    1  LIG1       -0.3212
      3 C          -1.3250    1.2920    0.0000 C.ar    1  LIG1        0.0597
      4 C          -1.3250    2.2920    0.0000 C.ar    1  LIG1        0.0134
      5 C          -0.3960    2.6000    0.0000 C.ar    1  LIG1        0.0012
      6 C           0.0250    3.5330    0.0000 C.3     1  LIG1        0.0495
      7 C           1.0380    3.6380    0.0000 C.3     1  LIG1        0.0985
      8 N           1.6330    2.8080    0.0000 N.am    1  LIG1       -0.2728
      9 C           1.2080    1.8960    0.0000 C.2     1  LIG1        0.2647
     10 O           1.7830    1.0830    0.0000 O.2     1  LIG1       -0.2683
     11 C           2.6250    2.9130    0.0000 C.3     1  LIG1        0.1152
     12 C          -2.1830    2.7830    0.0000 C.ar    1  LIG1        0.0012
     13 C          -3.0580    2.2920    0.0000 C.ar    1  LIG1        0.0001
     14 C          -3.0580    1.2920    0.0000 C.ar    1  LIG1        0.0015
     15 C          -2.1830    0.8000    0.0000 C.ar    1  LIG1        0.0172
     16 C          -0.0630    0.0380    0.0000 C.3     1  LIG1        0.1410
     17 C          -0.7290   -0.7130    0.0000 C.3     1  LIG1        0.1986
     18 C          -0.4250   -1.6420    0.0000 C.3     1  LIG1        0.1618
     19 N           0.5540   -1.8540    0.0000 N.ar    1  LIG1       -0.2520
     20 N           1.2790   -1.1880    0.0000 N.ar    1  LIG1       -0.1734
     21 C           2.1460   -1.6830    0.0000 C.ar    1  LIG1        0.0862
     22 C           1.9460   -2.6670    0.0000 C.ar    1  LIG1        0.0629
     23 C           0.9500   -2.7630    0.0000 C.ar    1  LIG1        0.0634
     24 C           0.4460   -3.6330    0.0000 C.3     1  LIG1        0.0523
     25 BR          2.6130   -3.4000    0.0000 Br      1  LIG1       -0.0465
     26 C           3.0540   -1.2790    0.0000 C.3     1  LIG1        0.0545
     27 O          -1.7130   -0.4920    0.0000 O.3     1  LIG1       -0.2189
@<TRIPOS>BOND
     1     1     2   ar
     2     1     5   ar
     3     1     9    1
     4     2     3   ar
     5     2    16    1
     6     3     4   ar
     7     3    15   ar
     8     4     5   ar
     9     4    12   ar
    10     5     6    1
    11     6     7    1
    12     7     8    1
    13     8     9   am
    14     8    11    1
    15     9    10    2
    16    12    13   ar
    17    13    14   ar
    18    14    15   ar
    19    16    17    1
    20    17    18    1
    21    17    27    1
    22    18    19    1
    23    19    20   ar
    24    19    23   ar
    25    20    21   ar
    26    21    22   ar
    27    21    26    1
    28    22    23   ar
    29    22    25    1
    30    23    24    1
