@<TRIPOS>MOLECULE
31989_ChemDiv_6384-2833
 24 26 0 0 0
SMALL
GASTEIGER
Energy = 0

@<TRIPOS>ATOM
      1 N          -1.7000   -0.1210    0.0000 N.ar    1  LIG1       -0.1893
      2 C          -2.2880    0.6880    0.0000 C.ar    1  LIG1        0.2033
      3 N          -1.7000    1.4960    0.0000 N.ar    1  LIG1       -0.0560
      4 O          -0.7500    1.1830    0.0000 O.2     1  LIG1       -0.3352
      5 C          -0.7500    0.1830    0.0000 C.ar    1  LIG1        0.2569
      6 C           0.0580   -0.4040    0.0000 C.3     1  LIG1        0.1824
      7 N           0.9710    0.0040    0.0000 N.am    1  LIG1       -0.2667
      8 C           1.7830   -0.5880    0.0000 C.2     1  LIG1        0.2841
      9 C           2.6960   -0.1750    0.0000 C.ar    1  LIG1        0.1993
     10 O           3.5630   -0.6790    0.0000 O.2     1  LIG1       -0.4423
     11 C           4.3040   -0.0040    0.0000 C.ar    1  LIG1        0.1793
     12 C           3.8960    0.9080    0.0000 C.ar    1  LIG1        0.0478
     13 C           2.8960    0.8040    0.0000 C.ar    1  LIG1        0.0459
     14 BR          5.2790   -0.2130    0.0000 Br      1  LIG1       -0.0078
     15 O           1.6750   -1.5830    0.0000 O.2     1  LIG1       -0.2665
     16 C           1.0790    1.0000    0.0000 C.3     1  LIG1        0.0763
     17 C           0.2630    1.5880    0.0000 C.3     1  LIG1        0.0215
     18 C           1.9920    1.4000    0.0000 C.3     1  LIG1        0.0215
     19 C          -3.2880    0.6920    0.0000 C.ar    1  LIG1        0.0391
     20 C          -3.7920   -0.1710    0.0000 C.ar    1  LIG1        0.0032
     21 C          -4.7920   -0.1710    0.0000 C.ar    1  LIG1        0.0001
     22 C          -5.2830    0.6880    0.0000 C.ar    1  LIG1        0.0000
     23 C          -4.7920    1.5540    0.0000 C.ar    1  LIG1        0.0001
     24 C          -3.7920    1.5580    0.0000 C.ar    1  LIG1        0.0032
@<TRIPOS>BOND
     1     1     2   ar
     2     1     5   ar
     3     2     3   ar
     4     2    19    1
     5     3     4   ar
     6     4     5   ar
     7     5     6    1
     8     6     7    1
     9     7     8   am
    10     7    16    1
    11     8     9    1
    12     8    15    2
    13     9    10   ar
    14     9    13   ar
    15    10    11   ar
    16    11    12   ar
    17    11    14    1
    18    12    13   ar
    19    16    17    1
    20    16    18    1
    21    19    20   ar
    22    19    24   ar
    23    20    21   ar
    24    21    22   ar
    25    22    23   ar
    26    23    24   ar
