@<TRIPOS>MOLECULE
31984_ChemDiv_6850-0237
 22 24 0 0 0
SMALL
GASTEIGER
Energy = 0

@<TRIPOS>ATOM
      1 N           1.3960    0.6710    0.0000 N.ar    1  LIG1       -0.2036
      2 C           1.8130    1.5670    0.0000 C.ar    1  LIG1        0.2503
      3 N           2.7960    1.4580    0.0000 N.ar    1  LIG1       -0.1728
      4 S           2.9880    0.4670    0.0000 S.2     1  LIG1        0.0355
      5 C           2.1170   -0.0210    0.0000 C.ar    1  LIG1        0.1312
      6 C           2.0420   -1.0130    0.0000 C.ar    1  LIG1        0.0253
      7 C           1.1420   -1.4420    0.0000 C.ar    1  LIG1        0.0017
      8 C           1.0580   -2.4420    0.0000 C.ar    1  LIG1       -0.0042
      9 C           1.8830   -3.0040    0.0000 C.ar    1  LIG1       -0.0218
     10 C           2.7880   -2.5710    0.0000 C.ar    1  LIG1       -0.0042
     11 C           2.8630   -1.5750    0.0000 C.ar    1  LIG1        0.0017
     12 C           1.7960   -4.0040    0.0000 C.3     1  LIG1        0.0310
     13 N           1.3210    2.4500    0.0000 N.am    1  LIG1       -0.1420
     14 C           0.3170    2.4500    0.0000 C.2     1  LIG1        0.2597
     15 O          -0.1710    3.3170    0.0000 O.2     1  LIG1       -0.2719
     16 C          -0.1880    1.5960    0.0000 C.3     1  LIG1        0.1569
     17 S          -1.1830    1.5960    0.0000 S.3     1  LIG1       -0.0029
     18 C          -1.6790    2.4670    0.0000 C.ar    1  LIG1        0.4805
     19 N          -2.6880    2.4670    0.0000 N.ar    1  LIG1        0.1996
     20 C          -2.9920    3.4250    0.0000 C.ar    1  LIG1        0.7669
     21 N          -2.1880    4.0040    0.0000 N.ar    1  LIG1        0.3162
     22 N          -1.3670    3.4250    0.0000 N.ar    1  LIG1        0.1669
@<TRIPOS>BOND
     1     1     2   ar
     2     1     5   ar
     3     2     3   ar
     4     2    13    1
     5     3     4   ar
     6     4     5   ar
     7     5     6    1
     8     6     7   ar
     9     6    11   ar
    10     7     8   ar
    11     8     9   ar
    12     9    10   ar
    13     9    12    1
    14    10    11   ar
    15    13    14   am
    16    14    15    2
    17    14    16    1
    18    16    17    1
    19    17    18    1
    20    18    19   ar
    21    18    22   ar
    22    19    20   ar
    23    20    21   ar
    24    21    22   ar
