@<TRIPOS>MOLECULE
31985_ChemDiv_6322-0081
 27 30 0 0 0
SMALL
GASTEIGER
Energy = 0

@<TRIPOS>ATOM
      1 N           0.0500    0.8170    0.0000 N.ar    1  LIG1       -0.1876
      2 C          -0.5080    1.6500    0.0000 C.ar    1  LIG1        0.2034
      3 N           0.1130    2.4290    0.0000 N.ar    1  LIG1       -0.0559
      4 O           1.0540    2.0710    0.0000 O.2     1  LIG1       -0.3331
      5 C           1.0080    1.0830    0.0000 C.ar    1  LIG1        0.2811
      6 C           1.7630    0.4250    0.0000 C.3     1  LIG1        0.2923
      7 O           2.7000    0.7500    0.0000 O.3     1  LIG1       -0.4654
      8 C           3.4580    0.1000    0.0000 C.ar    1  LIG1        0.1387
      9 C           3.2710   -0.8830    0.0000 C.ar    1  LIG1        0.0335
     10 C           4.0170   -1.5330    0.0000 C.ar    1  LIG1       -0.0086
     11 C           4.9710   -1.2000    0.0000 C.ar    1  LIG1        0.0499
     12 C           5.1540   -0.2170    0.0000 C.ar    1  LIG1       -0.0086
     13 C           4.3960    0.4330    0.0000 C.ar    1  LIG1        0.0335
     14 C           6.0920    0.1170    0.0000 C.3     1  LIG1        0.0320
     15 CL          5.7290   -1.8630    0.0000 Cl      1  LIG1       -0.0829
     16 C           3.8380   -2.5170    0.0000 C.3     1  LIG1        0.0320
     17 C          -1.5210    1.6500    0.0000 C.ar    1  LIG1        0.0392
     18 C          -2.0210    2.5210    0.0000 C.ar    1  LIG1        0.0046
     19 C          -3.0250    2.5210    0.0000 C.ar    1  LIG1        0.0176
     20 C          -3.5330    1.6500    0.0000 C.ar    1  LIG1        0.0641
     21 N          -4.5380    1.6500    0.0000 N.ar    1  LIG1       -0.3036
     22 C          -5.1670    0.8710    0.0000 C.ar    1  LIG1        0.0802
     23 C          -6.0920    1.2210    0.0000 C.ar    1  LIG1        0.0205
     24 C          -6.0460    2.2080    0.0000 C.ar    1  LIG1        0.0205
     25 C          -5.0920    2.4750    0.0000 C.ar    1  LIG1        0.0802
     26 C          -3.0250    0.7790    0.0000 C.ar    1  LIG1        0.0176
     27 C          -2.0210    0.7790    0.0000 C.ar    1  LIG1        0.0046
@<TRIPOS>BOND
     1     1     2   ar
     2     1     5   ar
     3     2     3   ar
     4     2    17    1
     5     3     4   ar
     6     4     5   ar
     7     5     6    1
     8     6     7    1
     9     7     8    1
    10     8     9   ar
    11     8    13   ar
    12     9    10   ar
    13    10    11   ar
    14    10    16    1
    15    11    12   ar
    16    11    15    1
    17    12    13   ar
    18    12    14    1
    19    17    18   ar
    20    17    27   ar
    21    18    19   ar
    22    19    20   ar
    23    20    21    1
    24    20    26   ar
    25    21    22   ar
    26    21    25   ar
    27    22    23   ar
    28    23    24   ar
    29    24    25   ar
    30    26    27   ar
