@<TRIPOS>MOLECULE
31995_ChemDiv_8015-6739
 24 27 0 0 0
SMALL
GASTEIGER
Energy = 0

@<TRIPOS>ATOM
      1 N           1.0040   -0.4670    0.0000 N.ar    1  LIG1       -0.1905
      2 C           0.2080    0.1210    0.0000 C.ar    1  LIG1        0.2033
      3 N           0.5290    1.0330    0.0000 N.ar    1  LIG1       -0.0560
      4 O           1.5210    1.0330    0.0000 O.2     1  LIG1       -0.3367
      5 C           1.8210    0.1080    0.0000 C.ar    1  LIG1        0.2411
      6 C           2.7830   -0.1170    0.0000 C.3     1  LIG1        0.1165
      7 C           3.4830    0.5880    0.0000 C.ar    1  LIG1        0.0147
      8 C           4.4960    0.3880    0.0000 C.ar    1  LIG1        0.1366
      9 F           4.8210   -0.5500    0.0000 F       1  LIG1       -0.2045
     10 C           5.1710    1.1580    0.0000 C.ar    1  LIG1        0.0293
     11 C           4.8580    2.0830    0.0000 C.ar    1  LIG1        0.0023
     12 C           3.8580    2.2830    0.0000 C.ar    1  LIG1       -0.0002
     13 C           3.1830    1.5710    0.0000 C.ar    1  LIG1       -0.0016
     14 C          -0.7460   -0.2170    0.0000 C.ar    1  LIG1        0.0392
     15 C          -0.9210   -1.1880    0.0000 C.ar    1  LIG1        0.0046
     16 C          -1.8710   -1.5170    0.0000 C.ar    1  LIG1        0.0176
     17 C          -2.6330   -0.8540    0.0000 C.ar    1  LIG1        0.0641
     18 N          -3.5630   -1.2130    0.0000 N.ar    1  LIG1       -0.3036
     19 C          -4.4460   -0.7040    0.0000 C.ar    1  LIG1        0.0802
     20 C          -5.1750   -1.3920    0.0000 C.ar    1  LIG1        0.0205
     21 C          -4.7960   -2.2790    0.0000 C.ar    1  LIG1        0.0205
     22 C          -3.8000   -2.1920    0.0000 C.ar    1  LIG1        0.0802
     23 C          -2.4630    0.1380    0.0000 C.ar    1  LIG1        0.0176
     24 C          -1.5000    0.4580    0.0000 C.ar    1  LIG1        0.0046
@<TRIPOS>BOND
     1     1     2   ar
     2     1     5   ar
     3     2     3   ar
     4     2    14    1
     5     3     4   ar
     6     4     5   ar
     7     5     6    1
     8     6     7    1
     9     7     8   ar
    10     7    13   ar
    11     8     9    1
    12     8    10   ar
    13    10    11   ar
    14    11    12   ar
    15    12    13   ar
    16    14    15   ar
    17    14    24   ar
    18    15    16   ar
    19    16    17   ar
    20    17    18    1
    21    17    23   ar
    22    18    19   ar
    23    18    22   ar
    24    19    20   ar
    25    20    21   ar
    26    21    22   ar
    27    23    24   ar
