@<TRIPOS>MOLECULE
31992_ChemDiv_5737-0012
 24 26 0 0 0
SMALL
GASTEIGER
Energy = 0

@<TRIPOS>ATOM
      1 C           0.4130    1.4750    0.0000 C.ar    1  LIG1        0.1103
      2 N          -0.1580    0.6710    0.0000 N.ar    1  LIG1       -0.3210
      3 C          -1.1170    0.9880    0.0000 C.ar    1  LIG1        0.0598
      4 C          -1.1170    1.9830    0.0000 C.ar    1  LIG1        0.0134
      5 C          -0.1880    2.3000    0.0000 C.ar    1  LIG1        0.0012
      6 C           0.2290    3.2250    0.0000 C.3     1  LIG1        0.0495
      7 C           1.2420    3.3290    0.0000 C.3     1  LIG1        0.0985
      8 N           1.8380    2.5000    0.0000 N.am    1  LIG1       -0.2728
      9 C           1.4130    1.5790    0.0000 C.2     1  LIG1        0.2647
     10 O           2.0040    0.7750    0.0000 O.2     1  LIG1       -0.2683
     11 C           2.8290    2.6000    0.0000 C.3     1  LIG1        0.1152
     12 C          -1.9710    2.4790    0.0000 C.ar    1  LIG1        0.0012
     13 C          -2.8330    1.9830    0.0000 C.ar    1  LIG1        0.0001
     14 C          -2.8330    0.9880    0.0000 C.ar    1  LIG1        0.0015
     15 C          -1.9710    0.4920    0.0000 C.ar    1  LIG1        0.0172
     16 C           0.1460   -0.2710    0.0000 C.3     1  LIG1        0.1451
     17 C          -0.5210   -1.0210    0.0000 C.3     1  LIG1        0.2306
     18 C          -0.2170   -1.9630    0.0000 C.3     1  LIG1        0.1739
     19 N           0.7580   -2.1710    0.0000 N.4     1  LIG1        0.3793
     20 C           1.4210   -1.4290    0.0000 C.3     1  LIG1        0.1389
     21 C           2.4040   -1.6460    0.0000 C.3     1  LIG1        0.0688
     22 C           1.0750   -3.1170    0.0000 C.3     1  LIG1        0.1389
     23 C           2.0420   -3.3250    0.0000 C.3     1  LIG1        0.0688
     24 O          -1.5040   -0.8000    0.0000 O.3     1  LIG1       -0.2146
@<TRIPOS>BOND
     1     1     2   ar
     2     1     5   ar
     3     1     9    1
     4     2     3   ar
     5     2    16    1
     6     3     4   ar
     7     3    15   ar
     8     4     5   ar
     9     4    12   ar
    10     5     6    1
    11     6     7    1
    12     7     8    1
    13     8     9   am
    14     8    11    1
    15     9    10    2
    16    12    13   ar
    17    13    14   ar
    18    14    15   ar
    19    16    17    1
    20    17    18    1
    21    17    24    1
    22    18    19    1
    23    19    20    1
    24    19    22    1
    25    20    21    1
    26    22    23    1
