@<TRIPOS>MOLECULE
31996_ChemDiv_5737-0015
 24 27 0 0 0
SMALL
GASTEIGER
Energy = 0

@<TRIPOS>ATOM
      1 C           0.4250    1.3580    0.0000 C.ar    1  LIG1        0.1103
      2 N          -0.1580    0.5540    0.0000 N.ar    1  LIG1       -0.3210
      3 C          -1.1040    0.8630    0.0000 C.ar    1  LIG1        0.0598
      4 C          -1.1040    1.8710    0.0000 C.ar    1  LIG1        0.0134
      5 C          -0.1750    2.1710    0.0000 C.ar    1  LIG1        0.0012
      6 C           0.2460    3.1000    0.0000 C.3     1  LIG1        0.0495
      7 C           1.2500    3.2000    0.0000 C.3     1  LIG1        0.0985
      8 N           1.8420    2.3920    0.0000 N.am    1  LIG1       -0.2728
      9 C           1.4290    1.4630    0.0000 C.2     1  LIG1        0.2647
     10 O           2.0080    0.6580    0.0000 O.2     1  LIG1       -0.2683
     11 C           2.8330    2.4920    0.0000 C.3     1  LIG1        0.1152
     12 C          -1.9580    2.3540    0.0000 C.ar    1  LIG1        0.0012
     13 C          -2.8380    1.8540    0.0000 C.ar    1  LIG1        0.0001
     14 C          -2.8380    0.8630    0.0000 C.ar    1  LIG1        0.0015
     15 C          -1.9580    0.3710    0.0000 C.ar    1  LIG1        0.0172
     16 C           0.1580   -0.3880    0.0000 C.3     1  LIG1        0.1451
     17 C          -0.5210   -1.1250    0.0000 C.3     1  LIG1        0.2306
     18 C          -0.2040   -2.0830    0.0000 C.3     1  LIG1        0.1739
     19 N           0.7670   -2.2880    0.0000 N.4     1  LIG1        0.3793
     20 C           1.1580   -3.1960    0.0000 C.3     1  LIG1        0.1389
     21 C           2.1670   -3.0960    0.0000 C.3     1  LIG1        0.0688
     22 C           2.3710   -2.1130    0.0000 C.3     1  LIG1        0.0688
     23 C           1.5040   -1.6210    0.0000 C.3     1  LIG1        0.1389
     24 O          -1.4920   -0.9170    0.0000 O.3     1  LIG1       -0.2146
@<TRIPOS>BOND
     1     1     2   ar
     2     1     5   ar
     3     1     9    1
     4     2     3   ar
     5     2    16    1
     6     3     4   ar
     7     3    15   ar
     8     4     5   ar
     9     4    12   ar
    10     5     6    1
    11     6     7    1
    12     7     8    1
    13     8     9   am
    14     8    11    1
    15     9    10    2
    16    12    13   ar
    17    13    14   ar
    18    14    15   ar
    19    16    17    1
    20    17    18    1
    21    17    24    1
    22    18    19    1
    23    19    20    1
    24    19    23    1
    25    20    21    1
    26    21    22    1
    27    22    23    1
