@<TRIPOS>MOLECULE
31990_ChemDiv_5737-0003
 25 28 0 0 0
SMALL
GASTEIGER
Energy = 0

@<TRIPOS>ATOM
      1 C           0.4210    1.4750    0.0000 C.ar    1  LIG1        0.1103
      2 N          -0.1580    0.6830    0.0000 N.ar    1  LIG1       -0.3210
      3 C          -1.1080    0.9880    0.0000 C.ar    1  LIG1        0.0598
      4 C          -1.1080    1.9830    0.0000 C.ar    1  LIG1        0.0134
      5 C          -0.1670    2.3040    0.0000 C.ar    1  LIG1        0.0012
      6 C           0.2420    3.2250    0.0000 C.3     1  LIG1        0.0495
      7 C           1.2500    3.3330    0.0000 C.3     1  LIG1        0.0985
      8 N           1.8380    2.5040    0.0000 N.am    1  LIG1       -0.2728
      9 C           1.4290    1.5750    0.0000 C.2     1  LIG1        0.2647
     10 O           2.0130    0.7630    0.0000 O.2     1  LIG1       -0.2683
     11 C           2.8290    2.6040    0.0000 C.3     1  LIG1        0.1152
     12 C          -1.9750    2.4830    0.0000 C.ar    1  LIG1        0.0012
     13 C          -2.8330    1.9830    0.0000 C.ar    1  LIG1        0.0001
     14 C          -2.8330    0.9880    0.0000 C.ar    1  LIG1        0.0015
     15 C          -1.9580    0.4880    0.0000 C.ar    1  LIG1        0.0172
     16 C           0.1460   -0.2790    0.0000 C.3     1  LIG1        0.1451
     17 C          -0.5210   -1.0080    0.0000 C.3     1  LIG1        0.2306
     18 C          -0.2040   -1.9630    0.0000 C.3     1  LIG1        0.1739
     19 N           0.7630   -2.1630    0.0000 N.4     1  LIG1        0.3793
     20 C           1.0670   -3.1250    0.0000 C.3     1  LIG1        0.1387
     21 C           2.0380   -3.3290    0.0000 C.3     1  LIG1        0.0629
     22 C           2.7080   -2.5880    0.0000 C.3     1  LIG1        0.0123
     23 C           2.4040   -1.6330    0.0000 C.3     1  LIG1        0.0629
     24 C           1.4290   -1.4290    0.0000 C.3     1  LIG1        0.1387
     25 O          -1.5000   -0.8080    0.0000 O.3     1  LIG1       -0.2146
@<TRIPOS>BOND
     1     1     2   ar
     2     1     5   ar
     3     1     9    1
     4     2     3   ar
     5     2    16    1
     6     3     4   ar
     7     3    15   ar
     8     4     5   ar
     9     4    12   ar
    10     5     6    1
    11     6     7    1
    12     7     8    1
    13     8     9   am
    14     8    11    1
    15     9    10    2
    16    12    13   ar
    17    13    14   ar
    18    14    15   ar
    19    16    17    1
    20    17    18    1
    21    17    25    1
    22    18    19    1
    23    19    20    1
    24    19    24    1
    25    20    21    1
    26    21    22    1
    27    22    23    1
    28    23    24    1
