@<TRIPOS>MOLECULE
31997_ChemDiv_8016-3404
 30 34 0 0 0
SMALL
GASTEIGER
Energy = 0

@<TRIPOS>ATOM
      1 N           1.3920    0.9500    0.0000 N.ar    1  LIG1       -0.1830
      2 C           0.5000    0.4880    0.0000 C.ar    1  LIG1        0.3153
      3 O           0.6540   -0.5000    0.0000 O.2     1  LIG1       -0.3276
      4 N           1.6540   -0.6540    0.0000 N.ar    1  LIG1       -0.0554
      5 C           2.1040    0.2380    0.0000 C.ar    1  LIG1        0.2038
      6 C           3.0920    0.3830    0.0000 C.ar    1  LIG1        0.0421
      7 C           3.7170   -0.3920    0.0000 C.ar    1  LIG1        0.0401
      8 C           4.7040   -0.2290    0.0000 C.ar    1  LIG1        0.1388
      9 O           5.3380   -1.0170    0.0000 O.3     1  LIG1       -0.4714
     10 C           4.9790   -1.9420    0.0000 C.3     1  LIG1        0.2525
     11 C           5.0670    0.7000    0.0000 C.ar    1  LIG1        0.0369
     12 C           4.4290    1.4830    0.0000 C.ar    1  LIG1        0.0032
     13 C           3.4540    1.3210    0.0000 C.ar    1  LIG1        0.0034
     14 C          -0.3790    0.9500    0.0000 C.2     1  LIG1        0.3212
     15 N          -1.2210    0.4130    0.0000 N.am    1  LIG1       -0.1976
     16 C          -2.0040    1.0330    0.0000 C.3     1  LIG1        0.1155
     17 C          -2.9210    0.6630    0.0000 C.3     1  LIG1        0.0193
     18 C          -3.5920    1.3830    0.0000 C.3     1  LIG1       -0.0023
     19 C          -4.5170    1.0330    0.0000 C.3     1  LIG1       -0.0196
     20 C          -4.4170    0.1000    0.0000 C.3     1  LIG1       -0.0079
     21 C          -3.8290   -0.5920    0.0000 C.3     1  LIG1       -0.0196
     22 C          -2.9080   -0.2630    0.0000 C.3     1  LIG1       -0.0023
     23 C          -4.3290   -1.6040    0.0000 C.3     1  LIG1       -0.0079
     24 C          -4.4040   -0.6040    0.0000 C.3     1  LIG1       -0.0196
     25 C          -3.4420   -0.2500    0.0000 C.3     1  LIG1       -0.0023
     26 C          -5.0790    0.1380    0.0000 C.3     1  LIG1       -0.0079
     27 O          -0.4420    1.9460    0.0000 O.2     1  LIG1       -0.2631
     28 H          -5.1670    1.8080    0.0000 H       1  LIG1        0.0318
     29 H          -3.1580   -1.3170    0.0000 H       1  LIG1        0.0318
     30 H          -5.3420   -1.0000    0.0000 H       1  LIG1        0.0318
@<TRIPOS>BOND
     1     1     2   ar
     2     1     5   ar
     3     2     3   ar
     4     2    14    1
     5     3     4   ar
     6     4     5   ar
     7     5     6    1
     8     6     7   ar
     9     6    13   ar
    10     7     8   ar
    11     8     9    1
    12     8    11   ar
    13     9    10    1
    14    11    12   ar
    15    12    13   ar
    16    14    15   am
    17    14    27    2
    18    15    16    1
    19    17    16    1
    20    17    18    1
    21    17    22    1
    22    17    25    1
    23    18    19    1
    24    19    20    1
    25    19    26    1
    26    19    28    1
    27    20    21    1
    28    21    22    1
    29    21    23    1
    30    21    29    1
    31    24    23    1
    32    24    25    1
    33    24    26    1
    34    24    30    1
