@<TRIPOS>MOLECULE
31998_ChemDiv_5737-0020
 26 28 0 0 0
SMALL
GASTEIGER
Energy = 0

@<TRIPOS>ATOM
      1 C           0.3380    1.9460    0.0000 C.ar    1  LIG1        0.1103
      2 N          -0.2380    1.1330    0.0000 N.ar    1  LIG1       -0.3210
      3 C          -1.1960    1.4500    0.0000 C.ar    1  LIG1        0.0598
      4 C          -1.1960    2.4580    0.0000 C.ar    1  LIG1        0.0134
      5 C          -0.2500    2.7630    0.0000 C.ar    1  LIG1        0.0012
      6 C           0.1500    3.6920    0.0000 C.3     1  LIG1        0.0495
      7 C           1.1670    3.7920    0.0000 C.3     1  LIG1        0.0985
      8 N           1.7580    2.9750    0.0000 N.am    1  LIG1       -0.2728
      9 C           1.3460    2.0420    0.0000 C.2     1  LIG1        0.2647
     10 O           1.9250    1.2500    0.0000 O.2     1  LIG1       -0.2683
     11 C           2.7540    3.0710    0.0000 C.3     1  LIG1        0.1152
     12 C          -2.0500    2.9460    0.0000 C.ar    1  LIG1        0.0012
     13 C          -2.9130    2.4460    0.0000 C.ar    1  LIG1        0.0001
     14 C          -2.9130    1.4500    0.0000 C.ar    1  LIG1        0.0015
     15 C          -2.0500    0.9540    0.0000 C.ar    1  LIG1        0.0172
     16 C           0.0670    0.1920    0.0000 C.3     1  LIG1        0.1451
     17 C          -0.6000   -0.5460    0.0000 C.3     1  LIG1        0.2306
     18 C          -0.2960   -1.5040    0.0000 C.3     1  LIG1        0.1741
     19 N           0.6830   -1.7080    0.0000 N.4     1  LIG1        0.3835
     20 C           1.0790   -2.6170    0.0000 C.3     1  LIG1        0.1750
     21 C           2.0460   -2.8330    0.0000 C.3     1  LIG1        0.2442
     22 O           2.3500   -3.7880    0.0000 O.3     1  LIG1       -0.2137
     23 C           1.3040   -0.9290    0.0000 C.3     1  LIG1        0.1750
     24 C           2.2920   -1.0880    0.0000 C.3     1  LIG1        0.2442
     25 O           2.9080   -0.3040    0.0000 O.3     1  LIG1       -0.2137
     26 O          -1.5830   -0.3380    0.0000 O.3     1  LIG1       -0.2146
@<TRIPOS>BOND
     1     1     2   ar
     2     1     5   ar
     3     1     9    1
     4     2     3   ar
     5     2    16    1
     6     3     4   ar
     7     3    15   ar
     8     4     5   ar
     9     4    12   ar
    10     5     6    1
    11     6     7    1
    12     7     8    1
    13     8     9   am
    14     8    11    1
    15     9    10    2
    16    12    13   ar
    17    13    14   ar
    18    14    15   ar
    19    16    17    1
    20    17    18    1
    21    17    26    1
    22    18    19    1
    23    19    20    1
    24    19    23    1
    25    20    21    1
    26    21    22    1
    27    23    24    1
    28    24    25    1
