@<TRIPOS>MOLECULE
31994_ChemDiv_5737-0013
 28 31 0 0 0
SMALL
GASTEIGER
Energy = 0

@<TRIPOS>ATOM
      1 C          -0.6380    1.7920    0.0000 C.ar    1  LIG1        0.1103
      2 N          -1.2210    1.0000    0.0000 N.ar    1  LIG1       -0.3212
      3 C          -2.1750    1.3080    0.0000 C.ar    1  LIG1        0.0597
      4 C          -2.1750    2.3040    0.0000 C.ar    1  LIG1        0.0134
      5 C          -1.2290    2.6210    0.0000 C.ar    1  LIG1        0.0012
      6 C          -0.8380    3.5460    0.0000 C.3     1  LIG1        0.0495
      7 C           0.1920    3.6500    0.0000 C.3     1  LIG1        0.0985
      8 N           0.7790    2.8250    0.0000 N.am    1  LIG1       -0.2728
      9 C           0.3710    1.9080    0.0000 C.2     1  LIG1        0.2647
     10 O           0.9540    1.0920    0.0000 O.2     1  LIG1       -0.2683
     11 C           1.7710    2.9380    0.0000 C.3     1  LIG1        0.1152
     12 C          -3.0420    2.8040    0.0000 C.ar    1  LIG1        0.0012
     13 C          -3.8960    2.3040    0.0000 C.ar    1  LIG1        0.0001
     14 C          -3.8960    1.3080    0.0000 C.ar    1  LIG1        0.0015
     15 C          -3.0420    0.8170    0.0000 C.ar    1  LIG1        0.0172
     16 C          -0.9170    0.0580    0.0000 C.3     1  LIG1        0.1403
     17 C          -1.5830   -0.6920    0.0000 C.3     1  LIG1        0.1903
     18 C          -1.2790   -1.6380    0.0000 C.3     1  LIG1        0.1077
     19 N          -0.2960   -1.8460    0.0000 N.3     1  LIG1       -0.2604
     20 C           0.0080   -2.8000    0.0000 C.3     1  LIG1        0.1359
     21 C           0.9830   -3.0000    0.0000 C.3     1  LIG1        0.1564
     22 N           1.6500   -2.2670    0.0000 N.4     1  LIG1        0.3815
     23 C           1.3460   -1.3170    0.0000 C.3     1  LIG1        0.1564
     24 C           0.3710   -1.1000    0.0000 C.3     1  LIG1        0.1359
     25 C           2.6210   -2.4880    0.0000 C.3     1  LIG1        0.1749
     26 C           2.9210   -3.4420    0.0000 C.3     1  LIG1        0.2442
     27 O           3.8920   -3.6460    0.0000 O.3     1  LIG1       -0.2137
     28 O          -2.5630   -0.4710    0.0000 O.3     1  LIG1       -0.2196
@<TRIPOS>BOND
     1     1     2   ar
     2     1     5   ar
     3     1     9    1
     4     2     3   ar
     5     2    16    1
     6     3     4   ar
     7     3    15   ar
     8     4     5   ar
     9     4    12   ar
    10     5     6    1
    11     6     7    1
    12     7     8    1
    13     8     9   am
    14     8    11    1
    15     9    10    2
    16    12    13   ar
    17    13    14   ar
    18    14    15   ar
    19    16    17    1
    20    17    18    1
    21    17    28    1
    22    18    19    1
    23    19    20    1
    24    19    24    1
    25    20    21    1
    26    21    22    1
    27    22    23    1
    28    22    25    1
    29    23    24    1
    30    25    26    1
    31    26    27    1
