@<TRIPOS>MOLECULE
31999_ChemDiv_8017-2093
 35 40 0 0 0
SMALL
GASTEIGER
Energy = 0

@<TRIPOS>ATOM
      1 N           0.8540   -0.2750    0.0000 N.ar    1  LIG1       -0.1830
      2 C           0.0130    0.2830    0.0000 C.ar    1  LIG1        0.3153
      3 O           0.2790    1.2380    0.0000 O.2     1  LIG1       -0.3276
      4 N           1.2790    1.2830    0.0000 N.ar    1  LIG1       -0.0554
      5 C           1.6290    0.3500    0.0000 C.ar    1  LIG1        0.2037
      6 C           2.5920    0.0880    0.0000 C.ar    1  LIG1        0.0392
      7 C           3.3040    0.7960    0.0000 C.ar    1  LIG1        0.0046
      8 C           4.2670    0.5330    0.0000 C.ar    1  LIG1        0.0176
      9 C           4.5250   -0.4290    0.0000 C.ar    1  LIG1        0.0641
     10 N           5.4790   -0.6920    0.0000 N.ar    1  LIG1       -0.3036
     11 C           5.8420   -1.6250    0.0000 C.ar    1  LIG1        0.0802
     12 C           6.8380   -1.5750    0.0000 C.ar    1  LIG1        0.0205
     13 C           7.0920   -0.6040    0.0000 C.ar    1  LIG1        0.0205
     14 C           6.2540   -0.0670    0.0000 C.ar    1  LIG1        0.0802
     15 C           3.8130   -1.1420    0.0000 C.ar    1  LIG1        0.0176
     16 C           2.8420   -0.8790    0.0000 C.ar    1  LIG1        0.0046
     17 C          -0.9250   -0.0670    0.0000 C.2     1  LIG1        0.3212
     18 O          -1.7000    0.5710    0.0000 O.2     1  LIG1       -0.2631
     19 N          -1.0880   -1.0540    0.0000 N.am    1  LIG1       -0.1949
     20 C          -2.0250   -1.4000    0.0000 C.3     1  LIG1        0.1476
     21 C          -2.7920   -0.7670    0.0000 C.3     1  LIG1        0.1653
     22 O          -3.7290   -1.1130    0.0000 O.3     1  LIG1       -0.3567
     23 C          -4.7630   -0.7670    0.0000 C.3     1  LIG1        0.0919
     24 C          -5.5130   -1.4130    0.0000 C.3     1  LIG1        0.0232
     25 C          -6.3750   -0.9540    0.0000 C.3     1  LIG1       -0.0174
     26 C          -6.1540   -0.0420    0.0000 C.3     1  LIG1       -0.0077
     27 C          -5.5000    0.5750    0.0000 C.3     1  LIG1       -0.0174
     28 C          -4.6380    0.1460    0.0000 C.3     1  LIG1        0.0232
     29 C          -5.8880    1.6460    0.0000 C.3     1  LIG1       -0.0077
     30 C          -6.0750    0.6580    0.0000 C.3     1  LIG1       -0.0174
     31 C          -5.1630    0.1880    0.0000 C.3     1  LIG1        0.0232
     32 C          -6.8130    0.0080    0.0000 C.3     1  LIG1       -0.0077
     33 H          -7.0920   -1.6420    0.0000 H       1  LIG1        0.0319
     34 H          -4.7540    1.2330    0.0000 H       1  LIG1        0.0319
     35 H          -6.9380    1.1500    0.0000 H       1  LIG1        0.0319
@<TRIPOS>BOND
     1     1     2   ar
     2     1     5   ar
     3     2     3   ar
     4     2    17    1
     5     3     4   ar
     6     4     5   ar
     7     5     6    1
     8     6     7   ar
     9     6    16   ar
    10     7     8   ar
    11     8     9   ar
    12     9    10    1
    13     9    15   ar
    14    10    11   ar
    15    10    14   ar
    16    11    12   ar
    17    12    13   ar
    18    13    14   ar
    19    15    16   ar
    20    17    18    2
    21    17    19   am
    22    19    20    1
    23    20    21    1
    24    21    22    1
    25    22    23    1
    26    23    24    1
    27    23    28    1
    28    23    31    1
    29    24    25    1
    30    25    26    1
    31    25    32    1
    32    25    33    1
    33    26    27    1
    34    27    28    1
    35    27    29    1
    36    27    34    1
    37    30    29    1
    38    30    31    1
    39    30    32    1
    40    30    35    1
