@<TRIPOS>MOLECULE
31993_ChemDiv_8015-6306
 27 31 0 0 0
SMALL
GASTEIGER
Energy = 0

@<TRIPOS>ATOM
      1 N          -0.0250    0.1580    0.0000 N.ar    1  LIG1       -0.1876
      2 C          -0.8250    0.7460    0.0000 C.ar    1  LIG1        0.2034
      3 N          -0.5080    1.6670    0.0000 N.ar    1  LIG1       -0.0559
      4 O           0.4960    1.6670    0.0000 O.2     1  LIG1       -0.3331
      5 C           0.7880    0.7330    0.0000 C.ar    1  LIG1        0.2811
      6 C           1.7580    0.5040    0.0000 C.3     1  LIG1        0.2923
      7 O           2.4630    1.2210    0.0000 O.3     1  LIG1       -0.4654
      8 C           3.4210    0.9710    0.0000 C.ar    1  LIG1        0.1390
      9 C           3.7000    0.0080    0.0000 C.ar    1  LIG1        0.0323
     10 C           4.6500   -0.2290    0.0000 C.ar    1  LIG1       -0.0231
     11 C           5.3630    0.4920    0.0000 C.ar    1  LIG1       -0.0259
     12 C           5.0630    1.4290    0.0000 C.ar    1  LIG1       -0.0015
     13 C           4.1130    1.6670    0.0000 C.ar    1  LIG1        0.0366
     14 C           6.2380    0.0790    0.0000 C.3     1  LIG1        0.0264
     15 C           6.1250   -0.9130    0.0000 C.3     1  LIG1        0.0093
     16 C           5.1250   -1.1130    0.0000 C.3     1  LIG1        0.0265
     17 C          -1.7830    0.4080    0.0000 C.ar    1  LIG1        0.0392
     18 C          -2.5460    1.0920    0.0000 C.ar    1  LIG1        0.0046
     19 C          -3.5130    0.7670    0.0000 C.ar    1  LIG1        0.0176
     20 C          -3.6830   -0.2290    0.0000 C.ar    1  LIG1        0.0641
     21 N          -4.6210   -0.5880    0.0000 N.ar    1  LIG1       -0.3036
     22 C          -5.5080   -0.0790    0.0000 C.ar    1  LIG1        0.0802
     23 C          -6.2380   -0.7670    0.0000 C.ar    1  LIG1        0.0205
     24 C          -5.8630   -1.6630    0.0000 C.ar    1  LIG1        0.0205
     25 C          -4.8580   -1.5790    0.0000 C.ar    1  LIG1        0.0802
     26 C          -2.9130   -0.9000    0.0000 C.ar    1  LIG1        0.0176
     27 C          -1.9580   -0.5670    0.0000 C.ar    1  LIG1        0.0046
@<TRIPOS>BOND
     1     1     2   ar
     2     1     5   ar
     3     2     3   ar
     4     2    17    1
     5     3     4   ar
     6     4     5   ar
     7     5     6    1
     8     6     7    1
     9     7     8    1
    10     8     9   ar
    11     8    13   ar
    12     9    10   ar
    13    10    11   ar
    14    10    16    1
    15    11    12   ar
    16    11    14    1
    17    12    13   ar
    18    14    15    1
    19    15    16    1
    20    17    18   ar
    21    17    27   ar
    22    18    19   ar
    23    19    20   ar
    24    20    21    1
    25    20    26   ar
    26    21    22   ar
    27    21    25   ar
    28    22    23   ar
    29    23    24   ar
    30    24    25   ar
    31    26    27   ar
