@<TRIPOS>MOLECULE
31991_ChemDiv_8013-0014
 24 26 0 0 0
SMALL
GASTEIGER
Energy = 0

@<TRIPOS>ATOM
      1 S           3.0710   -1.0580    0.0000 S.O2    1  LIG1        0.0465
      2 N           2.2790   -0.4580    0.0000 N.3     1  LIG1       -0.1421
      3 C           1.3750   -0.8420    0.0000 C.3     1  LIG1        0.1834
      4 C           0.5750   -0.2330    0.0000 C.ar    1  LIG1        0.2547
      5 N          -0.3920   -0.5170    0.0000 N.ar    1  LIG1       -0.1895
      6 C          -0.9330    0.3080    0.0000 C.ar    1  LIG1        0.2033
      7 N          -0.3330    1.0920    0.0000 N.ar    1  LIG1       -0.0560
      8 O           0.5830    0.7330    0.0000 O.2     1  LIG1       -0.3355
      9 C          -1.9540    0.3080    0.0000 C.ar    1  LIG1        0.0391
     10 C          -2.4330    1.1710    0.0000 C.ar    1  LIG1        0.0028
     11 C          -3.4250    1.1920    0.0000 C.ar    1  LIG1       -0.0042
     12 C          -3.9250    0.3080    0.0000 C.ar    1  LIG1       -0.0218
     13 C          -3.4420   -0.5580    0.0000 C.ar    1  LIG1       -0.0042
     14 C          -2.4330   -0.5580    0.0000 C.ar    1  LIG1        0.0028
     15 C          -4.9380    0.3080    0.0000 C.3     1  LIG1        0.0310
     16 C           2.2920    0.5170    0.0000 C.3     1  LIG1        0.1600
     17 C           3.3210    0.9080    0.0000 C.ar    1  LIG1        0.1409
     18 O           3.6540    1.8790    0.0000 O.2     1  LIG1       -0.4532
     19 C           4.6130    1.8790    0.0000 C.ar    1  LIG1        0.1792
     20 C           4.9330    0.9080    0.0000 C.ar    1  LIG1        0.0435
     21 C           4.1000    0.3250    0.0000 C.ar    1  LIG1        0.0377
     22 O           3.6750   -0.2790    0.0000 O.2     1  LIG1       -0.1572
     23 O           2.4710   -1.8750    0.0000 O.2     1  LIG1       -0.1572
     24 C           3.8830   -1.6630    0.0000 C.3     1  LIG1        0.1960
@<TRIPOS>BOND
     1     1     2    1
     2     1    22    2
     3     1    23    2
     4     1    24    1
     5     2     3    1
     6     2    16    1
     7     3     4    1
     8     4     5   ar
     9     4     8   ar
    10     5     6   ar
    11     6     7   ar
    12     6     9    1
    13     7     8   ar
    14     9    10   ar
    15     9    14   ar
    16    10    11   ar
    17    11    12   ar
    18    12    13   ar
    19    12    15    1
    20    13    14   ar
    21    16    17    1
    22    17    18   ar
    23    17    21   ar
    24    18    19   ar
    25    19    20   ar
    26    20    21   ar
