@<TRIPOS>MOLECULE
32000_ChemDiv_5737-0021
 26 29 0 0 0
SMALL
GASTEIGER
Energy = 0

@<TRIPOS>ATOM
      1 C           0.3330    1.6000    0.0000 C.ar    1  LIG1        0.1103
      2 N          -0.2460    0.7960    0.0000 N.ar    1  LIG1       -0.3210
      3 C          -1.1960    1.1170    0.0000 C.ar    1  LIG1        0.0598
      4 C          -1.1960    2.1040    0.0000 C.ar    1  LIG1        0.0134
      5 C          -0.2630    2.4170    0.0000 C.ar    1  LIG1        0.0012
      6 C           0.1540    3.3420    0.0000 C.3     1  LIG1        0.0495
      7 C           1.1500    3.4460    0.0000 C.3     1  LIG1        0.0985
      8 N           1.7540    2.6290    0.0000 N.am    1  LIG1       -0.2728
      9 C           1.3330    1.7040    0.0000 C.2     1  LIG1        0.2647
     10 O           1.9210    0.8920    0.0000 O.2     1  LIG1       -0.2683
     11 C           2.7420    2.7380    0.0000 C.3     1  LIG1        0.1152
     12 C          -2.0580    2.6000    0.0000 C.ar    1  LIG1        0.0012
     13 C          -2.9290    2.1040    0.0000 C.ar    1  LIG1        0.0001
     14 C          -2.9290    1.1170    0.0000 C.ar    1  LIG1        0.0015
     15 C          -2.0580    0.6170    0.0000 C.ar    1  LIG1        0.0172
     16 C           0.0630   -0.1580    0.0000 C.3     1  LIG1        0.1451
     17 C          -0.6080   -0.9000    0.0000 C.3     1  LIG1        0.2306
     18 C          -0.3040   -1.8500    0.0000 C.3     1  LIG1        0.1739
     19 N           0.6670   -2.0670    0.0000 N.4     1  LIG1        0.3793
     20 C           1.2710   -1.2790    0.0000 C.3     1  LIG1        0.1387
     21 C           2.2830   -1.2460    0.0000 C.3     1  LIG1        0.0627
     22 C           2.9250   -2.0290    0.0000 C.3     1  LIG1        0.0063
     23 C           2.7080   -3.0000    0.0000 C.3     1  LIG1        0.0063
     24 C           1.8130   -3.4420    0.0000 C.3     1  LIG1        0.0627
     25 C           0.9040   -3.0330    0.0000 C.3     1  LIG1        0.1387
     26 O          -1.5790   -0.6830    0.0000 O.3     1  LIG1       -0.2146
@<TRIPOS>BOND
     1     1     2   ar
     2     1     5   ar
     3     1     9    1
     4     2     3   ar
     5     2    16    1
     6     3     4   ar
     7     3    15   ar
     8     4     5   ar
     9     4    12   ar
    10     5     6    1
    11     6     7    1
    12     7     8    1
    13     8     9   am
    14     8    11    1
    15     9    10    2
    16    12    13   ar
    17    13    14   ar
    18    14    15   ar
    19    16    17    1
    20    17    18    1
    21    17    26    1
    22    18    19    1
    23    19    20    1
    24    19    25    1
    25    20    21    1
    26    21    22    1
    27    22    23    1
    28    23    24    1
    29    24    25    1
