@<TRIPOS>MOLECULE
32009_ChemDiv_K783-5394
 25 28 0 0 0
SMALL
GASTEIGER
Energy = 0

@<TRIPOS>ATOM
      1 N          -3.4420   -0.6540    0.0000 N.am    1  LIG1       -0.2586
      2 C          -3.5500   -1.6500    0.0000 C.2     1  LIG1        0.2294
      3 O          -2.8330   -2.3500    0.0000 O.2     1  LIG1       -0.2745
      4 C          -4.5250   -1.8500    0.0000 C.3     1  LIG1        0.0874
      5 C          -5.0250   -0.9880    0.0000 C.3     1  LIG1        0.0315
      6 C          -4.3500   -0.2420    0.0000 C.3     1  LIG1        0.0987
      7 C          -2.5790   -0.1540    0.0000 C.ar    1  LIG1        0.0538
      8 C          -1.7130   -0.6540    0.0000 C.ar    1  LIG1        0.0150
      9 C          -0.8380   -0.1540    0.0000 C.ar    1  LIG1        0.0058
     10 C          -0.8380    0.8500    0.0000 C.ar    1  LIG1        0.0551
     11 C           0.0250    1.3540    0.0000 C.2     1  LIG1        0.2651
     12 N           0.8960    0.8630    0.0000 N.am    1  LIG1       -0.1968
     13 C           0.8960   -0.1380    0.0000 C.3     1  LIG1        0.1419
     14 C           1.7580   -0.6380    0.0000 C.ar    1  LIG1        0.0027
     15 C           2.6210   -0.1380    0.0000 C.ar    1  LIG1        0.0376
     16 C           3.4750   -0.6330    0.0000 C.ar    1  LIG1        0.1762
     17 C           3.4830   -1.6330    0.0000 C.ar    1  LIG1        0.1764
     18 O           4.4380   -1.9420    0.0000 O.3     1  LIG1       -0.4346
     19 C           5.0210   -1.1210    0.0000 C.3     1  LIG1        0.4294
     20 O           4.4290   -0.3210    0.0000 O.3     1  LIG1       -0.4346
     21 C           2.6080   -2.1330    0.0000 C.ar    1  LIG1        0.0399
     22 C           1.7540   -1.6330    0.0000 C.ar    1  LIG1        0.0008
     23 O           0.0170    2.3540    0.0000 O.2     1  LIG1       -0.2684
     24 C          -1.7130    1.3500    0.0000 C.ar    1  LIG1        0.0058
     25 C          -2.5790    0.8500    0.0000 C.ar    1  LIG1        0.0150
@<TRIPOS>BOND
     1     1     2   am
     2     1     6    1
     3     1     7    1
     4     2     3    2
     5     2     4    1
     6     4     5    1
     7     5     6    1
     8     7     8   ar
     9     7    25   ar
    10     8     9   ar
    11     9    10   ar
    12    10    11    1
    13    10    24   ar
    14    11    12   am
    15    11    23    2
    16    12    13    1
    17    13    14    1
    18    14    15   ar
    19    14    22   ar
    20    15    16   ar
    21    16    17   ar
    22    16    20    1
    23    17    18    1
    24    17    21   ar
    25    18    19    1
    26    19    20    1
    27    21    22   ar
    28    24    25   ar
