@<TRIPOS>MOLECULE
32004_ChemDiv_6850-0288
 29 32 0 0 0
SMALL
GASTEIGER
Energy = 0

@<TRIPOS>ATOM
      1 N          -3.1330    1.1460    0.0000 N.ar    1  LIG1       -0.2676
      2 C          -2.2250    1.5630    0.0000 C.ar    1  LIG1        0.1975
      3 N          -2.3330    2.5500    0.0000 N.ar    1  LIG1       -0.1218
      4 N          -3.3080    2.7630    0.0000 N.ar    1  LIG1       -0.1279
      5 C          -3.7960    1.8880    0.0000 C.ar    1  LIG1        0.1708
      6 C          -4.7750    1.6830    0.0000 C.ar    1  LIG1        0.0393
      7 C          -5.0790    0.7290    0.0000 C.ar    1  LIG1        0.0047
      8 C          -4.4080   -0.0080    0.0000 C.ar    1  LIG1        0.0192
      9 C          -3.4330    0.2000    0.0000 C.ar    1  LIG1        0.0834
     10 S          -1.3540    1.0630    0.0000 S.3     1  LIG1       -0.0654
     11 C          -0.4960    1.5710    0.0000 C.3     1  LIG1        0.1520
     12 C          -0.5040    2.5710    0.0000 C.2     1  LIG1        0.2595
     13 N           0.3710    3.0790    0.0000 N.am    1  LIG1       -0.1420
     14 C           1.2380    2.5710    0.0000 C.ar    1  LIG1        0.2503
     15 N           1.3330    1.5880    0.0000 N.ar    1  LIG1       -0.2036
     16 C           2.3130    1.3580    0.0000 C.ar    1  LIG1        0.1312
     17 S           2.8250    2.2250    0.0000 S.2     1  LIG1        0.0355
     18 N           2.1500    2.9750    0.0000 N.ar    1  LIG1       -0.1728
     19 C           2.7540    0.4580    0.0000 C.ar    1  LIG1        0.0253
     20 C           3.7580    0.3960    0.0000 C.ar    1  LIG1        0.0017
     21 C           4.2000   -0.4960    0.0000 C.ar    1  LIG1       -0.0042
     22 C           3.6380   -1.3380    0.0000 C.ar    1  LIG1       -0.0228
     23 C           4.0790   -2.2460    0.0000 C.3     1  LIG1        0.0189
     24 C           3.5210   -3.0750    0.0000 C.3     1  LIG1        0.0044
     25 C           4.8330   -1.5830    0.0000 C.3     1  LIG1        0.0044
     26 C           5.0750   -2.3040    0.0000 C.3     1  LIG1        0.0044
     27 C           2.6420   -1.2630    0.0000 C.ar    1  LIG1       -0.0042
     28 C           2.2040   -0.3670    0.0000 C.ar    1  LIG1        0.0017
     29 O          -1.3630    3.0710    0.0000 O.2     1  LIG1       -0.2719
@<TRIPOS>BOND
     1     1     2   ar
     2     1     5   ar
     3     1     9   ar
     4     2     3   ar
     5     2    10    1
     6     3     4   ar
     7     4     5   ar
     8     5     6   ar
     9     6     7   ar
    10     7     8   ar
    11     8     9   ar
    12    10    11    1
    13    11    12    1
    14    12    13   am
    15    12    29    2
    16    13    14    1
    17    14    15   ar
    18    14    18   ar
    19    15    16   ar
    20    16    17   ar
    21    16    19    1
    22    17    18   ar
    23    19    20   ar
    24    19    28   ar
    25    20    21   ar
    26    21    22   ar
    27    22    23    1
    28    22    27   ar
    29    23    24    1
    30    23    25    1
    31    23    26    1
    32    27    28   ar
