@<TRIPOS>MOLECULE
32006_ChemDiv_5867-4049
 29 33 0 0 0
SMALL
GASTEIGER
Energy = 0

@<TRIPOS>ATOM
      1 N          -2.1880   -1.3540    0.0000 N.ar    1  LIG1       -0.2634
      2 C          -3.0500   -1.8630    0.0000 C.ar    1  LIG1        0.2016
      3 N          -3.8000   -1.2170    0.0000 N.ar    1  LIG1       -0.1209
      4 N          -3.4040   -0.2880    0.0000 N.ar    1  LIG1       -0.1212
      5 C          -2.4130   -0.3790    0.0000 C.ar    1  LIG1        0.1979
      6 S          -1.6790    0.3000    0.0000 S.3     1  LIG1       -0.0654
      7 C          -1.9000    1.2710    0.0000 C.3     1  LIG1        0.1516
      8 C          -1.1670    1.9580    0.0000 C.2     1  LIG1        0.2531
      9 N          -0.2040    1.6670    0.0000 N.am    1  LIG1       -0.1998
     10 C           0.0250    0.6830    0.0000 C.3     1  LIG1        0.1416
     11 C           0.9960    0.3960    0.0000 C.ar    1  LIG1        0.0027
     12 C           1.2540   -0.5790    0.0000 C.ar    1  LIG1        0.0376
     13 C           2.2130   -0.8380    0.0000 C.ar    1  LIG1        0.1762
     14 C           2.9130   -0.1290    0.0000 C.ar    1  LIG1        0.1764
     15 O           3.7960   -0.5830    0.0000 O.3     1  LIG1       -0.4346
     16 C           3.6380   -1.5830    0.0000 C.3     1  LIG1        0.4294
     17 O           2.6710   -1.7210    0.0000 O.3     1  LIG1       -0.4346
     18 C           2.6540    0.8290    0.0000 C.ar    1  LIG1        0.0399
     19 C           1.6830    1.0920    0.0000 C.ar    1  LIG1        0.0008
     20 O          -1.4080    2.9290    0.0000 O.2     1  LIG1       -0.2724
     21 S          -2.8380   -2.8460    0.0000 S.2     1  LIG1       -0.0463
     22 C          -1.8330   -2.9250    0.0000 C.ar    1  LIG1        0.0560
     23 C          -1.4380   -2.0250    0.0000 C.ar    1  LIG1        0.0742
     24 C          -0.4500   -1.8460    0.0000 C.ar    1  LIG1        0.0168
     25 C           0.1920   -2.6210    0.0000 C.ar    1  LIG1        0.0015
     26 C           1.1790   -2.4540    0.0000 C.ar    1  LIG1        0.0000
     27 C           1.5250   -1.5080    0.0000 C.ar    1  LIG1        0.0000
     28 C           0.8830   -0.7380    0.0000 C.ar    1  LIG1        0.0000
     29 C          -0.1040   -0.9130    0.0000 C.ar    1  LIG1        0.0015
@<TRIPOS>BOND
     1     1     2   ar
     2     1     5   ar
     3     1    23   ar
     4     2     3   ar
     5     2    21   ar
     6     3     4   ar
     7     4     5   ar
     8     5     6    1
     9     6     7    1
    10     7     8    1
    11     8     9   am
    12     8    20    2
    13     9    10    1
    14    10    11    1
    15    11    12   ar
    16    11    19   ar
    17    12    13   ar
    18    13    14   ar
    19    13    17    1
    20    14    15    1
    21    14    18   ar
    22    15    16    1
    23    16    17    1
    24    18    19   ar
    25    21    22   ar
    26    22    23   ar
    27    23    24    1
    28    24    25   ar
    29    24    29   ar
    30    25    26   ar
    31    26    27   ar
    32    27    28   ar
    33    28    29   ar
