@<TRIPOS>MOLECULE
32008_ChemDiv_5867-4078
 31 35 0 0 0
SMALL
GASTEIGER
Energy = 0

@<TRIPOS>ATOM
      1 N           3.8290    1.3080    0.0000 N.ar    1  LIG1       -0.2634
      2 C           4.7000    1.7920    0.0000 C.ar    1  LIG1        0.2016
      3 N           5.4290    1.1210    0.0000 N.ar    1  LIG1       -0.1209
      4 N           5.0250    0.2130    0.0000 N.ar    1  LIG1       -0.1213
      5 C           4.0330    0.3330    0.0000 C.ar    1  LIG1        0.1975
      6 S           3.3540   -0.4170    0.0000 S.3     1  LIG1       -0.0748
      7 C           2.3710   -0.2080    0.0000 C.3     1  LIG1        0.0748
      8 C           1.7040   -0.9500    0.0000 C.3     1  LIG1        0.0993
      9 C           0.7210   -0.7500    0.0000 C.2     1  LIG1        0.2482
     10 N           0.0630   -1.5040    0.0000 N.am    1  LIG1       -0.1531
     11 C          -0.9130   -1.3130    0.0000 C.ar    1  LIG1        0.2048
     12 N          -1.7250   -1.9210    0.0000 N.ar    1  LIG1       -0.2021
     13 C          -2.5330   -1.3540    0.0000 C.ar    1  LIG1        0.1718
     14 N          -2.2540   -0.3920    0.0000 N.ar    1  LIG1       -0.1872
     15 S          -1.2420   -0.3750    0.0000 S.2     1  LIG1        0.0513
     16 C          -3.4960   -1.6330    0.0000 C.ar    1  LIG1        0.0365
     17 C          -4.2210   -0.9460    0.0000 C.ar    1  LIG1        0.0031
     18 C          -5.1880   -1.2250    0.0000 C.ar    1  LIG1        0.0001
     19 C          -5.4330   -2.2000    0.0000 C.ar    1  LIG1        0.0000
     20 C          -4.7040   -2.8880    0.0000 C.ar    1  LIG1        0.0001
     21 C          -3.7380   -2.6130    0.0000 C.ar    1  LIG1        0.0031
     22 O           0.3960    0.1880    0.0000 O.2     1  LIG1       -0.2729
     23 S           4.5040    2.7750    0.0000 S.2     1  LIG1       -0.0463
     24 C           3.5250    2.8920    0.0000 C.ar    1  LIG1        0.0560
     25 C           3.1040    1.9830    0.0000 C.ar    1  LIG1        0.0742
     26 C           2.1130    1.8330    0.0000 C.ar    1  LIG1        0.0168
     27 C           1.4920    2.6210    0.0000 C.ar    1  LIG1        0.0015
     28 C           0.5000    2.4670    0.0000 C.ar    1  LIG1        0.0000
     29 C           0.1380    1.5330    0.0000 C.ar    1  LIG1        0.0000
     30 C           0.7580    0.7580    0.0000 C.ar    1  LIG1        0.0000
     31 C           1.7500    0.9080    0.0000 C.ar    1  LIG1        0.0015
@<TRIPOS>BOND
     1     1     2   ar
     2     1     5   ar
     3     1    25   ar
     4     2     3   ar
     5     2    23   ar
     6     3     4   ar
     7     4     5   ar
     8     5     6    1
     9     6     7    1
    10     7     8    1
    11     8     9    1
    12     9    10   am
    13     9    22    2
    14    10    11    1
    15    11    12   ar
    16    11    15   ar
    17    12    13   ar
    18    13    14   ar
    19    13    16    1
    20    14    15   ar
    21    16    17   ar
    22    16    21   ar
    23    17    18   ar
    24    18    19   ar
    25    19    20   ar
    26    20    21   ar
    27    23    24   ar
    28    24    25   ar
    29    25    26    1
    30    26    27   ar
    31    26    31   ar
    32    27    28   ar
    33    28    29   ar
    34    29    30   ar
    35    30    31   ar
