@<TRIPOS>MOLECULE
32005_ChemDiv_8008-3253
 24 27 0 0 0
SMALL
GASTEIGER
Energy = 0

@<TRIPOS>ATOM
      1 N          -2.5000    0.2790    0.0000 N.am    1  LIG1       -0.2031
      2 C          -2.5000    1.1210    0.0000 C.2     1  LIG1        0.2419
      3 C          -1.0330    1.1210    0.0000 C.3     1  LIG1        0.1582
      4 C          -1.0330    0.2790    0.0000 C.3     1  LIG1        0.2311
      5 C          -1.7630   -0.1540    0.0000 C.2     1  LIG1        0.2927
      6 O          -1.7630   -1.1210    0.0000 O.2     1  LIG1       -0.2677
      7 N          -0.1380   -0.1880    0.0000 N.4     1  LIG1        0.4547
      8 C           0.7170    0.3040    0.0000 C.3     1  LIG1        0.2289
      9 C           1.5630   -0.1670    0.0000 C.ar    1  LIG1        0.0435
     10 C           2.4250    0.3250    0.0000 C.ar    1  LIG1        0.0418
     11 C           3.2750   -0.1670    0.0000 C.ar    1  LIG1        0.1763
     12 C           3.2750   -1.1420    0.0000 C.ar    1  LIG1        0.1764
     13 O           4.9630   -1.1420    0.0000 O.3     1  LIG1       -0.4346
     14 C           4.9630   -0.1670    0.0000 C.3     1  LIG1        0.4294
     15 O           4.1130    0.3250    0.0000 O.3     1  LIG1       -0.4346
     16 C           2.4250   -1.6080    0.0000 C.ar    1  LIG1        0.0401
     17 C           1.5630   -1.1420    0.0000 C.ar    1  LIG1        0.0050
     18 O          -3.3380    1.6130    0.0000 O.2     1  LIG1       -0.2739
     19 C          -3.2670   -0.1540    0.0000 C.ar    1  LIG1        0.0608
     20 C          -4.1170    0.3380    0.0000 C.ar    1  LIG1        0.0153
     21 C          -4.9670   -0.1540    0.0000 C.ar    1  LIG1        0.0013
     22 C          -4.9670   -1.1290    0.0000 C.ar    1  LIG1        0.0001
     23 C          -4.1170   -1.6080    0.0000 C.ar    1  LIG1        0.0013
     24 C          -3.2670   -1.1290    0.0000 C.ar    1  LIG1        0.0153
@<TRIPOS>BOND
     1     1     2   am
     2     1     5   am
     3     1    19    1
     4     2     3    1
     5     2    18    2
     6     3     4    1
     7     4     5    1
     8     4     7    1
     9     5     6    2
    10     7     8    1
    11     8     9    1
    12     9    10   ar
    13     9    17   ar
    14    10    11   ar
    15    11    12   ar
    16    11    15    1
    17    12    13    1
    18    12    16   ar
    19    13    14    1
    20    14    15    1
    21    16    17   ar
    22    19    20   ar
    23    19    24   ar
    24    20    21   ar
    25    21    22   ar
    26    22    23   ar
    27    23    24   ar
