@<TRIPOS>MOLECULE
32002_ChemDiv_6850-0283
 26 28 0 0 0
SMALL
GASTEIGER
Energy = 0

@<TRIPOS>ATOM
      1 N           0.6830    1.3000    0.0000 N.ar    1  LIG1       -0.2036
      2 C           0.5750    2.2830    0.0000 C.ar    1  LIG1        0.2503
      3 N           1.4750    2.6920    0.0000 N.ar    1  LIG1       -0.1728
      4 S           2.1580    1.9500    0.0000 S.2     1  LIG1        0.0355
      5 C           1.6540    1.0880    0.0000 C.ar    1  LIG1        0.1312
      6 C           2.1130    0.1830    0.0000 C.ar    1  LIG1        0.0253
      7 C           3.1130    0.1330    0.0000 C.ar    1  LIG1        0.0017
      8 C           3.5630   -0.7580    0.0000 C.ar    1  LIG1       -0.0042
      9 C           3.0040   -1.6040    0.0000 C.ar    1  LIG1       -0.0228
     10 C           3.4540   -2.5000    0.0000 C.3     1  LIG1        0.0189
     11 C           2.9000   -3.3330    0.0000 C.3     1  LIG1        0.0044
     12 C           4.2000   -1.8380    0.0000 C.3     1  LIG1        0.0044
     13 C           4.4540   -2.5630    0.0000 C.3     1  LIG1        0.0044
     14 C           2.0080   -1.5420    0.0000 C.ar    1  LIG1       -0.0042
     15 C           1.5630   -0.6500    0.0000 C.ar    1  LIG1        0.0017
     16 N          -0.2960    2.7790    0.0000 N.am    1  LIG1       -0.1420
     17 C          -1.1580    2.2670    0.0000 C.2     1  LIG1        0.2595
     18 O          -2.0290    2.7500    0.0000 O.2     1  LIG1       -0.2719
     19 C          -1.1500    1.2670    0.0000 C.3     1  LIG1        0.1511
     20 S          -2.0080    0.7540    0.0000 S.3     1  LIG1       -0.0768
     21 C          -2.8750    1.2380    0.0000 C.ar    1  LIG1        0.1596
     22 S          -2.9920    2.2290    0.0000 S.2     1  LIG1       -0.0435
     23 C          -3.9750    2.4250    0.0000 C.ar    1  LIG1        0.1120
     24 N          -4.4580    1.5540    0.0000 N.ar    1  LIG1       -0.1448
     25 N          -3.7790    0.8210    0.0000 N.ar    1  LIG1       -0.1347
     26 C          -4.3880    3.3380    0.0000 C.3     1  LIG1        0.0614
@<TRIPOS>BOND
     1     1     2   ar
     2     1     5   ar
     3     2     3   ar
     4     2    16    1
     5     3     4   ar
     6     4     5   ar
     7     5     6    1
     8     6     7   ar
     9     6    15   ar
    10     7     8   ar
    11     8     9   ar
    12     9    10    1
    13     9    14   ar
    14    10    11    1
    15    10    12    1
    16    10    13    1
    17    14    15   ar
    18    16    17   am
    19    17    18    2
    20    17    19    1
    21    19    20    1
    22    20    21    1
    23    21    22   ar
    24    21    25   ar
    25    22    23   ar
    26    23    24   ar
    27    23    26    1
    28    24    25   ar
