@<TRIPOS>MOLECULE
32014_ChemDiv_6481-7367
 33 37 0 0 0
SMALL
GASTEIGER
Energy = 0

@<TRIPOS>ATOM
      1 N           3.6710    0.2500    0.0000 N.ar    1  LIG1       -0.2634
      2 C           4.6420    0.4500    0.0000 C.ar    1  LIG1        0.2016
      3 N           5.1460   -0.4000    0.0000 N.ar    1  LIG1       -0.1209
      4 N           4.4750   -1.1330    0.0000 N.ar    1  LIG1       -0.1212
      5 C           3.5750   -0.7250    0.0000 C.ar    1  LIG1        0.1979
      6 S           2.6920   -1.2250    0.0000 S.3     1  LIG1       -0.0655
      7 C           1.8330   -0.7250    0.0000 C.3     1  LIG1        0.1501
      8 C           0.9630   -1.2250    0.0000 C.2     1  LIG1        0.2373
      9 N           0.0750   -0.7080    0.0000 N.am    1  LIG1       -0.2744
     10 C          -0.7920   -1.2130    0.0000 C.3     1  LIG1        0.1199
     11 C          -1.6540   -0.7080    0.0000 C.ar    1  LIG1       -0.0030
     12 C          -1.6540    0.2710    0.0000 C.ar    1  LIG1       -0.0196
     13 C          -2.5330    0.7790    0.0000 C.ar    1  LIG1        0.0356
     14 C          -3.4000    0.2710    0.0000 C.ar    1  LIG1        0.1721
     15 C          -3.4000   -0.7080    0.0000 C.ar    1  LIG1        0.1721
     16 C          -2.5330   -1.2130    0.0000 C.ar    1  LIG1        0.0371
     17 O          -4.2580   -1.2250    0.0000 O.3     1  LIG1       -0.4684
     18 C          -5.1500   -0.7250    0.0000 C.3     1  LIG1        0.2526
     19 O          -4.2580    0.7790    0.0000 O.3     1  LIG1       -0.4684
     20 C          -5.1380    0.2710    0.0000 C.3     1  LIG1        0.2526
     21 C          -0.7920    0.7790    0.0000 C.3     1  LIG1        0.0477
     22 C           0.0750    0.2710    0.0000 C.3     1  LIG1        0.0984
     23 O           0.9580   -2.2380    0.0000 O.2     1  LIG1       -0.2739
     24 S           4.7580    1.4500    0.0000 S.2     1  LIG1       -0.0463
     25 C           3.8460    1.8670    0.0000 C.ar    1  LIG1        0.0560
     26 C           3.1750    1.1210    0.0000 C.ar    1  LIG1        0.0742
     27 C           2.1880    1.2210    0.0000 C.ar    1  LIG1        0.0168
     28 C           1.7790    2.1500    0.0000 C.ar    1  LIG1        0.0023
     29 C           0.7960    2.2420    0.0000 C.ar    1  LIG1        0.0114
     30 C           0.2130    1.4460    0.0000 C.ar    1  LIG1        0.0577
     31 C           0.6170    0.5290    0.0000 C.ar    1  LIG1        0.0114
     32 C           1.5960    0.4290    0.0000 C.ar    1  LIG1        0.0023
     33 CL         -0.7920    1.5500    0.0000 Cl      1  LIG1       -0.0822
@<TRIPOS>BOND
     1     1     2   ar
     2     1     5   ar
     3     1    26   ar
     4     2     3   ar
     5     2    24   ar
     6     3     4   ar
     7     4     5   ar
     8     5     6    1
     9     6     7    1
    10     7     8    1
    11     8     9   am
    12     8    23    2
    13     9    10    1
    14     9    22    1
    15    10    11    1
    16    11    12   ar
    17    11    16   ar
    18    12    13   ar
    19    12    21    1
    20    13    14   ar
    21    14    15   ar
    22    14    19    1
    23    15    16   ar
    24    15    17    1
    25    17    18    1
    26    19    20    1
    27    21    22    1
    28    24    25   ar
    29    25    26   ar
    30    26    27    1
    31    27    28   ar
    32    27    32   ar
    33    28    29   ar
    34    29    30   ar
    35    30    31   ar
    36    30    33    1
    37    31    32   ar
