@<TRIPOS>MOLECULE
32018_ChemDiv_5737-0023
 27 30 0 0 0
SMALL
GASTEIGER
Energy = 0

@<TRIPOS>ATOM
      1 C          -0.3420    1.1500    0.0000 C.ar    1  LIG1        0.1103
      2 N          -0.9170    0.3420    0.0000 N.ar    1  LIG1       -0.3210
      3 C          -1.8750    0.6500    0.0000 C.ar    1  LIG1        0.0598
      4 C          -1.8750    1.6420    0.0000 C.ar    1  LIG1        0.0134
      5 C          -0.9290    1.9630    0.0000 C.ar    1  LIG1        0.0012
      6 C          -0.5250    2.8830    0.0000 C.3     1  LIG1        0.0495
      7 C           0.4880    2.9920    0.0000 C.3     1  LIG1        0.0985
      8 N           1.0830    2.1630    0.0000 N.am    1  LIG1       -0.2728
      9 C           0.6710    1.2500    0.0000 C.2     1  LIG1        0.2647
     10 O           1.2500    0.4330    0.0000 O.2     1  LIG1       -0.2683
     11 C           2.0750    2.2790    0.0000 C.3     1  LIG1        0.1152
     12 C          -2.7290    2.1420    0.0000 C.ar    1  LIG1        0.0012
     13 C          -3.5920    1.6420    0.0000 C.ar    1  LIG1        0.0001
     14 C          -3.5920    0.6500    0.0000 C.ar    1  LIG1        0.0015
     15 C          -2.7290    0.1580    0.0000 C.ar    1  LIG1        0.0172
     16 C          -0.6130   -0.6040    0.0000 C.3     1  LIG1        0.1454
     17 C          -1.2790   -1.3460    0.0000 C.3     1  LIG1        0.2365
     18 O          -2.2630   -1.1420    0.0000 O.3     1  LIG1       -0.2144
     19 C          -0.9750   -2.3000    0.0000 C.3     1  LIG1        0.2364
     20 N           0.0040   -2.5040    0.0000 N.4     1  LIG1        0.4541
     21 C           0.6290   -1.7290    0.0000 C.3     1  LIG1        0.2285
     22 C           1.6130   -1.8960    0.0000 C.ar    1  LIG1        0.0402
     23 C           1.9580   -2.8330    0.0000 C.ar    1  LIG1        0.0016
     24 C           2.9580   -2.9880    0.0000 C.ar    1  LIG1       -0.0001
     25 C           3.5880   -2.2170    0.0000 C.ar    1  LIG1       -0.0000
     26 C           3.2250   -1.2880    0.0000 C.ar    1  LIG1       -0.0001
     27 C           2.2420   -1.1250    0.0000 C.ar    1  LIG1        0.0016
@<TRIPOS>BOND
     1     1     2   ar
     2     1     5   ar
     3     1     9    1
     4     2     3   ar
     5     2    16    1
     6     3     4   ar
     7     3    15   ar
     8     4     5   ar
     9     4    12   ar
    10     5     6    1
    11     6     7    1
    12     7     8    1
    13     8     9   am
    14     8    11    1
    15     9    10    2
    16    12    13   ar
    17    13    14   ar
    18    14    15   ar
    19    16    17    1
    20    17    18    1
    21    17    19    1
    22    19    20    1
    23    20    21    1
    24    21    22    1
    25    22    23   ar
    26    22    27   ar
    27    23    24   ar
    28    24    25   ar
    29    25    26   ar
    30    26    27   ar
