@<TRIPOS>MOLECULE
32012_ChemDiv_6481-7344
 25 29 0 0 0
SMALL
GASTEIGER
Energy = 0

@<TRIPOS>ATOM
      1 N           2.2170    0.5040    0.0000 N.ar    1  LIG1       -0.2634
      2 C           3.1920    0.7130    0.0000 C.ar    1  LIG1        0.2016
      3 N           3.7130   -0.1500    0.0000 N.ar    1  LIG1       -0.1209
      4 N           3.0290   -0.9000    0.0000 N.ar    1  LIG1       -0.1212
      5 C           2.1170   -0.4920    0.0000 C.ar    1  LIG1        0.1978
      6 S           1.2380   -1.0040    0.0000 S.3     1  LIG1       -0.0705
      7 C           0.3670   -0.5080    0.0000 C.3     1  LIG1        0.0915
      8 C          -0.4920   -1.0040    0.0000 C.ar    1  LIG1       -0.0077
      9 C          -1.3500   -0.5080    0.0000 C.ar    1  LIG1        0.0368
     10 C          -2.2000   -1.0040    0.0000 C.ar    1  LIG1        0.1761
     11 C          -2.2000   -2.0000    0.0000 C.ar    1  LIG1        0.1764
     12 O          -3.1420   -2.3040    0.0000 O.3     1  LIG1       -0.4346
     13 C          -3.7170   -1.5080    0.0000 C.3     1  LIG1        0.4294
     14 O          -3.1420   -0.7040    0.0000 O.3     1  LIG1       -0.4346
     15 C          -1.3500   -2.4830    0.0000 C.ar    1  LIG1        0.0399
     16 C          -0.4920   -2.0000    0.0000 C.ar    1  LIG1       -0.0001
     17 S           3.2920    1.7210    0.0000 S.2     1  LIG1       -0.0463
     18 C           2.3710    2.1250    0.0000 C.ar    1  LIG1        0.0560
     19 C           1.7000    1.3710    0.0000 C.ar    1  LIG1        0.0742
     20 C           0.6960    1.4670    0.0000 C.ar    1  LIG1        0.0168
     21 C           0.2920    2.3880    0.0000 C.ar    1  LIG1        0.0015
     22 C          -0.7130    2.4880    0.0000 C.ar    1  LIG1        0.0000
     23 C          -1.3040    1.6710    0.0000 C.ar    1  LIG1        0.0000
     24 C          -0.8880    0.7500    0.0000 C.ar    1  LIG1        0.0000
     25 C           0.1250    0.6540    0.0000 C.ar    1  LIG1        0.0015
@<TRIPOS>BOND
     1     1     2   ar
     2     1     5   ar
     3     1    19   ar
     4     2     3   ar
     5     2    17   ar
     6     3     4   ar
     7     4     5   ar
     8     5     6    1
     9     6     7    1
    10     7     8    1
    11     8     9   ar
    12     8    16   ar
    13     9    10   ar
    14    10    11   ar
    15    10    14    1
    16    11    12    1
    17    11    15   ar
    18    12    13    1
    19    13    14    1
    20    15    16   ar
    21    17    18   ar
    22    18    19   ar
    23    19    20    1
    24    20    21   ar
    25    20    25   ar
    26    21    22   ar
    27    22    23   ar
    28    23    24   ar
    29    24    25   ar
