@<TRIPOS>MOLECULE
32019_ChemDiv_8017-7120
 19 21 0 0 0
SMALL
GASTEIGER
Energy = 0

@<TRIPOS>ATOM
      1 N          -1.7210    0.1790    0.0000 N.ar    1  LIG1       -0.1830
      2 C          -2.6830   -0.0790    0.0000 C.ar    1  LIG1        0.3170
      3 O          -2.7290   -1.0670    0.0000 O.2     1  LIG1       -0.3275
      4 N          -1.7960   -1.4290    0.0000 N.ar    1  LIG1       -0.0554
      5 C          -1.1790   -0.6420    0.0000 C.ar    1  LIG1        0.2037
      6 C          -0.1670   -0.6500    0.0000 C.ar    1  LIG1        0.0392
      7 C           0.3290   -1.5170    0.0000 C.ar    1  LIG1        0.0046
      8 C           1.3420   -1.5170    0.0000 C.ar    1  LIG1        0.0176
      9 C           1.8420   -0.6500    0.0000 C.ar    1  LIG1        0.0641
     10 N           2.8500   -0.6500    0.0000 N.ar    1  LIG1       -0.3036
     11 C           3.4000   -1.4790    0.0000 C.ar    1  LIG1        0.0802
     12 C           4.3630   -1.2130    0.0000 C.ar    1  LIG1        0.0205
     13 C           4.4040   -0.2210    0.0000 C.ar    1  LIG1        0.0205
     14 C           3.4670    0.1330    0.0000 C.ar    1  LIG1        0.0802
     15 C           1.3420    0.2080    0.0000 C.ar    1  LIG1        0.0176
     16 C           0.3290    0.2080    0.0000 C.ar    1  LIG1        0.0046
     17 C          -3.4790    0.5330    0.0000 C.2     1  LIG1        0.3405
     18 O          -3.3460    1.5210    0.0000 O.2     1  LIG1       -0.2614
     19 N          -4.4080    0.1540    0.0000 N.am    1  LIG1       -0.0795
@<TRIPOS>BOND
     1     1     2   ar
     2     1     5   ar
     3     2     3   ar
     4     2    17    1
     5     3     4   ar
     6     4     5   ar
     7     5     6    1
     8     6     7   ar
     9     6    16   ar
    10     7     8   ar
    11     8     9   ar
    12     9    10    1
    13     9    15   ar
    14    10    11   ar
    15    10    14   ar
    16    11    12   ar
    17    12    13   ar
    18    13    14   ar
    19    15    16   ar
    20    17    18    2
    21    17    19   am
