@<TRIPOS>MOLECULE
32011_ChemDiv_5593-1009
 31 33 0 0 0
SMALL
GASTEIGER
Energy = 0

@<TRIPOS>ATOM
      1 N          -1.2420    0.0290    0.0000 N.am    1  LIG1       -0.2031
      2 C          -0.6670    0.8460    0.0000 C.2     1  LIG1        0.2419
      3 C           0.2880    0.5460    0.0000 C.3     1  LIG1        0.1581
      4 C           0.3000   -0.4540    0.0000 C.3     1  LIG1        0.2305
      5 C          -0.6500   -0.7830    0.0000 C.2     1  LIG1        0.2927
      6 O          -0.9540   -1.7380    0.0000 O.2     1  LIG1       -0.2677
      7 N           1.1040   -1.0290    0.0000 N.4     1  LIG1        0.4512
      8 C           2.0130   -0.6170    0.0000 C.3     1  LIG1        0.2058
      9 C           2.8170   -1.1830    0.0000 C.3     1  LIG1        0.0952
     10 C           3.7330   -0.7670    0.0000 C.ar    1  LIG1       -0.0158
     11 C           4.5540   -1.3580    0.0000 C.ar    1  LIG1       -0.0009
     12 C           5.4500   -0.9380    0.0000 C.ar    1  LIG1        0.0366
     13 C           5.5500    0.0670    0.0000 C.ar    1  LIG1        0.1387
     14 C           4.7250    0.6540    0.0000 C.ar    1  LIG1        0.0366
     15 C           3.8250    0.2250    0.0000 C.ar    1  LIG1       -0.0009
     16 O           6.4460    0.4830    0.0000 O.3     1  LIG1       -0.4714
     17 C           7.2630   -0.1000    0.0000 C.3     1  LIG1        0.2525
     18 O          -0.9880    1.7920    0.0000 O.2     1  LIG1       -0.2739
     19 C          -2.2420    0.0170    0.0000 C.ar    1  LIG1        0.0610
     20 C          -2.7290   -0.8580    0.0000 C.ar    1  LIG1        0.0184
     21 C          -3.7290   -0.8750    0.0000 C.ar    1  LIG1        0.0382
     22 C          -4.2380   -0.0170    0.0000 C.ar    1  LIG1        0.1386
     23 C          -3.7380    0.8630    0.0000 C.ar    1  LIG1        0.0382
     24 C          -2.7540    0.8670    0.0000 C.ar    1  LIG1        0.0184
     25 O          -5.2380   -0.0290    0.0000 O.3     1  LIG1       -0.4755
     26 C          -5.7540    0.8330    0.0000 C.3     1  LIG1        0.2054
     27 C          -6.7460    0.8170    0.0000 C.3     1  LIG1        0.0473
     28 C          -7.2630   -0.0460    0.0000 C.3     1  LIG1        0.0038
     29 C          -6.7630   -0.9210    0.0000 C.3     1  LIG1        0.0001
     30 C          -5.7670   -0.9210    0.0000 C.3     1  LIG1        0.0000
     31 C          -5.2670   -1.7880    0.0000 C.3     1  LIG1        0.0000
@<TRIPOS>BOND
     1     1     2   am
     2     1     5   am
     3     1    19    1
     4     2     3    1
     5     2    18    2
     6     3     4    1
     7     4     5    1
     8     4     7    1
     9     5     6    2
    10     7     8    1
    11     8     9    1
    12     9    10    1
    13    10    11   ar
    14    10    15   ar
    15    11    12   ar
    16    12    13   ar
    17    13    14   ar
    18    13    16    1
    19    14    15   ar
    20    16    17    1
    21    19    20   ar
    22    19    24   ar
    23    20    21   ar
    24    21    22   ar
    25    22    23   ar
    26    22    25    1
    27    23    24   ar
    28    25    26    1
    29    26    27    1
    30    27    28    1
    31    28    29    1
    32    29    30    1
    33    30    31    1
