@<TRIPOS>MOLECULE
32016_ChemDiv_6574-0151
 31 35 0 0 0
SMALL
GASTEIGER
Energy = 0

@<TRIPOS>ATOM
      1 N           3.8880   -0.1290    0.0000 N.ar    1  LIG1       -0.2634
      2 C           4.6080   -0.8290    0.0000 C.ar    1  LIG1        0.2016
      3 N           4.1670   -1.7210    0.0000 N.ar    1  LIG1       -0.1209
      4 N           3.1790   -1.5880    0.0000 N.ar    1  LIG1       -0.1212
      5 C           3.0170   -0.6080    0.0000 C.ar    1  LIG1        0.1979
      6 S           2.1080   -0.1580    0.0000 S.3     1  LIG1       -0.0654
      7 C           1.5830    0.6920    0.0000 C.3     1  LIG1        0.1520
      8 C           0.5710    0.6460    0.0000 C.2     1  LIG1        0.2595
      9 N           0.0880   -0.2290    0.0000 N.am    1  LIG1       -0.1420
     10 C          -0.9130   -0.2500    0.0000 C.ar    1  LIG1        0.2503
     11 N          -1.4750   -1.0920    0.0000 N.ar    1  LIG1       -0.2036
     12 C          -2.4330   -0.8130    0.0000 C.ar    1  LIG1        0.1312
     13 S          -2.4670    0.1830    0.0000 S.2     1  LIG1        0.0355
     14 N          -1.5380    0.5250    0.0000 N.ar    1  LIG1       -0.1728
     15 C          -3.1960   -1.4580    0.0000 C.ar    1  LIG1        0.0254
     16 C          -4.1500   -1.1170    0.0000 C.ar    1  LIG1        0.0029
     17 C          -4.8920   -1.7830    0.0000 C.ar    1  LIG1        0.0115
     18 C          -4.7130   -2.7500    0.0000 C.ar    1  LIG1        0.0577
     19 C          -3.7830   -3.0960    0.0000 C.ar    1  LIG1        0.0115
     20 C          -3.0080   -2.4380    0.0000 C.ar    1  LIG1        0.0029
     21 CL         -5.4960   -3.4040    0.0000 Cl      1  LIG1       -0.0822
     22 O           0.0380    1.4960    0.0000 O.2     1  LIG1       -0.2719
     23 S           5.4920   -0.3670    0.0000 S.2     1  LIG1       -0.0463
     24 C           5.3210    0.6210    0.0000 C.ar    1  LIG1        0.0560
     25 C           4.3330    0.7540    0.0000 C.ar    1  LIG1        0.0742
     26 C           3.8670    1.6420    0.0000 C.ar    1  LIG1        0.0168
     27 C           4.4130    2.4880    0.0000 C.ar    1  LIG1        0.0015
     28 C           3.9420    3.3580    0.0000 C.ar    1  LIG1        0.0000
     29 C           2.9380    3.4080    0.0000 C.ar    1  LIG1        0.0000
     30 C           2.4080    2.5670    0.0000 C.ar    1  LIG1        0.0000
     31 C           2.8750    1.6790    0.0000 C.ar    1  LIG1        0.0015
@<TRIPOS>BOND
     1     1     2   ar
     2     1     5   ar
     3     1    25   ar
     4     2     3   ar
     5     2    23   ar
     6     3     4   ar
     7     4     5   ar
     8     5     6    1
     9     6     7    1
    10     7     8    1
    11     8     9   am
    12     8    22    2
    13     9    10    1
    14    10    11   ar
    15    10    14   ar
    16    11    12   ar
    17    12    13   ar
    18    12    15    1
    19    13    14   ar
    20    15    16   ar
    21    15    20   ar
    22    16    17   ar
    23    17    18   ar
    24    18    19   ar
    25    18    21    1
    26    19    20   ar
    27    23    24   ar
    28    24    25   ar
    29    25    26    1
    30    26    27   ar
    31    26    31   ar
    32    27    28   ar
    33    28    29   ar
    34    29    30   ar
    35    30    31   ar
