@<TRIPOS>MOLECULE
32017_ChemDiv_8017-5487
 22 24 0 0 0
SMALL
GASTEIGER
Energy = 0

@<TRIPOS>ATOM
      1 N           0.4170   -0.2420    0.0000 N.ar    1  LIG1       -0.1830
      2 C           1.3750    0.0710    0.0000 C.ar    1  LIG1        0.3153
      3 O           1.3750    1.0710    0.0000 O.2     1  LIG1       -0.3276
      4 N           0.4170    1.3830    0.0000 N.ar    1  LIG1       -0.0554
      5 C          -0.1710    0.5710    0.0000 C.ar    1  LIG1        0.2037
      6 C          -1.1710    0.5710    0.0000 C.ar    1  LIG1        0.0392
      7 C          -1.6710   -0.2920    0.0000 C.ar    1  LIG1        0.0046
      8 C          -2.6710   -0.2920    0.0000 C.ar    1  LIG1        0.0176
      9 C          -3.1710    0.5710    0.0000 C.ar    1  LIG1        0.0641
     10 N          -4.1710    0.5710    0.0000 N.ar    1  LIG1       -0.3036
     11 C          -4.7580    1.3750    0.0000 C.ar    1  LIG1        0.0802
     12 C          -5.7080    1.0710    0.0000 C.ar    1  LIG1        0.0205
     13 C          -5.7080    0.0710    0.0000 C.ar    1  LIG1        0.0205
     14 C          -4.7580   -0.2420    0.0000 C.ar    1  LIG1        0.0802
     15 C          -2.6710    1.4330    0.0000 C.ar    1  LIG1        0.0176
     16 C          -1.6710    1.4330    0.0000 C.ar    1  LIG1        0.0046
     17 C           2.2380   -0.4290    0.0000 C.2     1  LIG1        0.3214
     18 O           2.2380   -1.4290    0.0000 O.2     1  LIG1       -0.2631
     19 N           3.1040    0.0710    0.0000 N.am    1  LIG1       -0.1906
     20 C           3.9670   -0.4290    0.0000 C.3     1  LIG1        0.1959
     21 C           4.8380    0.0710    0.0000 C.3     1  LIG1        0.3388
     22 N           5.7040   -0.4290    0.0000 N.4     1  LIG1        0.5990
@<TRIPOS>BOND
     1     1     2   ar
     2     1     5   ar
     3     2     3   ar
     4     2    17    1
     5     3     4   ar
     6     4     5   ar
     7     5     6    1
     8     6     7   ar
     9     6    16   ar
    10     7     8   ar
    11     8     9   ar
    12     9    10    1
    13     9    15   ar
    14    10    11   ar
    15    10    14   ar
    16    11    12   ar
    17    12    13   ar
    18    13    14   ar
    19    15    16   ar
    20    17    18    2
    21    17    19   am
    22    19    20    1
    23    20    21    1
    24    21    22    1
