@<TRIPOS>MOLECULE
32024_ChemDiv_5742-0476
 17 18 0 0 0
SMALL
GASTEIGER
Energy = 0

@<TRIPOS>ATOM
      1 N           1.7000    0.4960    0.0000 N.ar    1  LIG1       -0.2474
      2 C           1.7000   -0.4920    0.0000 C.ar    1  LIG1        0.3524
      3 N           0.8630   -1.0000    0.0000 N.ar    1  LIG1       -0.1920
      4 C           0.0000   -0.4920    0.0000 C.ar    1  LIG1        0.0906
      5 C           0.0000    0.4960    0.0000 C.ar    1  LIG1        0.0740
      6 C           0.8630    1.0080    0.0000 C.ar    1  LIG1        0.2657
      7 O           0.8960    1.9920    0.0000 O.2     1  LIG1       -0.2668
      8 C          -0.8630    1.0080    0.0000 C.ar    1  LIG1        0.0063
      9 C          -1.7380    0.4960    0.0000 C.ar    1  LIG1        0.0014
     10 C          -1.7380   -0.4920    0.0000 C.ar    1  LIG1        0.0155
     11 C          -2.6420   -0.9710    0.0000 C.2     1  LIG1        0.0729
     12 O          -3.4750   -0.4630    0.0000 O.co2   1  LIG1       -0.5446
     13 O          -2.6630   -1.9880    0.0000 O.co2   1  LIG1       -0.5446
     14 C          -0.8630   -1.0000    0.0000 C.ar    1  LIG1        0.0205
     15 O           2.6000   -0.9710    0.0000 O.2     1  LIG1       -0.2444
     16 C           2.6000    0.9420    0.0000 C.3     1  LIG1        0.1137
     17 C           3.4710    0.4040    0.0000 C.3     1  LIG1        0.0267
@<TRIPOS>BOND
     1     1     2   ar
     2     1     6   ar
     3     1    16    1
     4     2     3   ar
     5     2    15    2
     6     3     4   ar
     7     4     5   ar
     8     4    14   ar
     9     5     6   ar
    10     5     8   ar
    11     6     7    2
    12     8     9   ar
    13     9    10   ar
    14    10    11    1
    15    10    14   ar
    16    11    12   ar
    17    11    13   ar
    18    16    17    1
