@<TRIPOS>MOLECULE
32025_ChemDiv_C599-0226
 28 32 0 0 0
SMALL
GASTEIGER
Energy = 0

@<TRIPOS>ATOM
      1 N           1.1170    0.5380    0.0000 N.ar    1  LIG1       -0.1893
      2 C           2.1420    0.7580    0.0000 C.ar    1  LIG1        0.2033
      3 N           2.6540   -0.1540    0.0000 N.ar    1  LIG1       -0.0560
      4 O           1.9540   -0.9250    0.0000 O.2     1  LIG1       -0.3352
      5 C           1.0040   -0.4790    0.0000 C.ar    1  LIG1        0.2569
      6 C           0.0960   -0.9920    0.0000 C.3     1  LIG1        0.1820
      7 N           0.0960   -2.0250    0.0000 N.am    1  LIG1       -0.2728
      8 C          -0.8080   -2.5380    0.0000 C.2     1  LIG1        0.2250
      9 C          -1.6250   -2.0540    0.0000 C.3     1  LIG1        0.0691
     10 C          -2.4580   -1.7710    0.0000 C.3     1  LIG1        0.0086
     11 C          -2.9880   -1.0830    0.0000 C.3     1  LIG1        0.0005
     12 C          -4.0290   -1.3420    0.0000 C.3     1  LIG1        0.0000
     13 C          -3.1170   -1.6170    0.0000 C.3     1  LIG1        0.0005
     14 C          -2.5710   -2.3790    0.0000 C.3     1  LIG1        0.0086
     15 C          -2.5830   -0.8000    0.0000 C.3     1  LIG1        0.0000
     16 C          -1.6420   -0.5080    0.0000 C.3     1  LIG1        0.0005
     17 C          -1.1170   -1.2670    0.0000 C.3     1  LIG1        0.0086
     18 C          -2.4960   -0.3130    0.0000 C.3     1  LIG1        0.0000
     19 O          -0.8170   -3.5750    0.0000 O.2     1  LIG1       -0.2749
     20 C           0.9880   -2.5420    0.0000 C.3     1  LIG1        0.0759
     21 C           0.9790   -3.5830    0.0000 C.3     1  LIG1        0.0215
     22 C           1.8920   -2.0330    0.0000 C.3     1  LIG1        0.0215
     23 C           2.5630    1.7040    0.0000 C.ar    1  LIG1        0.0391
     24 C           3.6000    1.8130    0.0000 C.ar    1  LIG1        0.0032
     25 C           4.0250    2.7540    0.0000 C.ar    1  LIG1        0.0001
     26 C           3.4170    3.5880    0.0000 C.ar    1  LIG1        0.0000
     27 C           2.3790    3.4790    0.0000 C.ar    1  LIG1        0.0001
     28 C           1.9540    2.5330    0.0000 C.ar    1  LIG1        0.0032
@<TRIPOS>BOND
     1     1     2   ar
     2     1     5   ar
     3     2     3   ar
     4     2    23    1
     5     3     4   ar
     6     4     5   ar
     7     5     6    1
     8     6     7    1
     9     7     8   am
    10     7    20    1
    11     8     9    1
    12     8    19    2
    13     9    10    1
    14     9    14    1
    15     9    17    1
    16    10    11    1
    17    11    12    1
    18    11    18    1
    19    12    13    1
    20    13    14    1
    21    13    15    1
    22    15    16    1
    23    16    17    1
    24    16    18    1
    25    20    21    1
    26    20    22    1
    27    23    24   ar
    28    23    28   ar
    29    24    25   ar
    30    25    26   ar
    31    26    27   ar
    32    27    28   ar
