@<TRIPOS>MOLECULE
32023_ChemDiv_8017-9224
 27 30 0 0 0
SMALL
GASTEIGER
Energy = 0

@<TRIPOS>ATOM
      1 N           0.4540   -0.2880    0.0000 N.ar    1  LIG1       -0.1830
      2 C           1.4080    0.0210    0.0000 C.ar    1  LIG1        0.3153
      3 O           1.4080    1.0210    0.0000 O.2     1  LIG1       -0.3276
      4 N           0.4540    1.3330    0.0000 N.ar    1  LIG1       -0.0554
      5 C          -0.1330    0.5210    0.0000 C.ar    1  LIG1        0.2037
      6 C          -1.1380    0.5210    0.0000 C.ar    1  LIG1        0.0392
      7 C          -1.6380    1.3880    0.0000 C.ar    1  LIG1        0.0046
      8 C          -2.6380    1.3880    0.0000 C.ar    1  LIG1        0.0176
      9 C          -3.1380    0.5210    0.0000 C.ar    1  LIG1        0.0641
     10 N          -4.1420    0.5210    0.0000 N.ar    1  LIG1       -0.3036
     11 C          -4.7250   -0.2880    0.0000 C.ar    1  LIG1        0.0802
     12 C          -5.6750    0.0210    0.0000 C.ar    1  LIG1        0.0205
     13 C          -5.6750    1.0210    0.0000 C.ar    1  LIG1        0.0205
     14 C          -4.7250    1.3330    0.0000 C.ar    1  LIG1        0.0802
     15 C          -2.6380   -0.3420    0.0000 C.ar    1  LIG1        0.0176
     16 C          -1.6380   -0.3420    0.0000 C.ar    1  LIG1        0.0046
     17 C           2.2710   -0.4790    0.0000 C.2     1  LIG1        0.3212
     18 O           2.2710   -1.4750    0.0000 O.2     1  LIG1       -0.2631
     19 N           3.1330    0.0210    0.0000 N.am    1  LIG1       -0.1975
     20 C           3.1330    1.0250    0.0000 C.3     1  LIG1        0.1176
     21 C           4.0040    1.5210    0.0000 C.3     1  LIG1        0.0480
     22 C           4.8710    1.0210    0.0000 C.3     1  LIG1        0.1095
     23 N           4.8710    0.0210    0.0000 N.ar    1  LIG1       -0.3078
     24 C           5.6710   -0.5670    0.0000 C.ar    1  LIG1        0.1786
     25 N           5.3670   -1.5170    0.0000 N.ar    1  LIG1       -0.2223
     26 C           4.3670   -1.5170    0.0000 C.ar    1  LIG1        0.1193
     27 C           4.0580   -0.5670    0.0000 C.ar    1  LIG1        0.0980
@<TRIPOS>BOND
     1     1     2   ar
     2     1     5   ar
     3     2     3   ar
     4     2    17    1
     5     3     4   ar
     6     4     5   ar
     7     5     6    1
     8     6     7   ar
     9     6    16   ar
    10     7     8   ar
    11     8     9   ar
    12     9    10    1
    13     9    15   ar
    14    10    11   ar
    15    10    14   ar
    16    11    12   ar
    17    12    13   ar
    18    13    14   ar
    19    15    16   ar
    20    17    18    2
    21    17    19   am
    22    19    20    1
    23    20    21    1
    24    21    22    1
    25    22    23    1
    26    23    24   ar
    27    23    27   ar
    28    24    25   ar
    29    25    26   ar
    30    26    27   ar
