@<TRIPOS>MOLECULE
32026_ChemDiv_8018-0415
 17 18 0 0 0
SMALL
GASTEIGER
Energy = 0

@<TRIPOS>ATOM
      1 N           1.2920    1.2580    0.0000 N.ar    1  LIG1       -0.2467
      2 C           1.3000    0.2500    0.0000 C.ar    1  LIG1        0.3341
      3 N           0.4290   -0.2540    0.0000 N.ar    1  LIG1       -0.2758
      4 C          -0.4380    0.2460    0.0000 C.ar    1  LIG1        0.0688
      5 C          -0.4460    1.2500    0.0000 C.ar    1  LIG1        0.0722
      6 C           0.4170    1.7580    0.0000 C.ar    1  LIG1        0.2656
      7 O           0.4170    2.7580    0.0000 O.2     1  LIG1       -0.2668
      8 C          -1.3080    1.7460    0.0000 C.ar    1  LIG1        0.0062
      9 C          -2.1710    1.2460    0.0000 C.ar    1  LIG1        0.0003
     10 C          -2.1710    0.2460    0.0000 C.ar    1  LIG1        0.0015
     11 C          -1.3080   -0.2540    0.0000 C.ar    1  LIG1        0.0175
     12 C           0.4290   -1.2500    0.0000 C.3     1  LIG1        0.1521
     13 C          -0.4330   -1.7540    0.0000 C.2     1  LIG1        0.0734
     14 O          -0.4330   -2.7540    0.0000 O.co2   1  LIG1       -0.5472
     15 O          -1.2960   -1.2540    0.0000 O.co2   1  LIG1       -0.5472
     16 O           2.1670   -0.2420    0.0000 O.2     1  LIG1       -0.2462
     17 C           2.1540    1.7580    0.0000 C.3     1  LIG1        0.1382
@<TRIPOS>BOND
     1     1     2   ar
     2     1     6   ar
     3     1    17    1
     4     2     3   ar
     5     2    16    2
     6     3     4   ar
     7     3    12    1
     8     4     5   ar
     9     4    11   ar
    10     5     6   ar
    11     5     8   ar
    12     6     7    2
    13     8     9   ar
    14     9    10   ar
    15    10    11   ar
    16    12    13    1
    17    13    14   ar
    18    13    15   ar
