@<TRIPOS>MOLECULE
32021_ChemDiv_8017-7767
 28 31 0 0 0
SMALL
GASTEIGER
Energy = 0

@<TRIPOS>ATOM
      1 N           0.4540    0.0040    0.0000 N.ar    1  LIG1       -0.1830
      2 C          -0.5000   -0.3080    0.0000 C.ar    1  LIG1        0.3153
      3 O          -0.4920   -1.3080    0.0000 O.2     1  LIG1       -0.3276
      4 N           0.4750   -1.6080    0.0000 N.ar    1  LIG1       -0.0554
      5 C           1.0420   -0.7960    0.0000 C.ar    1  LIG1        0.2037
      6 C           2.0380   -0.7790    0.0000 C.ar    1  LIG1        0.0392
      7 C           2.5290    0.1000    0.0000 C.ar    1  LIG1        0.0046
      8 C           3.5250    0.1210    0.0000 C.ar    1  LIG1        0.0176
      9 C           4.0420   -0.7420    0.0000 C.ar    1  LIG1        0.0641
     10 N           5.0420   -0.7210    0.0000 N.ar    1  LIG1       -0.3036
     11 C           5.6420   -1.5210    0.0000 C.ar    1  LIG1        0.0802
     12 C           6.5830   -1.1960    0.0000 C.ar    1  LIG1        0.0205
     13 C           6.5670   -0.1960    0.0000 C.ar    1  LIG1        0.0205
     14 C           5.6080    0.0960    0.0000 C.ar    1  LIG1        0.0802
     15 C           3.5540   -1.6210    0.0000 C.ar    1  LIG1        0.0176
     16 C           2.5500   -1.6330    0.0000 C.ar    1  LIG1        0.0046
     17 C          -1.3750    0.1830    0.0000 C.2     1  LIG1        0.3212
     18 N          -2.2380   -0.3290    0.0000 N.am    1  LIG1       -0.1945
     19 C          -3.1040    0.1630    0.0000 C.3     1  LIG1        0.1529
     20 C          -3.9750   -0.3460    0.0000 C.3     1  LIG1        0.1958
     21 C          -4.8540    0.1500    0.0000 C.ar    1  LIG1        0.0095
     22 C          -4.8670    1.1460    0.0000 C.ar    1  LIG1       -0.0018
     23 C          -5.7330    1.6380    0.0000 C.ar    1  LIG1       -0.0002
     24 C          -6.5830    1.1330    0.0000 C.ar    1  LIG1       -0.0000
     25 C          -6.5790    0.1330    0.0000 C.ar    1  LIG1       -0.0002
     26 C          -5.7170   -0.3670    0.0000 C.ar    1  LIG1       -0.0018
     27 O          -3.9630   -1.3460    0.0000 O.3     1  LIG1       -0.2164
     28 O          -1.3790    1.1830    0.0000 O.2     1  LIG1       -0.2631
@<TRIPOS>BOND
     1     1     2   ar
     2     1     5   ar
     3     2     3   ar
     4     2    17    1
     5     3     4   ar
     6     4     5   ar
     7     5     6    1
     8     6     7   ar
     9     6    16   ar
    10     7     8   ar
    11     8     9   ar
    12     9    10    1
    13     9    15   ar
    14    10    11   ar
    15    10    14   ar
    16    11    12   ar
    17    12    13   ar
    18    13    14   ar
    19    15    16   ar
    20    17    18   am
    21    17    28    2
    22    18    19    1
    23    19    20    1
    24    20    21    1
    25    20    27    1
    26    21    22   ar
    27    21    26   ar
    28    22    23   ar
    29    23    24   ar
    30    24    25   ar
    31    25    26   ar
