@<TRIPOS>MOLECULE
32020_ChemDiv_5737-0027
 32 35 0 0 0
SMALL
GASTEIGER
Energy = 0

@<TRIPOS>ATOM
      1 C          -1.3420    0.9000    0.0000 C.ar    1  LIG1        0.1103
      2 N          -1.9250    0.1080    0.0000 N.ar    1  LIG1       -0.3210
      3 C          -2.8750    0.4170    0.0000 C.ar    1  LIG1        0.0598
      4 C          -2.8750    1.4130    0.0000 C.ar    1  LIG1        0.0134
      5 C          -1.9330    1.7290    0.0000 C.ar    1  LIG1        0.0012
      6 C          -1.5380    2.6540    0.0000 C.3     1  LIG1        0.0495
      7 C          -0.5130    2.7580    0.0000 C.3     1  LIG1        0.0985
      8 N           0.0670    1.9290    0.0000 N.am    1  LIG1       -0.2728
      9 C          -0.3330    1.0170    0.0000 C.2     1  LIG1        0.2647
     10 O           0.2330    0.2000    0.0000 O.2     1  LIG1       -0.2683
     11 C           1.0630    2.0330    0.0000 C.3     1  LIG1        0.1152
     12 C          -3.7420    1.9080    0.0000 C.ar    1  LIG1        0.0012
     13 C          -4.6000    1.4130    0.0000 C.ar    1  LIG1        0.0001
     14 C          -4.6000    0.4130    0.0000 C.ar    1  LIG1        0.0015
     15 C          -3.7420   -0.0750    0.0000 C.ar    1  LIG1        0.0172
     16 C          -1.6210   -0.8540    0.0000 C.3     1  LIG1        0.1454
     17 C          -2.2880   -1.5880    0.0000 C.3     1  LIG1        0.2365
     18 O          -3.2670   -1.3880    0.0000 O.3     1  LIG1       -0.2144
     19 C          -1.9830   -2.5380    0.0000 C.3     1  LIG1        0.2358
     20 N          -1.0000   -2.7540    0.0000 N.4     1  LIG1        0.4505
     21 C          -0.3330   -2.0080    0.0000 C.3     1  LIG1        0.2055
     22 C           0.6380   -2.2250    0.0000 C.3     1  LIG1        0.0953
     23 C           1.3040   -1.4830    0.0000 C.ar    1  LIG1       -0.0128
     24 C           2.2710   -1.6880    0.0000 C.ar    1  LIG1        0.0360
     25 C           2.9420   -0.9500    0.0000 C.ar    1  LIG1        0.1721
     26 C           2.6380   -0.0080    0.0000 C.ar    1  LIG1        0.1724
     27 C           1.6500    0.2130    0.0000 C.ar    1  LIG1        0.0397
     28 C           0.9830   -0.5380    0.0000 C.ar    1  LIG1       -0.0007
     29 O           3.3080    0.7460    0.0000 O.3     1  LIG1       -0.4684
     30 C           4.2750    0.5380    0.0000 C.3     1  LIG1        0.2526
     31 O           3.9130   -1.1580    0.0000 O.3     1  LIG1       -0.4684
     32 C           4.5960   -0.4170    0.0000 C.3     1  LIG1        0.2526
@<TRIPOS>BOND
     1     1     2   ar
     2     1     5   ar
     3     1     9    1
     4     2     3   ar
     5     2    16    1
     6     3     4   ar
     7     3    15   ar
     8     4     5   ar
     9     4    12   ar
    10     5     6    1
    11     6     7    1
    12     7     8    1
    13     8     9   am
    14     8    11    1
    15     9    10    2
    16    12    13   ar
    17    13    14   ar
    18    14    15   ar
    19    16    17    1
    20    17    18    1
    21    17    19    1
    22    19    20    1
    23    20    21    1
    24    21    22    1
    25    22    23    1
    26    23    24   ar
    27    23    28   ar
    28    24    25   ar
    29    25    26   ar
    30    25    31    1
    31    26    27   ar
    32    26    29    1
    33    27    28   ar
    34    29    30    1
    35    31    32    1
