@<TRIPOS>MOLECULE
32034_ChemDiv_5868-0104
 29 31 0 0 0
SMALL
GASTEIGER
Energy = 0

@<TRIPOS>ATOM
      1 C          -0.8750    0.7500    0.0000 C.ar    1  LIG1        0.1790
      2 C          -0.0080    1.2500    0.0000 C.ar    1  LIG1        0.0713
      3 C           0.8540    0.7500    0.0000 C.ar    1  LIG1        0.0074
      4 C           0.8630   -0.2420    0.0000 C.ar    1  LIG1        0.0030
      5 C          -0.0040   -0.7420    0.0000 C.ar    1  LIG1        0.0375
      6 C          -0.8750   -0.2420    0.0000 C.ar    1  LIG1        0.1726
      7 O          -1.7420   -0.7460    0.0000 O.3     1  LIG1       -0.4684
      8 C          -1.7330   -1.7460    0.0000 C.3     1  LIG1        0.2526
      9 C           1.7250   -0.7420    0.0000 C.3     1  LIG1        0.1386
     10 N           2.5920   -0.2420    0.0000 N.pl3   1  LIG1       -0.2327
     11 C           3.4540   -0.7330    0.0000 C.ar    1  LIG1        0.0687
     12 C           4.3290   -0.2330    0.0000 C.ar    1  LIG1        0.0530
     13 C           5.1960   -0.7330    0.0000 C.ar    1  LIG1        0.1400
     14 O           6.0630   -0.2420    0.0000 O.3     1  LIG1       -0.4714
     15 C           6.0630    0.7580    0.0000 C.3     1  LIG1        0.2525
     16 C           5.1960   -1.7420    0.0000 C.ar    1  LIG1        0.0370
     17 C           4.3290   -2.2420    0.0000 C.ar    1  LIG1        0.0044
     18 C           3.4540   -1.7420    0.0000 C.ar    1  LIG1        0.0163
     19 BR         -0.0080    2.2460    0.0000 Br      1  LIG1       -0.0457
     20 O          -1.7460    1.2500    0.0000 O.3     1  LIG1       -0.4620
     21 C          -2.6040    0.7500    0.0000 C.3     1  LIG1        0.2897
     22 C          -3.4750    1.2500    0.0000 C.2     1  LIG1        0.2702
     23 N          -4.3420    0.7420    0.0000 N.am    1  LIG1       -0.2765
     24 C          -5.2080    1.2460    0.0000 C.3     1  LIG1        0.0935
     25 C          -6.0630    0.7330    0.0000 C.3     1  LIG1        0.0216
     26 C          -6.0630   -0.2630    0.0000 C.3     1  LIG1        0.0035
     27 C          -5.2000   -0.7540    0.0000 C.3     1  LIG1        0.0216
     28 C          -4.3420   -0.2540    0.0000 C.3     1  LIG1        0.0935
     29 O          -3.4830    2.2460    0.0000 O.2     1  LIG1       -0.2708
@<TRIPOS>BOND
     1     1     2   ar
     2     1     6   ar
     3     1    20    1
     4     2     3   ar
     5     2    19    1
     6     3     4   ar
     7     4     5   ar
     8     4     9    1
     9     5     6   ar
    10     6     7    1
    11     7     8    1
    12     9    10    1
    13    10    11    1
    14    11    12   ar
    15    11    18   ar
    16    12    13   ar
    17    13    14    1
    18    13    16   ar
    19    14    15    1
    20    16    17   ar
    21    17    18   ar
    22    20    21    1
    23    21    22    1
    24    22    23   am
    25    22    29    2
    26    23    24    1
    27    23    28    1
    28    24    25    1
    29    25    26    1
    30    26    27    1
    31    27    28    1
