@<TRIPOS>MOLECULE
32031_ChemDiv_C599-0359
 34 36 0 0 0
SMALL
GASTEIGER
Energy = 0

@<TRIPOS>ATOM
      1 N           1.9790    0.2380    0.0000 N.ar    1  LIG1       -0.1893
      2 C           2.9880    0.4540    0.0000 C.ar    1  LIG1        0.2033
      3 N           3.5040   -0.4630    0.0000 N.ar    1  LIG1       -0.0560
      4 O           2.8130   -1.2290    0.0000 O.2     1  LIG1       -0.3352
      5 C           1.8630   -0.7830    0.0000 C.ar    1  LIG1        0.2569
      6 C           0.9540   -1.2880    0.0000 C.3     1  LIG1        0.1823
      7 N           0.9540   -2.3210    0.0000 N.am    1  LIG1       -0.2692
      8 C           0.0500   -2.8380    0.0000 C.2     1  LIG1        0.2495
      9 C          -0.7710   -2.3500    0.0000 C.ar    1  LIG1        0.0598
     10 C          -0.7630   -1.4130    0.0000 C.ar    1  LIG1        0.0448
     11 C          -1.5750   -0.9380    0.0000 C.ar    1  LIG1        0.1754
     12 C          -2.3960   -1.3920    0.0000 C.ar    1  LIG1        0.2059
     13 C          -2.4080   -2.3460    0.0000 C.ar    1  LIG1        0.1754
     14 C          -1.5920   -2.8250    0.0000 C.ar    1  LIG1        0.0448
     15 O          -3.2420   -2.8170    0.0000 O.3     1  LIG1       -0.4723
     16 C          -3.2500   -3.7750    0.0000 C.3     1  LIG1        0.2057
     17 C          -4.0790   -4.2420    0.0000 C.3     1  LIG1        0.0512
     18 O          -3.2210   -0.9130    0.0000 O.3     1  LIG1       -0.4695
     19 C          -4.0630   -1.3750    0.0000 C.3     1  LIG1        0.2058
     20 C          -4.8830   -0.8960    0.0000 C.3     1  LIG1        0.0512
     21 O          -1.5630    0.0210    0.0000 O.3     1  LIG1       -0.4723
     22 C          -2.3920    0.5130    0.0000 C.3     1  LIG1        0.2057
     23 C          -2.3790    1.4750    0.0000 C.3     1  LIG1        0.0512
     24 O           0.0330   -3.8750    0.0000 O.2     1  LIG1       -0.2699
     25 C           1.8380   -2.8460    0.0000 C.3     1  LIG1        0.0762
     26 C           2.7380   -2.3330    0.0000 C.3     1  LIG1        0.0215
     27 C           1.8380   -3.8880    0.0000 C.3     1  LIG1        0.0215
     28 C           3.4170    1.4000    0.0000 C.ar    1  LIG1        0.0392
     29 C           4.4500    1.5040    0.0000 C.ar    1  LIG1        0.0040
     30 C           4.8790    2.4540    0.0000 C.ar    1  LIG1        0.0115
     31 C           4.2670    3.2960    0.0000 C.ar    1  LIG1        0.0577
     32 C           3.2330    3.1880    0.0000 C.ar    1  LIG1        0.0115
     33 C           2.8080    2.2420    0.0000 C.ar    1  LIG1        0.0040
     34 CL          4.7040    4.2420    0.0000 Cl      1  LIG1       -0.0822
@<TRIPOS>BOND
     1     1     2   ar
     2     1     5   ar
     3     2     3   ar
     4     2    28    1
     5     3     4   ar
     6     4     5   ar
     7     5     6    1
     8     6     7    1
     9     7     8   am
    10     7    25    1
    11     8     9    1
    12     8    24    2
    13     9    10   ar
    14     9    14   ar
    15    10    11   ar
    16    11    12   ar
    17    11    21    1
    18    12    13   ar
    19    12    18    1
    20    13    14   ar
    21    13    15    1
    22    15    16    1
    23    16    17    1
    24    18    19    1
    25    19    20    1
    26    21    22    1
    27    22    23    1
    28    25    26    1
    29    25    27    1
    30    28    29   ar
    31    28    33   ar
    32    29    30   ar
    33    30    31   ar
    34    31    32   ar
    35    31    34    1
    36    32    33   ar
