@<TRIPOS>MOLECULE
32036_ChemDiv_5868-0137
 19 21 0 0 0
SMALL
GASTEIGER
Energy = 0

@<TRIPOS>ATOM
      1 C          -3.7420   -0.7460    0.0000 C.ar    1  LIG1        0.3688
      2 N          -3.1500    0.0710    0.0000 N.ar    1  LIG1       -0.1893
      3 C          -2.1960   -0.2460    0.0000 C.ar    1  LIG1        0.1050
      4 C          -2.1960   -1.2460    0.0000 C.ar    1  LIG1        0.1038
      5 N          -3.1500   -1.5580    0.0000 N.ar    1  LIG1       -0.1893
      6 C          -1.3290   -1.7460    0.0000 C.ar    1  LIG1        0.0221
      7 C          -0.4580   -1.2460    0.0000 C.ar    1  LIG1        0.0177
      8 C          -0.4580   -0.2460    0.0000 C.ar    1  LIG1        0.0673
      9 C          -1.3290    0.2500    0.0000 C.ar    1  LIG1        0.0369
     10 N           0.4080    0.2500    0.0000 N.pl3   1  LIG1       -0.2328
     11 C           1.2670   -0.2460    0.0000 C.3     1  LIG1        0.1385
     12 C           2.1330    0.2500    0.0000 C.ar    1  LIG1       -0.0007
     13 C           3.0000   -0.2460    0.0000 C.ar    1  LIG1       -0.0029
     14 C           3.8670    0.2500    0.0000 C.ar    1  LIG1       -0.0045
     15 C           3.8670    1.2420    0.0000 C.ar    1  LIG1       -0.0219
     16 C           3.0000    1.7420    0.0000 C.ar    1  LIG1       -0.0045
     17 C           2.1330    1.2420    0.0000 C.ar    1  LIG1       -0.0029
     18 C           4.7290    1.7500    0.0000 C.3     1  LIG1        0.0310
     19 O          -4.7330   -0.7460    0.0000 O.2     1  LIG1       -0.2426
@<TRIPOS>BOND
     1     1     2   ar
     2     1     5   ar
     3     1    19    2
     4     2     3   ar
     5     3     4   ar
     6     3     9   ar
     7     4     5   ar
     8     4     6   ar
     9     6     7   ar
    10     7     8   ar
    11     8     9   ar
    12     8    10    1
    13    10    11    1
    14    11    12    1
    15    12    13   ar
    16    12    17   ar
    17    13    14   ar
    18    14    15   ar
    19    15    16   ar
    20    15    18    1
    21    16    17   ar
