@<TRIPOS>MOLECULE
32032_ChemDiv_5742-0664
 31 34 0 0 0
SMALL
GASTEIGER
Energy = 0

@<TRIPOS>ATOM
      1 S          -1.0080   -0.8290    0.0000 S.O2    1  LIG1       -0.0559
      2 N          -0.0040   -0.8290    0.0000 N.pl3   1  LIG1       -0.5049
      3 C           0.5040    0.0460    0.0000 C.ar    1  LIG1        0.0587
      4 N           1.5040    0.0210    0.0000 N.ar    1  LIG1       -0.2508
      5 C           2.0040    0.8880    0.0000 C.ar    1  LIG1        0.1001
      6 C           2.9920    0.8880    0.0000 C.3     1  LIG1        0.2131
      7 O           3.4710    1.7330    0.0000 O.3     1  LIG1       -0.4427
      8 C           4.4710    1.7420    0.0000 C.2     1  LIG1        0.3412
      9 C           4.9750    0.9040    0.0000 C.ar    1  LIG1        0.0718
     10 C           4.4830    0.0580    0.0000 C.ar    1  LIG1       -0.0119
     11 C           3.5080    0.0460    0.0000 C.3     1  LIG1        0.0765
     12 C           4.9750   -0.8380    0.0000 C.ar    1  LIG1       -0.0039
     13 C           5.9790   -0.8290    0.0000 C.ar    1  LIG1       -0.0003
     14 C           6.4920    0.0580    0.0000 C.ar    1  LIG1        0.0002
     15 C           5.9790    0.9170    0.0000 C.ar    1  LIG1        0.0061
     16 O           4.9750    2.5960    0.0000 O.2     1  LIG1       -0.2449
     17 C           1.5040    1.7630    0.0000 C.ar    1  LIG1        0.0389
     18 C           0.5040    1.7630    0.0000 C.ar    1  LIG1        0.0997
     19 N          -0.0040    0.9170    0.0000 N.ar    1  LIG1       -0.2485
     20 C          -2.0040   -0.8290    0.0000 C.ar    1  LIG1        0.0894
     21 C          -2.5080   -1.6960    0.0000 C.ar    1  LIG1        0.0182
     22 C          -3.5080   -1.6960    0.0000 C.ar    1  LIG1        0.0179
     23 C          -4.0080   -0.8290    0.0000 C.ar    1  LIG1        0.0734
     24 N          -5.0170   -0.8580    0.0000 N.am    1  LIG1       -0.1792
     25 C          -5.5170   -1.7250    0.0000 C.2     1  LIG1        0.2461
     26 O          -6.4920   -1.7540    0.0000 O.2     1  LIG1       -0.2730
     27 C          -4.9880   -2.5920    0.0000 C.3     1  LIG1        0.0968
     28 C          -3.5080    0.0710    0.0000 C.ar    1  LIG1        0.0179
     29 C          -2.5080    0.0460    0.0000 C.ar    1  LIG1        0.0182
     30 O          -1.0080   -1.8290    0.0000 O.2     1  LIG1       -0.1841
     31 O          -1.0080    0.1830    0.0000 O.2     1  LIG1       -0.1841
@<TRIPOS>BOND
     1     1     2    1
     2     1    20    1
     3     1    30    2
     4     1    31    2
     5     2     3    1
     6     3     4   ar
     7     3    19   ar
     8     4     5   ar
     9     5     6    1
    10     5    17   ar
    11     6     7    1
    12     6    11    1
    13     7     8    1
    14     8     9    1
    15     8    16    2
    16     9    10   ar
    17     9    15   ar
    18    10    11    1
    19    10    12   ar
    20    12    13   ar
    21    13    14   ar
    22    14    15   ar
    23    17    18   ar
    24    18    19   ar
    25    20    21   ar
    26    20    29   ar
    27    21    22   ar
    28    22    23   ar
    29    23    24    1
    30    23    28   ar
    31    24    25   am
    32    25    26    2
    33    25    27    1
    34    28    29   ar
