@<TRIPOS>MOLECULE
32035_ChemDiv_8017-4995
 34 38 0 0 0
SMALL
GASTEIGER
Energy = 0

@<TRIPOS>ATOM
      1 N           2.4880    0.9750    0.0000 N.am    1  LIG1       -0.2031
      2 C           2.2330    1.9210    0.0000 C.2     1  LIG1        0.2419
      3 C           1.2630    1.9630    0.0000 C.3     1  LIG1        0.1581
      4 C           0.9130    1.0500    0.0000 C.3     1  LIG1        0.2305
      5 C           1.6750    0.4460    0.0000 C.2     1  LIG1        0.2927
      6 O           1.6250   -0.5290    0.0000 O.2     1  LIG1       -0.2677
      7 N          -0.0250    0.7960    0.0000 N.4     1  LIG1        0.4512
      8 C          -0.7170    1.4750    0.0000 C.3     1  LIG1        0.2058
      9 C          -1.6630    1.2250    0.0000 C.3     1  LIG1        0.0965
     10 C          -2.3540    1.9080    0.0000 C.2     1  LIG1        0.0010
     11 C          -4.0420    1.9000    0.0000 C.2     1  LIG1        0.0008
     12 C          -4.0500    2.8830    0.0000 C.2     1  LIG1        0.0776
     13 N          -3.2130    3.3830    0.0000 N.2     1  LIG1       -0.2445
     14 C          -2.3630    2.8920    0.0000 C.2     1  LIG1        0.0945
     15 C          -4.9000    3.3710    0.0000 C.2     1  LIG1        0.0216
     16 C          -5.7380    2.8750    0.0000 C.2     1  LIG1        0.0342
     17 C          -5.7380    1.9000    0.0000 C.2     1  LIG1        0.1207
     18 C          -4.8960    1.4130    0.0000 C.3     1  LIG1        0.0914
     19 O          -6.5880    1.4130    0.0000 O.2     1  LIG1       -0.4753
     20 C          -7.4210    1.9000    0.0000 C.3     1  LIG1        0.2520
     21 O           2.8460    2.6750    0.0000 O.2     1  LIG1       -0.2739
     22 C           3.4000    0.6330    0.0000 C.ar    1  LIG1        0.0610
     23 C           3.5580   -0.3290    0.0000 C.ar    1  LIG1        0.0184
     24 C           4.4630   -0.6790    0.0000 C.ar    1  LIG1        0.0388
     25 C           5.2250   -0.0630    0.0000 C.ar    1  LIG1        0.1454
     26 O           6.1580   -0.4170    0.0000 O.3     1  LIG1       -0.4535
     27 C           6.3210   -1.4040    0.0000 C.ar    1  LIG1        0.1453
     28 C           5.5460   -2.0380    0.0000 C.ar    1  LIG1        0.0375
     29 C           5.7000   -3.0250    0.0000 C.ar    1  LIG1        0.0031
     30 C           6.6380   -3.3790    0.0000 C.ar    1  LIG1        0.0002
     31 C           7.4210   -2.7380    0.0000 C.ar    1  LIG1        0.0031
     32 C           7.2500   -1.7540    0.0000 C.ar    1  LIG1        0.0375
     33 C           5.0630    0.9080    0.0000 C.ar    1  LIG1        0.0388
     34 C           4.1500    1.2500    0.0000 C.ar    1  LIG1        0.0184
@<TRIPOS>BOND
     1     1     2   am
     2     1     5   am
     3     1    22    1
     4     2     3    1
     5     2    21    2
     6     3     4    1
     7     4     5    1
     8     4     7    1
     9     5     6    2
    10     7     8    1
    11     8     9    1
    12     9    10    1
    13    10    11    2
    14    10    14    1
    15    11    12    1
    16    11    18    1
    17    12    13    1
    18    12    15    2
    19    13    14    2
    20    15    16    1
    21    16    17    2
    22    17    18    1
    23    17    19    1
    24    19    20    1
    25    22    23   ar
    26    22    34   ar
    27    23    24   ar
    28    24    25   ar
    29    25    26    1
    30    25    33   ar
    31    26    27    1
    32    27    28   ar
    33    27    32   ar
    34    28    29   ar
    35    29    30   ar
    36    30    31   ar
    37    31    32   ar
    38    33    34   ar
