@<TRIPOS>MOLECULE
32039_ChemDiv_5594-2772
 32 36 0 0 0
SMALL
GASTEIGER
Energy = 0

@<TRIPOS>ATOM
      1 N           0.9540   -2.4130    0.0000 N.am    1  LIG1       -0.2115
      2 C           1.1130   -3.3790    0.0000 C.2     1  LIG1        0.2556
      3 C           1.9830   -3.5000    0.0000 C.ar    1  LIG1        0.0584
      4 C           2.4630   -2.6210    0.0000 C.ar    1  LIG1        0.0584
      5 C           1.8630   -1.9710    0.0000 C.2     1  LIG1        0.2556
      6 O           1.9830   -0.9420    0.0000 O.2     1  LIG1       -0.2695
      7 C           3.5630   -2.6500    0.0000 C.ar    1  LIG1        0.0047
      8 C           4.0710   -3.4920    0.0000 C.ar    1  LIG1        0.0001
      9 C           3.5420   -4.4210    0.0000 C.ar    1  LIG1        0.0001
     10 C           2.6000   -4.4210    0.0000 C.ar    1  LIG1        0.0047
     11 O           0.2420   -4.1000    0.0000 O.2     1  LIG1       -0.2695
     12 C           0.0630   -1.9000    0.0000 C.3     1  LIG1        0.2106
     13 C           0.0330   -0.8920    0.0000 C.2     1  LIG1        0.3384
     14 O          -0.8080   -0.3830    0.0000 O.3     1  LIG1       -0.4372
     15 C          -0.7750    0.9460    0.0000 C.3     1  LIG1        0.2933
     16 C          -1.5540    1.5040    0.0000 C.2     1  LIG1        0.2778
     17 N          -1.5250    2.4670    0.0000 N.am    1  LIG1       -0.2333
     18 C          -2.3380    2.9460    0.0000 C.ar    1  LIG1        0.0642
     19 C          -2.3380    3.9460    0.0000 C.ar    1  LIG1        0.0435
     20 S          -1.5250    4.4210    0.0000 S.3     1  LIG1       -0.0844
     21 C          -0.6580    3.9040    0.0000 C.ar    1  LIG1        0.0435
     22 C          -0.6580    2.9830    0.0000 C.ar    1  LIG1        0.0642
     23 C           0.2040    2.5040    0.0000 C.ar    1  LIG1        0.0157
     24 C           1.0710    2.9830    0.0000 C.ar    1  LIG1        0.0013
     25 C           1.0710    3.9040    0.0000 C.ar    1  LIG1        0.0006
     26 C           0.2040    4.3790    0.0000 C.ar    1  LIG1        0.0077
     27 C          -3.2040    4.4210    0.0000 C.ar    1  LIG1        0.0077
     28 C          -4.0750    3.9040    0.0000 C.ar    1  LIG1        0.0006
     29 C          -4.0750    2.9830    0.0000 C.ar    1  LIG1        0.0013
     30 C          -3.2040    2.4670    0.0000 C.ar    1  LIG1        0.0157
     31 O          -2.3670    0.9750    0.0000 O.2     1  LIG1       -0.2701
     32 O           0.9540   -0.4630    0.0000 O.2     1  LIG1       -0.2482
@<TRIPOS>BOND
     1     1     2   am
     2     1     5   am
     3     1    12    1
     4     2     3    1
     5     2    11    2
     6     3     4   ar
     7     3    10   ar
     8     4     5    1
     9     4     7   ar
    10     5     6    2
    11     7     8   ar
    12     8     9   ar
    13     9    10   ar
    14    12    13    1
    15    13    14    1
    16    13    32    2
    17    14    15    1
    18    15    16    1
    19    16    17   am
    20    16    31    2
    21    17    18    1
    22    17    22    1
    23    18    19   ar
    24    18    30   ar
    25    19    20    1
    26    19    27   ar
    27    20    21    1
    28    21    22   ar
    29    21    26   ar
    30    22    23   ar
    31    23    24   ar
    32    24    25   ar
    33    25    26   ar
    34    27    28   ar
    35    28    29   ar
    36    29    30   ar
