@<TRIPOS>MOLECULE
32030_ChemDiv_5742-0569
 20 22 0 0 0
SMALL
GASTEIGER
Energy = 0

@<TRIPOS>ATOM
      1 C          -0.3250    0.9960    0.0000 C.ar    1  LIG1        0.2845
      2 C          -0.3250    0.0000    0.0000 C.ar    1  LIG1        0.0792
      3 C           0.5580   -0.4880    0.0000 C.ar    1  LIG1       -0.0099
      4 C           1.4170    0.0000    0.0000 C.ar    1  LIG1        0.0176
      5 C           1.4170    0.9960    0.0000 C.ar    1  LIG1        0.0875
      6 N           0.5580    1.5080    0.0000 N.ar    1  LIG1       -0.2074
      7 C           2.2750    1.5080    0.0000 C.ar    1  LIG1        0.0594
      8 C           3.1580    0.9960    0.0000 C.ar    1  LIG1        0.1779
      9 C           3.1580    0.0000    0.0000 C.ar    1  LIG1        0.1765
     10 C           2.2750   -0.4880    0.0000 C.ar    1  LIG1        0.0414
     11 O           4.1000   -0.2920    0.0000 O.3     1  LIG1       -0.4346
     12 C           4.6670    0.5130    0.0000 C.3     1  LIG1        0.4294
     13 O           4.1000    1.3080    0.0000 O.3     1  LIG1       -0.4346
     14 C           0.5580   -1.5040    0.0000 C.3     1  LIG1        0.0317
     15 S          -1.2080   -0.4880    0.0000 S.3     1  LIG1       -0.1093
     16 C          -2.0630    0.0210    0.0000 C.3     1  LIG1        0.0623
     17 C          -2.9460   -0.4710    0.0000 C.3     1  LIG1        0.0120
     18 C          -3.7880    0.0420    0.0000 C.3     1  LIG1        0.0009
     19 C          -4.6710   -0.4460    0.0000 C.3     1  LIG1        0.0000
     20 O          -1.2080    1.5080    0.0000 O.2     1  LIG1       -0.2647
@<TRIPOS>BOND
     1     1     2   ar
     2     1     6   ar
     3     1    20    2
     4     2     3   ar
     5     2    15    1
     6     3     4   ar
     7     3    14    1
     8     4     5   ar
     9     4    10   ar
    10     5     6   ar
    11     5     7   ar
    12     7     8   ar
    13     8     9   ar
    14     8    13    1
    15     9    10   ar
    16     9    11    1
    17    11    12    1
    18    12    13    1
    19    15    16    1
    20    16    17    1
    21    17    18    1
    22    18    19    1
