@<TRIPOS>MOLECULE
32048_ChemDiv_5910-0319
 22 24 0 0 0
SMALL
GASTEIGER
Energy = 0

@<TRIPOS>ATOM
      1 N          -1.6580   -1.0080    0.0000 N.am    1  LIG1       -0.2747
      2 C          -1.6080   -1.9630    0.0000 C.2     1  LIG1        0.2834
      3 C          -0.7380   -2.4580    0.0000 C.3     1  LIG1        0.2254
      4 N           0.1170   -1.8880    0.0000 N.4     1  LIG1        0.3881
      5 C           0.0210   -0.9460    0.0000 C.3     1  LIG1        0.1666
      6 C           0.8460   -0.3290    0.0000 C.ar    1  LIG1        0.0306
      7 C           1.7630   -0.7290    0.0000 C.ar    1  LIG1       -0.0147
      8 C           1.8580   -1.6710    0.0000 C.3     1  LIG1        0.0889
      9 C           1.1330   -2.3130    0.0000 C.3     1  LIG1        0.1445
     10 C           2.5830   -0.0750    0.0000 C.ar    1  LIG1       -0.0042
     11 C           2.4500    0.9130    0.0000 C.ar    1  LIG1       -0.0003
     12 C           1.4710    1.3130    0.0000 C.ar    1  LIG1       -0.0001
     13 C           0.7000    0.7210    0.0000 C.ar    1  LIG1        0.0011
     14 O          -2.4080   -2.4710    0.0000 O.2     1  LIG1       -0.2684
     15 C          -0.8500   -0.4750    0.0000 C.3     1  LIG1        0.0941
     16 C          -0.8500    0.5040    0.0000 C.3     1  LIG1        0.0307
     17 C          -1.7170    0.9750    0.0000 C.3     1  LIG1        0.0833
     18 C          -1.7170    2.0250    0.0000 C.2     1  LIG1        0.2604
     19 O          -0.8500    2.4750    0.0000 O.2     1  LIG1       -0.2717
     20 N          -2.5880    2.4750    0.0000 N.am    1  LIG1       -0.0878
     21 C          -2.5880    0.5040    0.0000 C.3     1  LIG1        0.0307
     22 C          -2.5290   -0.4750    0.0000 C.3     1  LIG1        0.0941
@<TRIPOS>BOND
     1     1     2   am
     2     1    15    1
     3     1    22    1
     4     2     3    1
     5     2    14    2
     6     3     4    1
     7     4     5    1
     8     4     9    1
     9     5     6    1
    10     6     7   ar
    11     6    13   ar
    12     7     8    1
    13     7    10   ar
    14     8     9    1
    15    10    11   ar
    16    11    12   ar
    17    12    13   ar
    18    15    16    1
    19    16    17    1
    20    17    18    1
    21    17    21    1
    22    18    19    2
    23    18    20   am
    24    21    22    1
