@<TRIPOS>MOLECULE
32041_ChemDiv_8007-8794
 34 37 0 0 0
SMALL
GASTEIGER
Energy = 0

@<TRIPOS>ATOM
      1 N          -3.0290    0.4420    0.0000 N.am    1  LIG1       -0.2333
      2 C          -3.8920    0.9500    0.0000 C.ar    1  LIG1        0.0642
      3 C          -4.7580    0.4420    0.0000 C.ar    1  LIG1        0.0435
      4 S          -4.7580   -0.5540    0.0000 S.3     1  LIG1       -0.0844
      5 C          -3.8920   -1.0580    0.0000 C.ar    1  LIG1        0.0435
      6 C          -3.0290   -0.5540    0.0000 C.ar    1  LIG1        0.0642
      7 C          -2.1580   -1.0580    0.0000 C.ar    1  LIG1        0.0157
      8 C          -2.1580   -2.0500    0.0000 C.ar    1  LIG1        0.0013
      9 C          -3.0290   -2.5500    0.0000 C.ar    1  LIG1        0.0006
     10 C          -3.8920   -2.0500    0.0000 C.ar    1  LIG1        0.0077
     11 C          -5.6290    0.9500    0.0000 C.ar    1  LIG1        0.0077
     12 C          -5.6290    1.9330    0.0000 C.ar    1  LIG1        0.0006
     13 C          -4.7580    2.4290    0.0000 C.ar    1  LIG1        0.0013
     14 C          -3.8920    1.9330    0.0000 C.ar    1  LIG1        0.0157
     15 C          -2.1380    0.9880    0.0000 C.2     1  LIG1        0.2778
     16 C          -1.2710    0.4960    0.0000 C.3     1  LIG1        0.2933
     17 O          -0.4210    0.9880    0.0000 O.3     1  LIG1       -0.4372
     18 C           0.4540    0.4960    0.0000 C.2     1  LIG1        0.3375
     19 C           1.3210    0.9880    0.0000 C.3     1  LIG1        0.1946
     20 N           2.1880    0.4960    0.0000 N.am    1  LIG1       -0.1920
     21 C           3.0170    1.0210    0.0000 C.2     1  LIG1        0.2652
     22 O           3.0170    2.0080    0.0000 O.2     1  LIG1       -0.2684
     23 C           3.8830    0.5290    0.0000 C.ar    1  LIG1        0.0551
     24 C           3.8960   -0.4710    0.0000 C.ar    1  LIG1        0.0046
     25 C           4.7630   -0.9670    0.0000 C.ar    1  LIG1        0.0001
     26 C           5.5920   -0.5040    0.0000 C.ar    1  LIG1        0.0000
     27 C           5.6250    0.4750    0.0000 C.ar    1  LIG1        0.0001
     28 C           4.7630    0.9880    0.0000 C.ar    1  LIG1        0.0046
     29 C           1.3210    1.9750    0.0000 C.3     1  LIG1        0.0448
     30 C           0.4540    2.4830    0.0000 C.3     1  LIG1        0.0599
     31 S          -0.4000    1.9750    0.0000 S.3     1  LIG1       -0.1393
     32 C          -1.2880    2.5500    0.0000 C.3     1  LIG1        0.0692
     33 O           0.4540   -0.5040    0.0000 O.2     1  LIG1       -0.2482
     34 O          -2.1380    2.0670    0.0000 O.2     1  LIG1       -0.2701
@<TRIPOS>BOND
     1     1     2    1
     2     1     6    1
     3     1    15   am
     4     2     3   ar
     5     2    14   ar
     6     3     4    1
     7     3    11   ar
     8     4     5    1
     9     5     6   ar
    10     5    10   ar
    11     6     7   ar
    12     7     8   ar
    13     8     9   ar
    14     9    10   ar
    15    11    12   ar
    16    12    13   ar
    17    13    14   ar
    18    15    16    1
    19    15    34    2
    20    16    17    1
    21    17    18    1
    22    18    19    1
    23    18    33    2
    24    19    20    1
    25    19    29    1
    26    20    21   am
    27    21    22    2
    28    21    23    1
    29    23    24   ar
    30    23    28   ar
    31    24    25   ar
    32    25    26   ar
    33    26    27   ar
    34    27    28   ar
    35    29    30    1
    36    30    31    1
    37    31    32    1
