@<TRIPOS>MOLECULE
32046_ChemDiv_5878-0029
 36 38 0 0 0
SMALL
GASTEIGER
Energy = 0

@<TRIPOS>ATOM
      1 C          -2.4960    0.9000    0.0000 C.1     1  LIG1       -0.0706
      2 C          -3.0000    0.0420    0.0000 C.1     1  LIG1       -0.0572
      3 C          -3.4830   -0.8250    0.0000 C.3     1  LIG1        0.2179
      4 O          -3.0000   -1.6920    0.0000 O.3     1  LIG1       -0.3374
      5 C          -3.4830   -2.5670    0.0000 C.3     1  LIG1        0.1755
      6 C          -4.4960   -2.5670    0.0000 C.3     1  LIG1        0.1746
      7 O          -5.0000   -1.6920    0.0000 O.3     1  LIG1       -0.3463
      8 C          -6.0080   -1.6920    0.0000 C.3     1  LIG1        0.1687
      9 C          -6.4830   -0.8250    0.0000 C.ar    1  LIG1        0.0073
     10 C          -7.4920   -0.8250    0.0000 C.ar    1  LIG1       -0.0019
     11 C          -8.0000    0.0420    0.0000 C.ar    1  LIG1       -0.0002
     12 C          -7.4920    0.9000    0.0000 C.ar    1  LIG1       -0.0000
     13 C          -6.4830    0.9000    0.0000 C.ar    1  LIG1       -0.0002
     14 C          -6.0080    0.0420    0.0000 C.ar    1  LIG1       -0.0019
     15 C          -1.9920    1.7630    0.0000 C.3     1  LIG1        0.1502
     16 N          -0.9880    1.7630    0.0000 N.3     1  LIG1       -0.2515
     17 C          -0.5080    2.6000    0.0000 C.3     1  LIG1        0.1367
     18 C           0.5040    2.6000    0.0000 C.3     1  LIG1        0.1577
     19 N           1.0130    1.7380    0.0000 N.4     1  LIG1        0.3896
     20 C           0.5040    0.8630    0.0000 C.3     1  LIG1        0.1577
     21 C          -0.5080    0.8630    0.0000 C.3     1  LIG1        0.1367
     22 C           2.0000    1.7380    0.0000 C.3     1  LIG1        0.2176
     23 C           2.5040    0.8630    0.0000 C.1     1  LIG1       -0.0263
     24 C           3.0000   -0.0080    0.0000 C.1     1  LIG1       -0.0529
     25 C           3.4920   -0.8710    0.0000 C.3     1  LIG1        0.2181
     26 O           3.0000   -1.7290    0.0000 O.3     1  LIG1       -0.3374
     27 C           3.4920   -2.5960    0.0000 C.3     1  LIG1        0.1755
     28 C           4.4960   -2.5960    0.0000 C.3     1  LIG1        0.1746
     29 O           4.9960   -1.7290    0.0000 O.3     1  LIG1       -0.3463
     30 C           6.0080   -1.7290    0.0000 C.3     1  LIG1        0.1687
     31 C           6.4960   -0.8710    0.0000 C.ar    1  LIG1        0.0073
     32 C           7.4920   -0.8710    0.0000 C.ar    1  LIG1       -0.0019
     33 C           8.0000   -0.0080    0.0000 C.ar    1  LIG1       -0.0002
     34 C           7.4920    0.8630    0.0000 C.ar    1  LIG1       -0.0000
     35 C           6.4960    0.8630    0.0000 C.ar    1  LIG1       -0.0002
     36 C           6.0080   -0.0080    0.0000 C.ar    1  LIG1       -0.0019
@<TRIPOS>BOND
     1     1     2    3
     2     1    15    1
     3     2     3    1
     4     3     4    1
     5     4     5    1
     6     5     6    1
     7     6     7    1
     8     7     8    1
     9     8     9    1
    10     9    10   ar
    11     9    14   ar
    12    10    11   ar
    13    11    12   ar
    14    12    13   ar
    15    13    14   ar
    16    15    16    1
    17    16    17    1
    18    16    21    1
    19    17    18    1
    20    18    19    1
    21    19    20    1
    22    19    22    1
    23    20    21    1
    24    22    23    1
    25    23    24    3
    26    24    25    1
    27    25    26    1
    28    26    27    1
    29    27    28    1
    30    28    29    1
    31    29    30    1
    32    30    31    1
    33    31    32   ar
    34    31    36   ar
    35    32    33   ar
    36    33    34   ar
    37    34    35   ar
    38    35    36   ar
