@<TRIPOS>MOLECULE
32045_ChemDiv_5594-3136
 25 27 0 0 0
SMALL
GASTEIGER
Energy = 0

@<TRIPOS>ATOM
      1 N          -1.7920    0.8130    0.0000 N.am    1  LIG1       -0.1326
      2 C          -2.2710    1.6290    0.0000 C.2     1  LIG1        0.3253
      3 N          -3.2130    1.4540    0.0000 N.2     1  LIG1       -0.0602
      4 C          -3.3250    0.4420    0.0000 C.3     1  LIG1        0.3140
      5 C          -2.4330    0.0330    0.0000 C.3     1  LIG1        0.2681
      6 C          -1.7290    2.4580    0.0000 C.ar    1  LIG1        0.0823
      7 C          -2.2710    3.3500    0.0000 C.ar    1  LIG1        0.0074
      8 C          -1.7290    4.1880    0.0000 C.ar    1  LIG1        0.0002
      9 C          -0.7130    4.1250    0.0000 C.ar    1  LIG1        0.0000
     10 C          -0.2420    3.3500    0.0000 C.ar    1  LIG1        0.0002
     11 C          -0.7130    2.4580    0.0000 C.ar    1  LIG1        0.0074
     12 C          -0.7130    0.6750    0.0000 C.2     1  LIG1        0.3373
     13 C          -0.3040   -0.2130    0.0000 C.2     1  LIG1        0.0850
     14 C           0.6460   -0.2630    0.0000 C.2     1  LIG1        0.0072
     15 C           1.1290   -1.2170    0.0000 C.ar    1  LIG1        0.0034
     16 C           0.5880   -1.9960    0.0000 C.ar    1  LIG1        0.0400
     17 C           0.9960   -2.8880    0.0000 C.ar    1  LIG1        0.1724
     18 C           1.9580   -3.0000    0.0000 C.ar    1  LIG1        0.1724
     19 C           2.5540   -2.1580    0.0000 C.ar    1  LIG1        0.0400
     20 C           2.0710   -1.2670    0.0000 C.ar    1  LIG1        0.0033
     21 O           2.3170   -4.0130    0.0000 O.3     1  LIG1       -0.4684
     22 C           3.3210   -4.1880    0.0000 C.3     1  LIG1        0.2526
     23 O           0.4750   -3.8290    0.0000 O.3     1  LIG1       -0.4684
     24 C          -0.4920   -3.8290    0.0000 C.3     1  LIG1        0.2526
     25 O          -0.1960    1.5170    0.0000 O.2     1  LIG1       -0.2416
@<TRIPOS>BOND
     1     1     2    1
     2     1     5    1
     3     1    12   am
     4     2     3    2
     5     2     6    1
     6     3     4    1
     7     4     5    1
     8     6     7   ar
     9     6    11   ar
    10     7     8   ar
    11     8     9   ar
    12     9    10   ar
    13    10    11   ar
    14    12    13    1
    15    12    25    2
    16    13    14    2
    17    14    15    1
    18    15    16   ar
    19    15    20   ar
    20    16    17   ar
    21    17    18   ar
    22    17    23    1
    23    18    19   ar
    24    18    21    1
    25    19    20   ar
    26    21    22    1
    27    23    24    1
