@<TRIPOS>MOLECULE
32049_ChemDiv_C599-0463
 29 31 0 0 0
SMALL
GASTEIGER
Energy = 0

@<TRIPOS>ATOM
      1 N           2.3710    0.0670    0.0000 N.ar    1  LIG1       -0.1893
      2 C           3.3830    0.2790    0.0000 C.ar    1  LIG1        0.2033
      3 N           3.8880   -0.6330    0.0000 N.ar    1  LIG1       -0.0560
      4 O           3.1920   -1.3920    0.0000 O.2     1  LIG1       -0.3352
      5 C           2.2460   -0.9380    0.0000 C.ar    1  LIG1        0.2569
      6 C           1.3540   -1.4380    0.0000 C.3     1  LIG1        0.1821
      7 N           1.3420   -2.4710    0.0000 N.am    1  LIG1       -0.2697
      8 C           0.4420   -2.9790    0.0000 C.2     1  LIG1        0.2705
      9 C          -0.3710   -2.4960    0.0000 C.3     1  LIG1        0.2896
     10 O          -1.1790   -2.9580    0.0000 O.3     1  LIG1       -0.4656
     11 C          -1.9920   -2.4920    0.0000 C.ar    1  LIG1        0.1393
     12 C          -2.8170   -2.9580    0.0000 C.ar    1  LIG1        0.0366
     13 C          -3.6170   -2.4790    0.0000 C.ar    1  LIG1       -0.0012
     14 C          -3.6130   -1.5380    0.0000 C.ar    1  LIG1       -0.0220
     15 C          -2.7920   -1.0710    0.0000 C.ar    1  LIG1       -0.0012
     16 C          -1.9920   -1.5460    0.0000 C.ar    1  LIG1        0.0366
     17 C          -4.4380   -1.0500    0.0000 C.3     1  LIG1        0.0264
     18 C          -5.2710   -1.5290    0.0000 C.3     1  LIG1        0.0050
     19 O           0.4380   -4.0170    0.0000 O.2     1  LIG1       -0.2708
     20 C           2.2250   -2.9880    0.0000 C.3     1  LIG1        0.0760
     21 C           2.2170   -4.0290    0.0000 C.3     1  LIG1        0.0215
     22 C           3.1210   -2.4790    0.0000 C.3     1  LIG1        0.0215
     23 C           3.8080    1.2250    0.0000 C.ar    1  LIG1        0.0391
     24 C           3.2080    2.0630    0.0000 C.ar    1  LIG1        0.0028
     25 C           3.6380    2.9960    0.0000 C.ar    1  LIG1       -0.0042
     26 C           4.6630    3.0960    0.0000 C.ar    1  LIG1       -0.0218
     27 C           5.2670    2.2670    0.0000 C.ar    1  LIG1       -0.0042
     28 C           4.8290    1.3250    0.0000 C.ar    1  LIG1        0.0028
     29 C           5.0880    4.0290    0.0000 C.3     1  LIG1        0.0310
@<TRIPOS>BOND
     1     1     2   ar
     2     1     5   ar
     3     2     3   ar
     4     2    23    1
     5     3     4   ar
     6     4     5   ar
     7     5     6    1
     8     6     7    1
     9     7     8   am
    10     7    20    1
    11     8     9    1
    12     8    19    2
    13     9    10    1
    14    10    11    1
    15    11    12   ar
    16    11    16   ar
    17    12    13   ar
    18    13    14   ar
    19    14    15   ar
    20    14    17    1
    21    15    16   ar
    22    17    18    1
    23    20    21    1
    24    20    22    1
    25    23    24   ar
    26    23    28   ar
    27    24    25   ar
    28    25    26   ar
    29    26    27   ar
    30    26    29    1
    31    27    28   ar
