@<TRIPOS>MOLECULE
32047_ChemDiv_5595-0001
 30 34 0 0 0
SMALL
GASTEIGER
Energy = 0

@<TRIPOS>ATOM
      1 C          -0.0130    0.0500    0.0000 C.2     1  LIG1        0.0545
      2 C           0.0000   -0.9540    0.0000 C.2     1  LIG1        0.1433
      3 O          -0.8670   -1.4460    0.0000 O.3     1  LIG1       -0.4542
      4 C          -1.7540   -0.9540    0.0000 C.ar    1  LIG1        0.1418
      5 C          -1.7540    0.0380    0.0000 C.ar    1  LIG1        0.0202
      6 C          -0.8790    0.5420    0.0000 C.3     1  LIG1        0.0740
      7 C          -0.8920    1.5420    0.0000 C.ar    1  LIG1       -0.0182
      8 C          -0.0130    2.0250    0.0000 C.ar    1  LIG1       -0.0252
      9 C           0.8630    1.5420    0.0000 C.3     1  LIG1        0.0307
     10 C          -0.0170    3.0210    0.0000 C.ar    1  LIG1       -0.0045
     11 C          -0.8960    3.5170    0.0000 C.ar    1  LIG1       -0.0003
     12 C          -1.7670    3.0040    0.0000 C.ar    1  LIG1       -0.0003
     13 C          -1.7580    2.0210    0.0000 C.ar    1  LIG1       -0.0039
     14 C          -2.6210    0.5420    0.0000 C.ar    1  LIG1       -0.0006
     15 C          -3.5000    0.0380    0.0000 C.ar    1  LIG1       -0.0001
     16 C          -3.5000   -0.9630    0.0000 C.ar    1  LIG1        0.0031
     17 C          -2.6210   -1.4580    0.0000 C.ar    1  LIG1        0.0372
     18 C           0.4960   -1.8130    0.0000 C.ar    1  LIG1        0.0342
     19 C           1.4920   -1.8130    0.0000 C.ar    1  LIG1        0.0030
     20 C           1.9920   -2.6580    0.0000 C.ar    1  LIG1        0.0001
     21 C           1.4830   -3.5130    0.0000 C.ar    1  LIG1        0.0000
     22 C           0.4790   -3.5130    0.0000 C.ar    1  LIG1        0.0001
     23 C          -0.0130   -2.6580    0.0000 C.ar    1  LIG1        0.0030
     24 C           0.8670    0.5580    0.0000 C.3     1  LIG1        0.1658
     25 N           1.7460    0.0630    0.0000 N.4     1  LIG1        0.3845
     26 C           2.6170    0.5580    0.0000 C.3     1  LIG1        0.1718
     27 C           3.4830    0.0710    0.0000 C.3     1  LIG1        0.2048
     28 O           3.4960   -0.9210    0.0000 O.3     1  LIG1       -0.3411
     29 C           2.6210   -1.4290    0.0000 C.3     1  LIG1        0.2048
     30 C           1.7460   -0.9380    0.0000 C.3     1  LIG1        0.1718
@<TRIPOS>BOND
     1     1     2    2
     2     1     6    1
     3     1    24    1
     4     2     3    1
     5     2    18    1
     6     3     4    1
     7     4     5   ar
     8     4    17   ar
     9     5     6    1
    10     5    14   ar
    11     6     7    1
    12     7     8   ar
    13     7    13   ar
    14     8     9    1
    15     8    10   ar
    16    10    11   ar
    17    11    12   ar
    18    12    13   ar
    19    14    15   ar
    20    15    16   ar
    21    16    17   ar
    22    18    19   ar
    23    18    23   ar
    24    19    20   ar
    25    20    21   ar
    26    21    22   ar
    27    22    23   ar
    28    24    25    1
    29    25    26    1
    30    25    30    1
    31    26    27    1
    32    27    28    1
    33    28    29    1
    34    29    30    1
