@<TRIPOS>MOLECULE
32043_ChemDiv_5594-2775
 32 36 0 0 0
SMALL
GASTEIGER
Energy = 0

@<TRIPOS>ATOM
      1 N           0.8960   -2.4750    0.0000 N.am    1  LIG1       -0.2138
      2 C           1.0500   -3.4170    0.0000 C.2     1  LIG1        0.2555
      3 C           1.8960   -3.5330    0.0000 C.ar    1  LIG1        0.0584
      4 C           2.3630   -2.6790    0.0000 C.ar    1  LIG1        0.0584
      5 C           1.7790   -2.0460    0.0000 C.2     1  LIG1        0.2555
      6 O           1.8960   -1.0460    0.0000 O.2     1  LIG1       -0.2695
      7 C           3.4290   -2.7080    0.0000 C.ar    1  LIG1        0.0047
      8 C           3.9250   -3.5250    0.0000 C.ar    1  LIG1        0.0001
      9 C           3.4130   -4.4250    0.0000 C.ar    1  LIG1        0.0001
     10 C           2.5000   -4.4250    0.0000 C.ar    1  LIG1        0.0047
     11 O           0.2080   -4.1170    0.0000 O.2     1  LIG1       -0.2695
     12 C           0.0330   -1.9790    0.0000 C.3     1  LIG1        0.1815
     13 C           0.0040   -1.0000    0.0000 C.2     1  LIG1        0.3361
     14 O          -0.8130   -0.5040    0.0000 O.3     1  LIG1       -0.4370
     15 C          -0.7830    0.7880    0.0000 C.3     1  LIG1        0.2958
     16 C          -1.5420    1.3330    0.0000 C.2     1  LIG1        0.2856
     17 N          -1.5130    2.3040    0.0000 N.ar    1  LIG1       -0.2790
     18 C          -2.3000    2.8880    0.0000 C.ar    1  LIG1        0.0400
     19 C          -2.1830    3.8170    0.0000 C.ar    1  LIG1       -0.0087
     20 C          -0.5330    3.5750    0.0000 C.ar    1  LIG1        0.0133
     21 C          -0.6670    2.6540    0.0000 C.ar    1  LIG1        0.0660
     22 C           0.0920    2.0710    0.0000 C.ar    1  LIG1        0.0176
     23 C           1.0500    2.4130    0.0000 C.ar    1  LIG1        0.0015
     24 C           1.1960    3.3420    0.0000 C.ar    1  LIG1        0.0001
     25 C           0.3830    3.9330    0.0000 C.ar    1  LIG1        0.0012
     26 C          -2.9420    4.4250    0.0000 C.3     1  LIG1        0.0276
     27 C          -3.7960    4.0460    0.0000 C.3     1  LIG1        0.0051
     28 C          -3.9290    3.1210    0.0000 C.3     1  LIG1        0.0066
     29 C          -3.2130    2.5380    0.0000 C.3     1  LIG1        0.0439
     30 O          -2.3290    0.8170    0.0000 O.2     1  LIG1       -0.2676
     31 O           0.8960   -0.5790    0.0000 O.2     1  LIG1       -0.2482
     32 C          -0.9670   -2.3670    0.0000 C.3     1  LIG1        0.0340
@<TRIPOS>BOND
     1     1     2   am
     2     1     5   am
     3     1    12    1
     4     2     3    1
     5     2    11    2
     6     3     4   ar
     7     3    10   ar
     8     4     5    1
     9     4     7   ar
    10     5     6    2
    11     7     8   ar
    12     8     9   ar
    13     9    10   ar
    14    12    13    1
    15    12    32    1
    16    13    14    1
    17    13    31    2
    18    14    15    1
    19    15    16    1
    20    16    17   am
    21    16    30    2
    22    17    18   ar
    23    17    21   ar
    24    18    19   ar
    25    18    29    1
    26    19    20   ar
    27    19    26    1
    28    20    21   ar
    29    20    25   ar
    30    21    22   ar
    31    22    23   ar
    32    23    24   ar
    33    24    25   ar
    34    26    27    1
    35    27    28    1
    36    28    29    1
