@<TRIPOS>MOLECULE
32059_ChemDiv_6835-6172
 16 17 0 0 0
SMALL
GASTEIGER
Energy = 0

@<TRIPOS>ATOM
      1 C          -0.3880   -0.7540    0.0000 C.2     1  LIG1        0.3412
      2 O           0.4830   -0.2540    0.0000 O.3     1  LIG1       -0.4414
      3 C           0.4880    0.7500    0.0000 C.3     1  LIG1        0.2282
      4 C           1.4750    0.7580    0.0000 C.2     1  LIG1        0.3540
      5 O           1.9750    1.6210    0.0000 O.2     1  LIG1       -0.2462
      6 O           1.9790   -0.1040    0.0000 O.3     1  LIG1       -0.4420
      7 C           2.9790   -0.1000    0.0000 C.3     1  LIG1        0.2557
      8 C          -0.3880    1.2580    0.0000 C.3     1  LIG1        0.0777
      9 C          -1.2540    0.7580    0.0000 C.ar    1  LIG1       -0.0119
     10 C          -1.2540   -0.2500    0.0000 C.ar    1  LIG1        0.0718
     11 C          -2.1170   -0.7460    0.0000 C.ar    1  LIG1        0.0061
     12 C          -2.9830   -0.2500    0.0000 C.ar    1  LIG1        0.0002
     13 C          -2.9790    0.7500    0.0000 C.ar    1  LIG1       -0.0003
     14 C          -2.1210    1.2500    0.0000 C.ar    1  LIG1       -0.0039
     15 C           0.4750    1.7540    0.0000 C.3     1  LIG1        0.0557
     16 O          -0.3960   -1.7500    0.0000 O.2     1  LIG1       -0.2449
@<TRIPOS>BOND
     1     1     2    1
     2     1    10    1
     3     1    16    2
     4     2     3    1
     5     3     4    1
     6     3     8    1
     7     3    15    1
     8     4     5    2
     9     4     6    1
    10     6     7    1
    11     8     9    1
    12     9    10   ar
    13     9    14   ar
    14    10    11   ar
    15    11    12   ar
    16    12    13   ar
    17    13    14   ar
