@<TRIPOS>MOLECULE
32051_ChemDiv_C599-0504
 28 31 0 0 0
SMALL
GASTEIGER
Energy = 0

@<TRIPOS>ATOM
      1 N           1.4580    0.0580    0.0000 N.ar    1  LIG1       -0.1893
      2 C           2.4630    0.2750    0.0000 C.ar    1  LIG1        0.2033
      3 N           2.9750   -0.6380    0.0000 N.ar    1  LIG1       -0.0560
      4 O           2.2880   -1.4000    0.0000 O.2     1  LIG1       -0.3352
      5 C           1.3420   -0.9540    0.0000 C.ar    1  LIG1        0.2569
      6 C           0.4330   -1.4580    0.0000 C.3     1  LIG1        0.1823
      7 N           0.4330   -2.4880    0.0000 N.am    1  LIG1       -0.2692
      8 C          -0.4630   -3.0040    0.0000 C.2     1  LIG1        0.2494
      9 C          -1.2790   -2.5170    0.0000 C.ar    1  LIG1        0.0568
     10 C          -2.1000   -2.9920    0.0000 C.ar    1  LIG1        0.0447
     11 C          -2.9080   -2.5130    0.0000 C.ar    1  LIG1        0.1766
     12 C          -2.9000   -1.5630    0.0000 C.ar    1  LIG1        0.1764
     13 O          -3.7920   -1.2830    0.0000 O.3     1  LIG1       -0.4346
     14 C          -4.3460   -2.0380    0.0000 C.3     1  LIG1        0.4294
     15 O          -3.7920   -2.7920    0.0000 O.3     1  LIG1       -0.4346
     16 C          -2.0830   -1.1080    0.0000 C.ar    1  LIG1        0.0403
     17 C          -1.2710   -1.5830    0.0000 C.ar    1  LIG1        0.0078
     18 O          -0.4790   -4.0330    0.0000 O.2     1  LIG1       -0.2699
     19 C           1.3170   -3.0080    0.0000 C.3     1  LIG1        0.0762
     20 C           2.2130   -2.5000    0.0000 C.3     1  LIG1        0.0215
     21 C           1.3170   -4.0460    0.0000 C.3     1  LIG1        0.0215
     22 C           2.8880    1.2170    0.0000 C.ar    1  LIG1        0.0392
     23 C           3.9170    1.3210    0.0000 C.ar    1  LIG1        0.0040
     24 C           4.3420    2.2630    0.0000 C.ar    1  LIG1        0.0115
     25 C           3.7330    3.1040    0.0000 C.ar    1  LIG1        0.0577
     26 C           2.7040    2.9960    0.0000 C.ar    1  LIG1        0.0115
     27 C           2.2790    2.0540    0.0000 C.ar    1  LIG1        0.0040
     28 CL          4.1710    4.0460    0.0000 Cl      1  LIG1       -0.0822
@<TRIPOS>BOND
     1     1     2   ar
     2     1     5   ar
     3     2     3   ar
     4     2    22    1
     5     3     4   ar
     6     4     5   ar
     7     5     6    1
     8     6     7    1
     9     7     8   am
    10     7    19    1
    11     8     9    1
    12     8    18    2
    13     9    10   ar
    14     9    17   ar
    15    10    11   ar
    16    11    12   ar
    17    11    15    1
    18    12    13    1
    19    12    16   ar
    20    13    14    1
    21    14    15    1
    22    16    17   ar
    23    19    20    1
    24    19    21    1
    25    22    23   ar
    26    22    27   ar
    27    23    24   ar
    28    24    25   ar
    29    25    26   ar
    30    25    28    1
    31    26    27   ar
