@<TRIPOS>MOLECULE
32053_ChemDiv_E213-1628
 30 33 0 0 0
SMALL
GASTEIGER
Energy = 0

@<TRIPOS>ATOM
      1 N           3.7710   -0.4750    0.0000 N.ar    1  LIG1       -0.1830
      2 C           2.7750   -0.5750    0.0000 C.ar    1  LIG1        0.3153
      3 O           2.3670    0.3380    0.0000 O.2     1  LIG1       -0.3276
      4 N           3.1130    1.0080    0.0000 N.ar    1  LIG1       -0.0554
      5 C           3.9750    0.5040    0.0000 C.ar    1  LIG1        0.2038
      6 C           4.8920    0.9130    0.0000 C.ar    1  LIG1        0.0422
      7 C           4.9960    1.9080    0.0000 C.ar    1  LIG1        0.0238
      8 C           5.9080    2.3130    0.0000 C.ar    1  LIG1        0.0990
      9 N           6.7210    1.7250    0.0000 N.ar    1  LIG1       -0.2423
     10 C           6.6130    0.7290    0.0000 C.ar    1  LIG1        0.0990
     11 C           5.7040    0.3250    0.0000 C.ar    1  LIG1        0.0238
     12 C           2.2710   -1.4420    0.0000 C.2     1  LIG1        0.3212
     13 O           2.7750   -2.3080    0.0000 O.2     1  LIG1       -0.2631
     14 N           1.2750   -1.4420    0.0000 N.am    1  LIG1       -0.1974
     15 C           0.7750   -0.5750    0.0000 C.3     1  LIG1        0.1218
     16 C          -0.2250   -0.5750    0.0000 C.3     1  LIG1        0.0861
     17 C          -0.7250    0.2880    0.0000 C.3     1  LIG1        0.1406
     18 N          -1.7290    0.2880    0.0000 N.4     1  LIG1        0.3800
     19 C          -2.2250   -0.5750    0.0000 C.3     1  LIG1        0.1605
     20 C          -3.2250   -0.5750    0.0000 C.3     1  LIG1        0.1544
     21 N          -3.7290    0.2880    0.0000 N.pl3   1  LIG1       -0.2972
     22 C          -4.7250    0.2880    0.0000 C.ar    1  LIG1        0.0490
     23 C          -5.2290    1.1540    0.0000 C.ar    1  LIG1        0.0259
     24 C          -6.2210    1.1540    0.0000 C.ar    1  LIG1        0.0589
     25 CL         -6.7210    2.0210    0.0000 Cl      1  LIG1       -0.0822
     26 C          -6.7210    0.2880    0.0000 C.ar    1  LIG1        0.0115
     27 C          -6.2210   -0.5750    0.0000 C.ar    1  LIG1        0.0021
     28 C          -5.2290   -0.5750    0.0000 C.ar    1  LIG1        0.0146
     29 C          -3.2250    1.1540    0.0000 C.3     1  LIG1        0.1544
     30 C          -2.2250    1.1540    0.0000 C.3     1  LIG1        0.1605
@<TRIPOS>BOND
     1     1     2   ar
     2     1     5   ar
     3     2     3   ar
     4     2    12    1
     5     3     4   ar
     6     4     5   ar
     7     5     6    1
     8     6     7   ar
     9     6    11   ar
    10     7     8   ar
    11     8     9   ar
    12     9    10   ar
    13    10    11   ar
    14    12    13    2
    15    12    14   am
    16    14    15    1
    17    15    16    1
    18    16    17    1
    19    17    18    1
    20    18    19    1
    21    18    30    1
    22    19    20    1
    23    20    21    1
    24    21    22    1
    25    21    29    1
    26    22    23   ar
    27    22    28   ar
    28    23    24   ar
    29    24    25    1
    30    24    26   ar
    31    26    27   ar
    32    27    28   ar
    33    29    30    1
