@<TRIPOS>MOLECULE
32058_ChemDiv_5742-0818
 26 28 0 0 0
SMALL
GASTEIGER
Energy = 0

@<TRIPOS>ATOM
      1 N           1.0290    1.2580    0.0000 N.ar    1  LIG1       -0.2066
      2 C           0.3250    0.5580    0.0000 C.ar    1  LIG1        0.1379
      3 C           0.5830   -0.4210    0.0000 C.ar    1  LIG1        0.0783
      4 C           1.5630   -0.6830    0.0000 C.ar    1  LIG1        0.0490
      5 N           2.2540    0.0330    0.0000 N.ar    1  LIG1       -0.2897
      6 C           1.9960    1.0000    0.0000 C.ar    1  LIG1        0.1864
      7 S           2.7080    1.7210    0.0000 S.2     1  LIG1       -0.0106
      8 C           3.2130   -0.2170    0.0000 C.ar    1  LIG1        0.0655
      9 C           3.9250    0.5000    0.0000 C.ar    1  LIG1        0.0176
     10 C           4.8670    0.2670    0.0000 C.ar    1  LIG1        0.0015
     11 C           5.1500   -0.7000    0.0000 C.ar    1  LIG1        0.0001
     12 C           4.4630   -1.4210    0.0000 C.ar    1  LIG1        0.0015
     13 C           3.4960   -1.1750    0.0000 C.ar    1  LIG1        0.0176
     14 C           1.8540   -1.6460    0.0000 C.3     1  LIG1        0.0506
     15 C          -0.1630   -1.1080    0.0000 C.2     1  LIG1        0.1773
     16 O          -1.0960   -0.8290    0.0000 O.2     1  LIG1       -0.2912
     17 C           0.0880   -2.0710    0.0000 C.3     1  LIG1        0.0774
     18 N          -0.6460    0.8290    0.0000 N.pl3   1  LIG1       -0.2822
     19 C          -1.3790    0.1210    0.0000 C.3     1  LIG1        0.1555
     20 C          -2.3460    0.3880    0.0000 C.3     1  LIG1        0.1606
     21 N          -2.5920    1.3790    0.0000 N.4     1  LIG1        0.3821
     22 C          -1.8500    2.0750    0.0000 C.3     1  LIG1        0.1606
     23 C          -0.8960    1.7960    0.0000 C.3     1  LIG1        0.1555
     24 C          -3.5460    1.6630    0.0000 C.3     1  LIG1        0.1749
     25 C          -4.2670    0.9710    0.0000 C.3     1  LIG1        0.2442
     26 O          -5.1540    1.3130    0.0000 O.3     1  LIG1       -0.2137
@<TRIPOS>BOND
     1     1     2   ar
     2     1     6   ar
     3     2     3   ar
     4     2    18    1
     5     3     4   ar
     6     3    15    1
     7     4     5   ar
     8     4    14    1
     9     5     6   ar
    10     5     8    1
    11     6     7    2
    12     8     9   ar
    13     8    13   ar
    14     9    10   ar
    15    10    11   ar
    16    11    12   ar
    17    12    13   ar
    18    15    16    2
    19    15    17    1
    20    18    19    1
    21    18    23    1
    22    19    20    1
    23    20    21    1
    24    21    22    1
    25    21    24    1
    26    22    23    1
    27    24    25    1
    28    25    26    1
