@<TRIPOS>MOLECULE
32057_ChemDiv_5661-0086
 18 19 0 0 0
SMALL
GASTEIGER
Energy = 0

@<TRIPOS>ATOM
      1 C          -0.8630   -0.7380    0.0000 C.2     1  LIG1        0.3413
      2 O           0.0130   -0.2460    0.0000 O.3     1  LIG1       -0.4372
      3 C           0.0130    0.7580    0.0000 C.3     1  LIG1        0.2708
      4 C           0.8830    1.2580    0.0000 C.2     1  LIG1        0.3580
      5 O           0.8830    2.2460    0.0000 O.2     1  LIG1       -0.2461
      6 O           1.7330    0.7580    0.0000 O.3     1  LIG1       -0.4460
      7 C           1.7330   -0.2460    0.0000 C.3     1  LIG1        0.2085
      8 C           2.5960   -0.7380    0.0000 C.3     1  LIG1        0.0474
      9 C           2.5960   -1.7420    0.0000 C.3     1  LIG1        0.0038
     10 C           3.4580   -2.2420    0.0000 C.3     1  LIG1        0.0001
     11 C          -0.8630    1.2630    0.0000 C.3     1  LIG1        0.0819
     12 C          -1.7290    0.7580    0.0000 C.ar    1  LIG1       -0.0117
     13 C          -1.7290   -0.2460    0.0000 C.ar    1  LIG1        0.0718
     14 C          -2.5830   -0.7380    0.0000 C.ar    1  LIG1        0.0061
     15 C          -3.4630   -0.2460    0.0000 C.ar    1  LIG1        0.0002
     16 C          -3.4630    0.7580    0.0000 C.ar    1  LIG1       -0.0003
     17 C          -2.5830    1.2580    0.0000 C.ar    1  LIG1       -0.0039
     18 O          -0.8630   -1.7420    0.0000 O.2     1  LIG1       -0.2449
@<TRIPOS>BOND
     1     1     2    1
     2     1    13    1
     3     1    18    2
     4     2     3    1
     5     3     4    1
     6     3    11    1
     7     4     5    2
     8     4     6    1
     9     6     7    1
    10     7     8    1
    11     8     9    1
    12     9    10    1
    13    11    12    1
    14    12    13   ar
    15    12    17   ar
    16    13    14   ar
    17    14    15   ar
    18    15    16   ar
    19    16    17   ar
