@<TRIPOS>MOLECULE
32054_ChemDiv_5742-0811
 26 28 0 0 0
SMALL
GASTEIGER
Energy = 0

@<TRIPOS>ATOM
      1 N           0.0250    1.2540    0.0000 N.ar    1  LIG1       -0.2066
      2 C          -0.6830    0.5580    0.0000 C.ar    1  LIG1        0.1379
      3 C          -0.4250   -0.4130    0.0000 C.ar    1  LIG1        0.0783
      4 C           0.5540   -0.6750    0.0000 C.ar    1  LIG1        0.0489
      5 N           1.2540    0.0290    0.0000 N.ar    1  LIG1       -0.2900
      6 C           0.9920    0.9960    0.0000 C.ar    1  LIG1        0.1864
      7 S           1.6960    1.7170    0.0000 S.2     1  LIG1       -0.0106
      8 C           2.2040   -0.2130    0.0000 C.ar    1  LIG1        0.0612
      9 C           2.4830   -1.1750    0.0000 C.ar    1  LIG1       -0.0057
     10 C           3.4500   -1.4170    0.0000 C.ar    1  LIG1       -0.0031
     11 C           4.1330   -0.7000    0.0000 C.ar    1  LIG1       -0.0045
     12 C           3.8630    0.2710    0.0000 C.ar    1  LIG1       -0.0204
     13 C           2.9080    0.4960    0.0000 C.ar    1  LIG1        0.0130
     14 C           4.5420    0.9960    0.0000 C.3     1  LIG1        0.0311
     15 C           1.7960   -1.9040    0.0000 C.3     1  LIG1        0.0326
     16 C           0.8460   -1.6420    0.0000 C.3     1  LIG1        0.0506
     17 C          -1.1580   -1.1080    0.0000 C.2     1  LIG1        0.1773
     18 O          -2.0960   -0.8210    0.0000 O.2     1  LIG1       -0.2912
     19 C          -0.9170   -2.0670    0.0000 C.3     1  LIG1        0.0774
     20 N          -1.6460    0.8250    0.0000 N.pl3   1  LIG1       -0.2822
     21 C          -2.3670    0.1250    0.0000 C.3     1  LIG1        0.1555
     22 C          -3.3420    0.3830    0.0000 C.3     1  LIG1        0.1608
     23 N          -3.5920    1.3790    0.0000 N.4     1  LIG1        0.3847
     24 C          -2.8460    2.0710    0.0000 C.3     1  LIG1        0.1608
     25 C          -1.8830    1.7920    0.0000 C.3     1  LIG1        0.1555
     26 C          -4.5460    1.6710    0.0000 C.3     1  LIG1        0.2024
@<TRIPOS>BOND
     1     1     2   ar
     2     1     6   ar
     3     2     3   ar
     4     2    20    1
     5     3     4   ar
     6     3    17    1
     7     4     5   ar
     8     4    16    1
     9     5     6   ar
    10     5     8    1
    11     6     7    2
    12     8     9   ar
    13     8    13   ar
    14     9    10   ar
    15     9    15    1
    16    10    11   ar
    17    11    12   ar
    18    12    13   ar
    19    12    14    1
    20    17    18    2
    21    17    19    1
    22    20    21    1
    23    20    25    1
    24    21    22    1
    25    22    23    1
    26    23    24    1
    27    23    26    1
    28    24    25    1
