@<TRIPOS>MOLECULE
32069_ChemDiv_5595-0091
 30 34 0 0 0
SMALL
GASTEIGER
Energy = 0

@<TRIPOS>ATOM
      1 C          -0.2000   -0.7420    0.0000 C.2     1  LIG1        0.0545
      2 C          -0.2000   -1.7290    0.0000 C.2     1  LIG1        0.1433
      3 O          -1.0750   -2.2420    0.0000 O.3     1  LIG1       -0.4542
      4 C          -1.9540   -1.7460    0.0000 C.ar    1  LIG1        0.1418
      5 C          -1.9540   -0.7540    0.0000 C.ar    1  LIG1        0.0202
      6 C          -1.0790   -0.2500    0.0000 C.3     1  LIG1        0.0743
      7 C          -1.0920    0.7460    0.0000 C.ar    1  LIG1       -0.0142
      8 C          -1.9630    1.2210    0.0000 C.ar    1  LIG1       -0.0040
      9 C          -1.9790    2.2080    0.0000 C.ar    1  LIG1       -0.0046
     10 C          -1.0960    2.7080    0.0000 C.ar    1  LIG1       -0.0219
     11 C          -0.2170    2.2170    0.0000 C.ar    1  LIG1       -0.0046
     12 C          -0.2170    1.2290    0.0000 C.ar    1  LIG1       -0.0040
     13 C          -1.1080    3.7040    0.0000 C.3     1  LIG1        0.0310
     14 C          -2.8250   -0.2580    0.0000 C.ar    1  LIG1       -0.0006
     15 C          -3.6960   -0.7540    0.0000 C.ar    1  LIG1       -0.0001
     16 C          -3.6960   -1.7460    0.0000 C.ar    1  LIG1        0.0031
     17 C          -2.8250   -2.2420    0.0000 C.ar    1  LIG1        0.0372
     18 C           0.6710   -2.2250    0.0000 C.ar    1  LIG1        0.0342
     19 C           1.5290   -1.7290    0.0000 C.ar    1  LIG1        0.0030
     20 C           2.4130   -2.2130    0.0000 C.ar    1  LIG1        0.0001
     21 C           2.4170   -3.2000    0.0000 C.ar    1  LIG1        0.0000
     22 C           1.5460   -3.7000    0.0000 C.ar    1  LIG1        0.0001
     23 C           0.6710   -3.2170    0.0000 C.ar    1  LIG1        0.0030
     24 C           0.6670   -0.2420    0.0000 C.3     1  LIG1        0.1658
     25 N           1.6750   -0.2420    0.0000 N.4     1  LIG1        0.3845
     26 C           2.1750   -1.0960    0.0000 C.3     1  LIG1        0.1718
     27 C           3.1790   -1.0960    0.0000 C.3     1  LIG1        0.2048
     28 O           3.6920   -0.2420    0.0000 O.3     1  LIG1       -0.3411
     29 C           3.1880    0.6170    0.0000 C.3     1  LIG1        0.2048
     30 C           2.1750    0.6210    0.0000 C.3     1  LIG1        0.1718
@<TRIPOS>BOND
     1     1     2    2
     2     1     6    1
     3     1    24    1
     4     2     3    1
     5     2    18    1
     6     3     4    1
     7     4     5   ar
     8     4    17   ar
     9     5     6    1
    10     5    14   ar
    11     6     7    1
    12     7     8   ar
    13     7    12   ar
    14     8     9   ar
    15     9    10   ar
    16    10    11   ar
    17    10    13    1
    18    11    12   ar
    19    14    15   ar
    20    15    16   ar
    21    16    17   ar
    22    18    19   ar
    23    18    23   ar
    24    19    20   ar
    25    20    21   ar
    26    21    22   ar
    27    22    23   ar
    28    24    25    1
    29    25    26    1
    30    25    30    1
    31    26    27    1
    32    27    28    1
    33    28    29    1
    34    29    30    1
