@<TRIPOS>MOLECULE
32062_ChemDiv_5742-0827
 22 23 0 0 0
SMALL
GASTEIGER
Energy = 0

@<TRIPOS>ATOM
      1 N           1.8500    1.2830    0.0000 N.ar    1  LIG1       -0.2069
      2 C           1.1670    0.5500    0.0000 C.ar    1  LIG1        0.1379
      3 C           1.4130   -0.3880    0.0000 C.ar    1  LIG1        0.0780
      4 C           2.3750   -0.6380    0.0000 C.ar    1  LIG1        0.0446
      5 N           3.0830    0.0460    0.0000 N.ar    1  LIG1       -0.3107
      6 C           2.8330    1.0330    0.0000 C.ar    1  LIG1        0.1825
      7 S           3.5420    1.7420    0.0000 S.2     1  LIG1       -0.0109
      8 C           4.0670   -0.2250    0.0000 C.3     1  LIG1        0.1077
      9 C           4.3420   -1.2130    0.0000 C.3     1  LIG1        0.0265
     10 C           2.6290   -1.6210    0.0000 C.3     1  LIG1        0.0503
     11 C           0.7040   -1.1000    0.0000 C.2     1  LIG1        0.1773
     12 O          -0.2540   -0.8460    0.0000 O.2     1  LIG1       -0.2912
     13 C           0.9540   -2.0540    0.0000 C.3     1  LIG1        0.0774
     14 N           0.2000    0.8250    0.0000 N.pl3   1  LIG1       -0.2822
     15 C          -0.5330    0.1170    0.0000 C.3     1  LIG1        0.1555
     16 C          -1.4670    0.3880    0.0000 C.3     1  LIG1        0.1606
     17 N          -1.7420    1.3540    0.0000 N.4     1  LIG1        0.3821
     18 C          -1.0330    2.0580    0.0000 C.3     1  LIG1        0.1606
     19 C          -0.0750    1.7830    0.0000 C.3     1  LIG1        0.1555
     20 C          -2.7000    1.5790    0.0000 C.3     1  LIG1        0.1749
     21 C          -3.3880    0.8460    0.0000 C.3     1  LIG1        0.2442
     22 O          -4.3460    1.0750    0.0000 O.3     1  LIG1       -0.2137
@<TRIPOS>BOND
     1     1     2   ar
     2     1     6   ar
     3     2     3   ar
     4     2    14    1
     5     3     4   ar
     6     3    11    1
     7     4     5   ar
     8     4    10    1
     9     5     6   ar
    10     5     8    1
    11     6     7    2
    12     8     9    1
    13    11    12    2
    14    11    13    1
    15    14    15    1
    16    14    19    1
    17    15    16    1
    18    16    17    1
    19    17    18    1
    20    17    20    1
    21    18    19    1
    22    20    21    1
    23    21    22    1
