@<TRIPOS>MOLECULE
32064_ChemDiv_6049-0990
 28 30 0 0 0
SMALL
GASTEIGER
Energy = 0

@<TRIPOS>ATOM
      1 N           1.7210    0.5130    0.0000 N.ar    1  LIG1       -0.2066
      2 C           0.8540   -0.0080    0.0000 C.ar    1  LIG1        0.1377
      3 C           0.8540   -1.0000    0.0000 C.ar    1  LIG1        0.0783
      4 C           1.7210   -1.4960    0.0000 C.ar    1  LIG1        0.0490
      5 N           2.5920   -1.0000    0.0000 N.ar    1  LIG1       -0.2897
      6 C           2.5920   -0.0080    0.0000 C.ar    1  LIG1        0.1864
      7 S           3.4630    0.5130    0.0000 S.2     1  LIG1       -0.0106
      8 C           3.4420   -1.4960    0.0000 C.ar    1  LIG1        0.0655
      9 C           4.3080   -1.0000    0.0000 C.ar    1  LIG1        0.0176
     10 C           5.1790   -1.4960    0.0000 C.ar    1  LIG1        0.0015
     11 C           5.1790   -2.4880    0.0000 C.ar    1  LIG1        0.0001
     12 C           4.3080   -2.9880    0.0000 C.ar    1  LIG1        0.0015
     13 C           3.4420   -2.4880    0.0000 C.ar    1  LIG1        0.0176
     14 C           1.7210   -2.4790    0.0000 C.3     1  LIG1        0.0506
     15 C          -0.0380   -1.4960    0.0000 C.2     1  LIG1        0.1773
     16 O          -0.0380   -2.4960    0.0000 O.2     1  LIG1       -0.2912
     17 C          -0.9040   -0.9790    0.0000 C.3     1  LIG1        0.0774
     18 N           0.0080    0.5130    0.0000 N.pl3   1  LIG1       -0.2896
     19 C           0.0080    1.5040    0.0000 C.3     1  LIG1        0.1138
     20 C          -0.8630    2.0000    0.0000 C.3     1  LIG1        0.1182
     21 N          -1.7290    1.5040    0.0000 N.am    1  LIG1       -0.2425
     22 C          -2.6170    2.0000    0.0000 C.2     1  LIG1        0.4050
     23 O          -2.6170    2.9920    0.0000 O.2     1  LIG1       -0.2262
     24 O          -3.4670    1.4830    0.0000 O.3     1  LIG1       -0.4345
     25 C          -4.3330    1.9580    0.0000 C.3     1  LIG1        0.2102
     26 C          -5.1830    1.4380    0.0000 C.3     1  LIG1        0.0513
     27 C          -1.7290    0.5130    0.0000 C.3     1  LIG1        0.1182
     28 C          -0.8830   -0.0080    0.0000 C.3     1  LIG1        0.1138
@<TRIPOS>BOND
     1     1     2   ar
     2     1     6   ar
     3     2     3   ar
     4     2    18    1
     5     3     4   ar
     6     3    15    1
     7     4     5   ar
     8     4    14    1
     9     5     6   ar
    10     5     8    1
    11     6     7    2
    12     8     9   ar
    13     8    13   ar
    14     9    10   ar
    15    10    11   ar
    16    11    12   ar
    17    12    13   ar
    18    15    16    2
    19    15    17    1
    20    18    19    1
    21    18    28    1
    22    19    20    1
    23    20    21    1
    24    21    22   am
    25    21    27    1
    26    22    23    2
    27    22    24    1
    28    24    25    1
    29    25    26    1
    30    27    28    1
