@<TRIPOS>MOLECULE
32061_ChemDiv_5664-0361
 26 28 0 0 0
SMALL
GASTEIGER
Energy = 0

@<TRIPOS>ATOM
      1 S           1.1830   -0.3670    0.0000 S.O2    1  LIG1        0.0768
      2 O           1.1830   -1.3710    0.0000 O.2     1  LIG1       -0.1516
      3 O           1.1830    0.6290    0.0000 O.2     1  LIG1       -0.1516
      4 C           2.1790   -0.3670    0.0000 C.ar    1  LIG1        0.1235
      5 C           2.6670   -1.2330    0.0000 C.ar    1  LIG1        0.0200
      6 C           3.6790   -1.2330    0.0000 C.ar    1  LIG1        0.0014
      7 C           4.1710   -0.3670    0.0000 C.ar    1  LIG1        0.0001
      8 C           3.6790    0.4920    0.0000 C.ar    1  LIG1        0.0014
      9 C           2.6670    0.4920    0.0000 C.ar    1  LIG1        0.0200
     10 N           0.1670   -0.3670    0.0000 N.3     1  LIG1       -0.0778
     11 C          -0.3210   -1.2330    0.0000 C.3     1  LIG1        0.1158
     12 C          -1.3130   -1.2330    0.0000 C.3     1  LIG1        0.0250
     13 C          -1.8000   -0.3670    0.0000 C.3     1  LIG1        0.0250
     14 C          -2.3130   -1.2330    0.0000 C.3     1  LIG1        0.0314
     15 C          -3.3170   -1.2330    0.0000 C.3     1  LIG1        0.0932
     16 O          -3.8130   -0.3670    0.0000 O.3     1  LIG1       -0.3585
     17 C          -3.3170    0.4920    0.0000 C.3     1  LIG1        0.1423
     18 C          -2.3130    0.4920    0.0000 C.3     1  LIG1        0.0362
     19 C          -3.3170   -2.2500    0.0000 C.3     1  LIG1        0.0296
     20 C          -4.1750   -1.7460    0.0000 C.3     1  LIG1        0.0296
     21 C          -1.3130    0.4920    0.0000 C.ar    1  LIG1       -0.0226
     22 C          -0.3330    0.5080    0.0000 C.ar    1  LIG1       -0.0043
     23 C           0.1540    1.3830    0.0000 C.ar    1  LIG1       -0.0003
     24 C          -0.3380    2.2540    0.0000 C.ar    1  LIG1       -0.0000
     25 C          -1.3540    2.2380    0.0000 C.ar    1  LIG1       -0.0003
     26 C          -1.8250    1.3460    0.0000 C.ar    1  LIG1       -0.0043
@<TRIPOS>BOND
     1     1     2    2
     2     1     3    2
     3     1     4    1
     4     1    10    1
     5     4     5   ar
     6     4     9   ar
     7     5     6   ar
     8     6     7   ar
     9     7     8   ar
    10     8     9   ar
    11    10    11    1
    12    11    12    1
    13    12    13    1
    14    13    14    1
    15    13    18    1
    16    13    21    1
    17    14    15    1
    18    15    16    1
    19    15    19    1
    20    15    20    1
    21    16    17    1
    22    17    18    1
    23    21    22   ar
    24    21    26   ar
    25    22    23   ar
    26    23    24   ar
    27    24    25   ar
    28    25    26   ar
