@<TRIPOS>MOLECULE
32063_ChemDiv_8013-6543
 27 29 0 0 0
SMALL
GASTEIGER
Energy = 0

@<TRIPOS>ATOM
      1 S           0.6830   -0.3710    0.0000 S.O2    1  LIG1        0.0768
      2 C           1.6830   -0.3710    0.0000 C.ar    1  LIG1        0.1235
      3 C           2.1750   -1.2380    0.0000 C.ar    1  LIG1        0.0196
      4 C           3.1750   -1.2380    0.0000 C.ar    1  LIG1       -0.0029
      5 C           3.6750   -0.3710    0.0000 C.ar    1  LIG1       -0.0218
      6 C           3.1750    0.4960    0.0000 C.ar    1  LIG1       -0.0029
      7 C           2.1750    0.4960    0.0000 C.ar    1  LIG1        0.0196
      8 C           4.6750   -0.3710    0.0000 C.3     1  LIG1        0.0310
      9 O           0.6830    0.6380    0.0000 O.2     1  LIG1       -0.1516
     10 O           0.6830   -1.3670    0.0000 O.2     1  LIG1       -0.1516
     11 N          -0.3210   -0.3710    0.0000 N.3     1  LIG1       -0.0778
     12 C          -0.8210   -1.2380    0.0000 C.3     1  LIG1        0.1158
     13 C          -1.8170   -1.2380    0.0000 C.3     1  LIG1        0.0250
     14 C          -2.3130   -0.3710    0.0000 C.3     1  LIG1        0.0250
     15 C          -2.8130   -1.2380    0.0000 C.3     1  LIG1        0.0314
     16 C          -3.8130   -1.2380    0.0000 C.3     1  LIG1        0.0932
     17 O          -4.3170   -0.3710    0.0000 O.3     1  LIG1       -0.3585
     18 C          -3.8130    0.4960    0.0000 C.3     1  LIG1        0.1423
     19 C          -2.8130    0.4960    0.0000 C.3     1  LIG1        0.0362
     20 C          -4.6790   -1.7420    0.0000 C.3     1  LIG1        0.0296
     21 C          -3.8130   -2.2460    0.0000 C.3     1  LIG1        0.0296
     22 C          -1.8250    0.4960    0.0000 C.ar    1  LIG1       -0.0226
     23 C          -2.3290    1.3580    0.0000 C.ar    1  LIG1       -0.0043
     24 C          -1.8540    2.2290    0.0000 C.ar    1  LIG1       -0.0003
     25 C          -0.8460    2.2500    0.0000 C.ar    1  LIG1       -0.0000
     26 C          -0.3420    1.3830    0.0000 C.ar    1  LIG1       -0.0003
     27 C          -0.8290    0.5170    0.0000 C.ar    1  LIG1       -0.0043
@<TRIPOS>BOND
     1     1     2    1
     2     1     9    2
     3     1    10    2
     4     1    11    1
     5     2     3   ar
     6     2     7   ar
     7     3     4   ar
     8     4     5   ar
     9     5     6   ar
    10     5     8    1
    11     6     7   ar
    12    11    12    1
    13    12    13    1
    14    13    14    1
    15    14    15    1
    16    14    19    1
    17    14    22    1
    18    15    16    1
    19    16    17    1
    20    16    20    1
    21    16    21    1
    22    17    18    1
    23    18    19    1
    24    22    23   ar
    25    22    27   ar
    26    23    24   ar
    27    24    25   ar
    28    25    26   ar
    29    26    27   ar
