@<TRIPOS>MOLECULE
32067_ChemDiv_5595-0036
 30 33 0 0 0
SMALL
GASTEIGER
Energy = 0

@<TRIPOS>ATOM
      1 C          -0.4420   -0.2460    0.0000 C.2     1  LIG1        0.0545
      2 C          -0.4330   -1.2580    0.0000 C.2     1  LIG1        0.1434
      3 O          -1.3000   -1.7670    0.0000 O.3     1  LIG1       -0.4542
      4 C          -2.1670   -1.2580    0.0000 C.ar    1  LIG1        0.1418
      5 C          -2.1670   -0.2630    0.0000 C.ar    1  LIG1        0.0202
      6 C          -1.3080    0.2420    0.0000 C.3     1  LIG1        0.0743
      7 C          -1.3170    1.2460    0.0000 C.ar    1  LIG1       -0.0142
      8 C          -2.1750    1.7290    0.0000 C.ar    1  LIG1       -0.0036
      9 C          -2.1920    2.7250    0.0000 C.ar    1  LIG1       -0.0003
     10 C          -1.3210    3.2380    0.0000 C.ar    1  LIG1       -0.0000
     11 C          -0.4580    2.7420    0.0000 C.ar    1  LIG1       -0.0003
     12 C          -0.4460    1.7460    0.0000 C.ar    1  LIG1       -0.0036
     13 C          -3.0380    0.2380    0.0000 C.ar    1  LIG1       -0.0006
     14 C          -3.9000   -0.2630    0.0000 C.ar    1  LIG1       -0.0001
     15 C          -3.9000   -1.2670    0.0000 C.ar    1  LIG1        0.0031
     16 C          -3.0380   -1.7710    0.0000 C.ar    1  LIG1        0.0372
     17 C           0.4290   -1.7500    0.0000 C.ar    1  LIG1        0.0374
     18 C           1.2790   -1.2420    0.0000 C.ar    1  LIG1        0.0431
     19 C           2.1540   -1.7330    0.0000 C.ar    1  LIG1        0.1725
     20 C           2.1540   -2.7380    0.0000 C.ar    1  LIG1        0.1724
     21 C           1.2920   -3.2330    0.0000 C.ar    1  LIG1        0.0401
     22 C           0.4330   -2.7500    0.0000 C.ar    1  LIG1        0.0063
     23 O           3.0290   -3.2290    0.0000 O.3     1  LIG1       -0.4684
     24 C           3.8960   -2.7210    0.0000 C.3     1  LIG1        0.2526
     25 O           3.0130   -1.2290    0.0000 O.3     1  LIG1       -0.4684
     26 C           3.8830   -1.7210    0.0000 C.3     1  LIG1        0.2526
     27 C           0.4170    0.2500    0.0000 C.3     1  LIG1        0.1662
     28 N           1.4250    0.2500    0.0000 N.4     1  LIG1        0.3900
     29 C           1.9250   -0.6080    0.0000 C.3     1  LIG1        0.2030
     30 C           1.9250    1.1250    0.0000 C.3     1  LIG1        0.2030
@<TRIPOS>BOND
     1     1     2    2
     2     1     6    1
     3     1    27    1
     4     2     3    1
     5     2    17    1
     6     3     4    1
     7     4     5   ar
     8     4    16   ar
     9     5     6    1
    10     5    13   ar
    11     6     7    1
    12     7     8   ar
    13     7    12   ar
    14     8     9   ar
    15     9    10   ar
    16    10    11   ar
    17    11    12   ar
    18    13    14   ar
    19    14    15   ar
    20    15    16   ar
    21    17    18   ar
    22    17    22   ar
    23    18    19   ar
    24    19    20   ar
    25    19    25    1
    26    20    21   ar
    27    20    23    1
    28    21    22   ar
    29    23    24    1
    30    25    26    1
    31    27    28    1
    32    28    29    1
    33    28    30    1
