@<TRIPOS>MOLECULE
32065_ChemDiv_5595-0009
 32 36 0 0 0
SMALL
GASTEIGER
Energy = 0

@<TRIPOS>ATOM
      1 C          -0.0080    0.9250    0.0000 C.2     1  LIG1        0.0545
      2 C          -0.0080   -0.0960    0.0000 C.2     1  LIG1        0.1433
      3 O          -0.8540   -0.5960    0.0000 O.3     1  LIG1       -0.4542
      4 C          -1.7210   -0.0960    0.0000 C.ar    1  LIG1        0.1418
      5 C          -1.7210    0.9130    0.0000 C.ar    1  LIG1        0.0202
      6 C          -0.8750    1.4250    0.0000 C.3     1  LIG1        0.0743
      7 C          -0.8750    2.4460    0.0000 C.ar    1  LIG1       -0.0142
      8 C          -1.7380    2.9250    0.0000 C.ar    1  LIG1       -0.0036
      9 C          -1.7460    3.9460    0.0000 C.ar    1  LIG1       -0.0003
     10 C          -0.8790    4.4580    0.0000 C.ar    1  LIG1       -0.0000
     11 C          -0.0290    3.9500    0.0000 C.ar    1  LIG1       -0.0003
     12 C          -0.0170    2.9460    0.0000 C.ar    1  LIG1       -0.0036
     13 C          -2.5830    1.4250    0.0000 C.ar    1  LIG1       -0.0006
     14 C          -3.4380    0.9130    0.0000 C.ar    1  LIG1       -0.0001
     15 C          -3.4380   -0.0960    0.0000 C.ar    1  LIG1        0.0031
     16 C          -2.5830   -0.6080    0.0000 C.ar    1  LIG1        0.0372
     17 C           0.4830   -0.9580    0.0000 C.ar    1  LIG1        0.0343
     18 C          -0.0170   -1.8250    0.0000 C.ar    1  LIG1        0.0061
     19 C           0.4710   -2.6920    0.0000 C.ar    1  LIG1        0.0370
     20 C           1.4540   -2.6920    0.0000 C.ar    1  LIG1        0.1386
     21 C           1.9540   -1.8250    0.0000 C.ar    1  LIG1        0.0370
     22 C           1.4670   -0.9580    0.0000 C.ar    1  LIG1        0.0061
     23 O           1.9540   -3.5750    0.0000 O.3     1  LIG1       -0.4755
     24 C           2.9460   -3.5750    0.0000 C.3     1  LIG1        0.2055
     25 C           3.4330   -4.4580    0.0000 C.3     1  LIG1        0.0512
     26 C           0.8500    1.4460    0.0000 C.3     1  LIG1        0.1658
     27 N           1.7040    0.9330    0.0000 N.4     1  LIG1        0.3845
     28 C           2.5670    1.4460    0.0000 C.3     1  LIG1        0.1718
     29 C           3.4330    0.9460    0.0000 C.3     1  LIG1        0.2048
     30 O           3.4330   -0.0670    0.0000 O.3     1  LIG1       -0.3411
     31 C           2.5790   -0.5750    0.0000 C.3     1  LIG1        0.2048
     32 C           1.7210   -0.0750    0.0000 C.3     1  LIG1        0.1718
@<TRIPOS>BOND
     1     1     2    2
     2     1     6    1
     3     1    26    1
     4     2     3    1
     5     2    17    1
     6     3     4    1
     7     4     5   ar
     8     4    16   ar
     9     5     6    1
    10     5    13   ar
    11     6     7    1
    12     7     8   ar
    13     7    12   ar
    14     8     9   ar
    15     9    10   ar
    16    10    11   ar
    17    11    12   ar
    18    13    14   ar
    19    14    15   ar
    20    15    16   ar
    21    17    18   ar
    22    17    22   ar
    23    18    19   ar
    24    19    20   ar
    25    20    21   ar
    26    20    23    1
    27    21    22   ar
    28    23    24    1
    29    24    25    1
    30    26    27    1
    31    27    28    1
    32    27    32    1
    33    28    29    1
    34    29    30    1
    35    30    31    1
    36    31    32    1
