@<TRIPOS>MOLECULE
32073_ChemDiv_5596-1092
 20 21 0 0 0
SMALL
GASTEIGER
Energy = 0

@<TRIPOS>ATOM
      1 N           0.0130   -0.7580    0.0000 N.ar    1  LIG1       -0.2673
      2 C          -0.8540   -0.2540    0.0000 C.ar    1  LIG1        0.2639
      3 C          -1.7170   -0.7710    0.0000 C.ar    1  LIG1        0.0744
      4 C          -1.7170   -1.7750    0.0000 C.ar    1  LIG1        0.0876
      5 N          -0.8540   -2.2750    0.0000 N.ar    1  LIG1       -0.2252
      6 C           0.0130   -1.6250    0.0000 C.ar    1  LIG1        0.1813
      7 C          -2.5830   -2.2750    0.0000 C.ar    1  LIG1        0.0198
      8 C          -3.4540   -1.7750    0.0000 C.ar    1  LIG1        0.0082
      9 C          -3.4540   -0.7710    0.0000 C.ar    1  LIG1        0.0348
     10 C          -2.5830   -0.2710    0.0000 C.ar    1  LIG1        0.0129
     11 BR         -4.3290   -0.2710    0.0000 Br      1  LIG1       -0.0490
     12 O          -0.8670    0.7460    0.0000 O.2     1  LIG1       -0.2669
     13 C           0.8750   -0.2420    0.0000 C.3     1  LIG1        0.2201
     14 C           0.8630    0.7630    0.0000 C.2     1  LIG1        0.3405
     15 O          -0.0080    1.2630    0.0000 O.2     1  LIG1       -0.2479
     16 O           1.7290    1.2670    0.0000 O.3     1  LIG1       -0.4472
     17 C           2.5960    0.7750    0.0000 C.3     1  LIG1        0.2084
     18 C           3.4630    1.2790    0.0000 C.3     1  LIG1        0.0439
     19 C           4.3250    0.7750    0.0000 C.3     1  LIG1        0.0038
     20 C           3.4630    2.2790    0.0000 C.3     1  LIG1        0.0038
@<TRIPOS>BOND
     1     1     2   ar
     2     1     6   ar
     3     1    13    1
     4     2     3   ar
     5     2    12    2
     6     3     4   ar
     7     3    10   ar
     8     4     5   ar
     9     4     7   ar
    10     5     6   ar
    11     7     8   ar
    12     8     9   ar
    13     9    10   ar
    14     9    11    1
    15    13    14    1
    16    14    15    2
    17    14    16    1
    18    16    17    1
    19    17    18    1
    20    18    19    1
    21    18    20    1
