@<TRIPOS>MOLECULE
32071_ChemDiv_8009-6927
 24 27 0 0 0
SMALL
GASTEIGER
Energy = 0

@<TRIPOS>ATOM
      1 C           0.0080   -0.5250    0.0000 C.2     1  LIG1        0.1379
      2 C           0.0080    0.4790    0.0000 C.2     1  LIG1       -0.0010
      3 C          -0.8630    0.9960    0.0000 C.3     1  LIG1        0.0747
      4 C          -1.7290    0.4790    0.0000 C.ar    1  LIG1        0.0205
      5 C          -1.7290   -0.5250    0.0000 C.ar    1  LIG1        0.1418
      6 O          -0.8630   -1.0130    0.0000 O.3     1  LIG1       -0.4544
      7 C          -2.5960   -1.0130    0.0000 C.ar    1  LIG1        0.0372
      8 C          -3.4630   -0.5250    0.0000 C.ar    1  LIG1        0.0031
      9 C          -3.4630    0.4790    0.0000 C.ar    1  LIG1       -0.0001
     10 C          -2.5960    0.9960    0.0000 C.ar    1  LIG1       -0.0006
     11 C          -0.8630    1.9880    0.0000 C.ar    1  LIG1        0.0150
     12 S          -1.6750    2.5670    0.0000 S.2     1  LIG1       -0.0901
     13 C          -1.3380    3.5040    0.0000 C.ar    1  LIG1        0.0351
     14 C          -0.3290    3.5330    0.0000 C.ar    1  LIG1        0.0072
     15 C          -0.0460    2.5540    0.0000 C.ar    1  LIG1        0.0033
     16 C           0.8670    0.9830    0.0000 C.3     1  LIG1        0.0302
     17 C           0.8670   -1.0250    0.0000 C.ar    1  LIG1        0.0341
     18 C           0.8670   -2.0210    0.0000 C.ar    1  LIG1        0.0061
     19 C           1.7080   -2.5380    0.0000 C.ar    1  LIG1        0.0370
     20 C           2.6040   -2.0630    0.0000 C.ar    1  LIG1        0.1387
     21 C           2.6170   -1.0670    0.0000 C.ar    1  LIG1        0.0370
     22 C           1.7330   -0.5500    0.0000 C.ar    1  LIG1        0.0061
     23 O           3.4580   -2.5500    0.0000 O.3     1  LIG1       -0.4714
     24 C           3.4580   -3.5290    0.0000 C.3     1  LIG1        0.2525
@<TRIPOS>BOND
     1     1     2    2
     2     1     6    1
     3     1    17    1
     4     2     3    1
     5     2    16    1
     6     3     4    1
     7     3    11    1
     8     4     5   ar
     9     4    10   ar
    10     5     6    1
    11     5     7   ar
    12     7     8   ar
    13     8     9   ar
    14     9    10   ar
    15    11    12   ar
    16    11    15   ar
    17    12    13   ar
    18    13    14   ar
    19    14    15   ar
    20    17    18   ar
    21    17    22   ar
    22    18    19   ar
    23    19    20   ar
    24    20    21   ar
    25    20    23    1
    26    21    22   ar
    27    23    24    1
