@<TRIPOS>MOLECULE
32080_ChemDiv_5921-0162
 33 36 0 0 0
SMALL
GASTEIGER
Energy = 0

@<TRIPOS>ATOM
      1 C          -2.1000    1.2130    0.0000 C.ar    1  LIG1        0.0958
      2 C          -1.2380    0.7420    0.0000 C.ar    1  LIG1        0.1407
      3 N          -1.2380   -0.3080    0.0000 N.ar    1  LIG1       -0.2342
      4 C          -2.1000   -0.7670    0.0000 C.ar    1  LIG1        0.0629
      5 C          -2.9710   -0.3080    0.0000 C.ar    1  LIG1        0.0181
      6 C          -2.9710    0.7040    0.0000 C.ar    1  LIG1       -0.0079
      7 C          -3.8250    1.2130    0.0000 C.3     1  LIG1        0.0541
      8 C          -4.6880    0.7420    0.0000 C.3     1  LIG1        0.0974
      9 O          -4.6880   -0.3080    0.0000 O.3     1  LIG1       -0.3534
     10 C          -3.8250   -0.7670    0.0000 C.3     1  LIG1        0.1693
     11 C          -5.0880    1.6420    0.0000 C.3     1  LIG1        0.0300
     12 C          -5.6710    0.4500    0.0000 C.3     1  LIG1        0.0300
     13 C          -2.1000   -1.7790    0.0000 C.3     1  LIG1        0.0718
     14 C          -2.9710   -2.2880    0.0000 C.ar    1  LIG1       -0.0162
     15 C          -2.9710   -3.2880    0.0000 C.ar    1  LIG1       -0.0039
     16 C          -3.8250   -3.7580    0.0000 C.ar    1  LIG1       -0.0003
     17 C          -4.7130   -3.2790    0.0000 C.ar    1  LIG1       -0.0000
     18 C          -4.7130   -2.2880    0.0000 C.ar    1  LIG1       -0.0003
     19 C          -3.8250   -1.7790    0.0000 C.ar    1  LIG1       -0.0039
     20 N          -0.3710    1.2420    0.0000 N.pl3   1  LIG1       -0.2892
     21 C           0.5290    0.7420    0.0000 C.3     1  LIG1        0.1137
     22 C           1.3460    1.2420    0.0000 C.3     1  LIG1        0.1165
     23 N           1.3460    2.2460    0.0000 N.am    1  LIG1       -0.2594
     24 C           2.2420    2.7500    0.0000 C.2     1  LIG1        0.3233
     25 O           2.2420    3.7630    0.0000 O.2     1  LIG1       -0.2508
     26 N           3.0790    2.2460    0.0000 N.am    1  LIG1       -0.1884
     27 C           3.9500    2.7500    0.0000 C.3     1  LIG1        0.1168
     28 C           4.8500    2.2460    0.0000 C.3     1  LIG1        0.0235
     29 C           5.6670    2.7210    0.0000 C.3     1  LIG1        0.0019
     30 C           0.5290    2.7500    0.0000 C.3     1  LIG1        0.1165
     31 C          -0.3710    2.2460    0.0000 C.3     1  LIG1        0.1137
     32 C          -2.1000    2.2080    0.0000 C.1     1  LIG1        0.1029
     33 N          -2.1000    3.2210    0.0000 N.1     1  LIG1       -0.1907
@<TRIPOS>BOND
     1     1     2   ar
     2     1     6   ar
     3     1    32    1
     4     2     3   ar
     5     2    20    1
     6     3     4   ar
     7     4     5   ar
     8     4    13    1
     9     5     6   ar
    10     5    10    1
    11     6     7    1
    12     7     8    1
    13     8     9    1
    14     8    11    1
    15     8    12    1
    16     9    10    1
    17    13    14    1
    18    14    15   ar
    19    14    19   ar
    20    15    16   ar
    21    16    17   ar
    22    17    18   ar
    23    18    19   ar
    24    20    21    1
    25    20    31    1
    26    21    22    1
    27    22    23    1
    28    23    24   am
    29    23    30    1
    30    24    25    2
    31    24    26   am
    32    26    27    1
    33    27    28    1
    34    28    29    1
    35    30    31    1
    36    32    33    3
