@<TRIPOS>MOLECULE
32088_ChemDiv_6623-1103
 26 28 0 0 0
SMALL
GASTEIGER
Energy = 0

@<TRIPOS>ATOM
      1 N           2.1710    0.7540    0.0000 N.ar    1  LIG1       -0.2069
      2 C           1.2960    0.2580    0.0000 C.ar    1  LIG1        0.1379
      3 C           1.2960   -0.7380    0.0000 C.ar    1  LIG1        0.0780
      4 C           2.1710   -1.2380    0.0000 C.ar    1  LIG1        0.0446
      5 N           3.0420   -0.7380    0.0000 N.ar    1  LIG1       -0.3107
      6 C           3.0420    0.2580    0.0000 C.ar    1  LIG1        0.1825
      7 S           3.9040    0.7500    0.0000 S.2     1  LIG1       -0.0109
      8 C           3.9040   -1.2290    0.0000 C.3     1  LIG1        0.1077
      9 C           4.7830   -0.6880    0.0000 C.3     1  LIG1        0.0265
     10 C           2.1710   -2.2330    0.0000 C.3     1  LIG1        0.0503
     11 C           0.4420   -1.2380    0.0000 C.2     1  LIG1        0.1773
     12 O           0.4420   -2.2330    0.0000 O.2     1  LIG1       -0.2912
     13 C          -0.4330   -0.7380    0.0000 C.3     1  LIG1        0.0774
     14 N           0.4330    0.7500    0.0000 N.pl3   1  LIG1       -0.2822
     15 C          -0.4130    0.2500    0.0000 C.3     1  LIG1        0.1555
     16 C          -1.3080    0.7420    0.0000 C.3     1  LIG1        0.1610
     17 N          -1.3330    1.7290    0.0000 N.4     1  LIG1        0.3834
     18 C          -2.2080    2.2040    0.0000 C.3     1  LIG1        0.1663
     19 C          -3.0380    1.6630    0.0000 C.ar    1  LIG1        0.0344
     20 C          -3.9460    2.1130    0.0000 C.ar    1  LIG1        0.0014
     21 C          -4.7880    1.5710    0.0000 C.ar    1  LIG1       -0.0001
     22 C          -4.7380    0.5630    0.0000 C.ar    1  LIG1       -0.0000
     23 C          -3.8250    0.1290    0.0000 C.ar    1  LIG1       -0.0001
     24 C          -3.0130    0.6710    0.0000 C.ar    1  LIG1        0.0014
     25 C          -0.4790    2.2380    0.0000 C.3     1  LIG1        0.1610
     26 C           0.3960    1.7580    0.0000 C.3     1  LIG1        0.1555
@<TRIPOS>BOND
     1     1     2   ar
     2     1     6   ar
     3     2     3   ar
     4     2    14    1
     5     3     4   ar
     6     3    11    1
     7     4     5   ar
     8     4    10    1
     9     5     6   ar
    10     5     8    1
    11     6     7    2
    12     8     9    1
    13    11    12    2
    14    11    13    1
    15    14    15    1
    16    14    26    1
    17    15    16    1
    18    16    17    1
    19    17    18    1
    20    17    25    1
    21    18    19    1
    22    19    20   ar
    23    19    24   ar
    24    20    21   ar
    25    21    22   ar
    26    22    23   ar
    27    23    24   ar
    28    25    26    1
