@<TRIPOS>MOLECULE
32081_ChemDiv_5679-0020
 28 31 0 0 0
SMALL
GASTEIGER
Energy = 0

@<TRIPOS>ATOM
      1 N          -0.2880    0.6630    0.0000 N.am    1  LIG1       -0.2012
      2 C          -1.2920    0.7130    0.0000 C.ar    1  LIG1        0.0995
      3 C          -1.8750    1.5080    0.0000 C.ar    1  LIG1        0.0849
      4 C          -2.8290    1.2080    0.0000 C.ar    1  LIG1       -0.0088
      5 C          -2.8170    0.2080    0.0000 C.ar    1  LIG1        0.0052
      6 S          -1.8750   -0.0920    0.0000 S.2     1  LIG1       -0.0756
      7 C          -3.6920   -0.2920    0.0000 C.3     1  LIG1        0.0327
      8 C          -4.5500    0.2080    0.0000 C.3     1  LIG1        0.0055
      9 C          -4.5500    1.1960    0.0000 C.3     1  LIG1        0.0051
     10 C          -3.6920    1.7040    0.0000 C.3     1  LIG1        0.0273
     11 C          -1.5750    2.4670    0.0000 C.1     1  LIG1        0.1019
     12 N          -1.2710    3.4170    0.0000 N.1     1  LIG1       -0.1908
     13 C           0.3000    1.4790    0.0000 C.2     1  LIG1        0.2369
     14 C           1.2460    1.1460    0.0000 C.3     1  LIG1        0.1064
     15 C           1.2460    0.1790    0.0000 C.3     1  LIG1        0.1394
     16 C           0.2830   -0.1330    0.0000 C.2     1  LIG1        0.2460
     17 O          -0.0170   -1.0920    0.0000 O.2     1  LIG1       -0.2732
     18 S           2.0710   -0.3960    0.0000 S.3     1  LIG1       -0.0860
     19 C           1.9790   -1.4040    0.0000 C.ar    1  LIG1        0.1082
     20 C           2.8040   -1.9670    0.0000 C.ar    1  LIG1        0.0375
     21 C           3.7130   -1.5420    0.0000 C.2     1  LIG1        0.0748
     22 O           3.7880   -0.5330    0.0000 O.co2   1  LIG1       -0.5445
     23 O           4.5460   -2.1040    0.0000 O.co2   1  LIG1       -0.5445
     24 C           2.7330   -2.9750    0.0000 C.ar    1  LIG1        0.0047
     25 C           1.8250   -3.4130    0.0000 C.ar    1  LIG1        0.0208
     26 C           1.0040   -2.8290    0.0000 C.ar    1  LIG1        0.0994
     27 N           1.0710   -1.8420    0.0000 N.ar    1  LIG1       -0.2376
     28 O          -0.0170    2.4290    0.0000 O.2     1  LIG1       -0.2741
@<TRIPOS>BOND
     1     1     2    1
     2     1    13   am
     3     1    16   am
     4     2     3   ar
     5     2     6   ar
     6     3     4   ar
     7     3    11    1
     8     4     5   ar
     9     4    10    1
    10     5     6   ar
    11     5     7    1
    12     7     8    1
    13     8     9    1
    14     9    10    1
    15    11    12    3
    16    13    14    1
    17    13    28    2
    18    14    15    1
    19    15    16    1
    20    15    18    1
    21    16    17    2
    22    18    19    1
    23    19    20   ar
    24    19    27   ar
    25    20    21    1
    26    20    24   ar
    27    21    22   ar
    28    21    23   ar
    29    24    25   ar
    30    25    26   ar
    31    26    27   ar
