@<TRIPOS>MOLECULE
32082_ChemDiv_6623-0944
 23 25 0 0 0
SMALL
GASTEIGER
Energy = 0

@<TRIPOS>ATOM
      1 N          -0.2830    1.2750    0.0000 N.ar    1  LIG1       -0.1769
      2 C          -0.9880    0.5750    0.0000 C.ar    1  LIG1        0.1404
      3 C          -0.7170   -0.3880    0.0000 C.ar    1  LIG1        0.0785
      4 C           0.2330   -0.6460    0.0000 C.ar    1  LIG1        0.0514
      5 N           0.9630    0.0460    0.0000 N.ar    1  LIG1       -0.2624
      6 C           0.7080    1.0130    0.0000 C.ar    1  LIG1        0.3549
      7 O           1.4380    1.7580    0.0000 O.2     1  LIG1       -0.2440
      8 C           1.9290   -0.2000    0.0000 C.ar    1  LIG1        0.0680
      9 C           2.1960   -1.1540    0.0000 C.ar    1  LIG1        0.0177
     10 C           3.1500   -1.4080    0.0000 C.ar    1  LIG1        0.0015
     11 C           3.8790   -0.7130    0.0000 C.ar    1  LIG1        0.0001
     12 C           3.6040    0.2380    0.0000 C.ar    1  LIG1        0.0015
     13 C           2.6380    0.5040    0.0000 C.ar    1  LIG1        0.0177
     14 C           0.5000   -1.6580    0.0000 C.3     1  LIG1        0.0507
     15 C          -1.4460   -1.0830    0.0000 C.2     1  LIG1        0.1773
     16 O          -1.2210   -2.0460    0.0000 O.2     1  LIG1       -0.2912
     17 C          -2.4130   -0.7830    0.0000 C.3     1  LIG1        0.0774
     18 N          -1.9500    0.8380    0.0000 N.pl3   1  LIG1       -0.2879
     19 C          -2.2420    1.7960    0.0000 C.3     1  LIG1        0.1242
     20 C          -3.1920    2.0500    0.0000 C.3     1  LIG1        0.1636
     21 O          -3.8830    1.3290    0.0000 O.3     1  LIG1       -0.3501
     22 C          -3.6080    0.4000    0.0000 C.3     1  LIG1        0.1636
     23 C          -2.6330    0.1580    0.0000 C.3     1  LIG1        0.1242
@<TRIPOS>BOND
     1     1     2   ar
     2     1     6   ar
     3     2     3   ar
     4     2    18    1
     5     3     4   ar
     6     3    15    1
     7     4     5   ar
     8     4    14    1
     9     5     6   ar
    10     5     8    1
    11     6     7    2
    12     8     9   ar
    13     8    13   ar
    14     9    10   ar
    15    10    11   ar
    16    11    12   ar
    17    12    13   ar
    18    15    16    2
    19    15    17    1
    20    18    19    1
    21    18    23    1
    22    19    20    1
    23    20    21    1
    24    21    22    1
    25    22    23    1
