@<TRIPOS>MOLECULE
32085_ChemDiv_8009-0428
 20 23 0 0 0
SMALL
GASTEIGER
Energy = 0

@<TRIPOS>ATOM
      1 C           0.1420    0.1380    0.0000 C.3     1  LIG1        0.1247
      2 N          -0.8460    0.2710    0.0000 N.am    1  LIG1       -0.2906
      3 C          -1.5380   -0.4170    0.0000 C.2     1  LIG1        0.1115
      4 S          -2.4290    0.0630    0.0000 S.3     1  LIG1       -0.0905
      5 C          -2.2460    1.0210    0.0000 C.3     1  LIG1        0.0853
      6 C          -1.2750    1.1630    0.0000 C.3     1  LIG1        0.1043
      7 S          -1.3790   -1.4170    0.0000 S.2     1  LIG1       -0.0279
      8 C           0.7630    0.9170    0.0000 C.ar    1  LIG1        0.0345
      9 C           1.7750    0.7460    0.0000 C.ar    1  LIG1        0.1431
     10 O           2.1380   -0.1830    0.0000 O.3     1  LIG1       -0.4540
     11 C           1.5130   -0.9500    0.0000 C.ar    1  LIG1        0.1431
     12 C           0.5000   -0.7790    0.0000 C.ar    1  LIG1        0.0345
     13 C          -0.1210   -1.5580    0.0000 C.ar    1  LIG1        0.0007
     14 C           0.2290   -2.4540    0.0000 C.ar    1  LIG1       -0.0001
     15 C           1.2420   -2.6250    0.0000 C.ar    1  LIG1        0.0031
     16 C           1.8630   -1.8580    0.0000 C.ar    1  LIG1        0.0372
     17 C           2.4250    1.5250    0.0000 C.ar    1  LIG1        0.0372
     18 C           2.0830    2.4750    0.0000 C.ar    1  LIG1        0.0031
     19 C           1.0210    2.6290    0.0000 C.ar    1  LIG1       -0.0001
     20 C           0.4000    1.8630    0.0000 C.ar    1  LIG1        0.0007
@<TRIPOS>BOND
     1     1     2    1
     2     1     8    1
     3     1    12    1
     4     2     3    1
     5     2     6    1
     6     3     4    1
     7     3     7    2
     8     4     5    1
     9     5     6    1
    10     8     9   ar
    11     8    20   ar
    12     9    10    1
    13     9    17   ar
    14    10    11    1
    15    11    12   ar
    16    11    16   ar
    17    12    13   ar
    18    13    14   ar
    19    14    15   ar
    20    15    16   ar
    21    17    18   ar
    22    18    19   ar
    23    19    20   ar
