@<TRIPOS>MOLECULE
32089_ChemDiv_8016-2861
 28 31 0 0 0
SMALL
GASTEIGER
Energy = 0

@<TRIPOS>ATOM
      1 C          -1.6500   -1.2880    0.0000 C.3     1  LIG1        0.1472
      2 C          -1.2460   -2.2040    0.0000 C.ar    1  LIG1        0.0363
      3 C          -1.8460   -3.0170    0.0000 C.ar    1  LIG1        0.1432
      4 O          -2.8380   -2.9040    0.0000 O.3     1  LIG1       -0.4540
      5 C          -3.2420   -1.9880    0.0000 C.ar    1  LIG1        0.1432
      6 C          -2.6460   -1.1790    0.0000 C.ar    1  LIG1        0.0363
      7 C          -3.0500   -0.2750    0.0000 C.ar    1  LIG1        0.0007
      8 C          -4.0420   -0.1580    0.0000 C.ar    1  LIG1       -0.0001
      9 C          -4.6380   -0.9750    0.0000 C.ar    1  LIG1        0.0031
     10 C          -4.2290   -1.8790    0.0000 C.ar    1  LIG1        0.0372
     11 C          -1.4500   -3.9290    0.0000 C.ar    1  LIG1        0.0372
     12 C          -0.4460   -4.0420    0.0000 C.ar    1  LIG1        0.0031
     13 C           0.1500   -3.2380    0.0000 C.ar    1  LIG1       -0.0001
     14 C          -0.2500   -2.3130    0.0000 C.ar    1  LIG1        0.0007
     15 N          -1.0580   -0.4790    0.0000 N.am    1  LIG1       -0.1797
     16 C          -1.3630    0.4750    0.0000 C.2     1  LIG1        0.3399
     17 O          -2.3330    0.7380    0.0000 O.2     1  LIG1       -0.2492
     18 N          -0.5580    1.0630    0.0000 N.am    1  LIG1       -0.1832
     19 C          -0.5630    2.0670    0.0000 C.3     1  LIG1        0.1640
     20 C           0.3000    2.5670    0.0000 C.3     1  LIG1        0.2288
     21 O           1.1540    2.0750    0.0000 O.3     1  LIG1       -0.4735
     22 C           2.0170    2.5670    0.0000 C.ar    1  LIG1        0.1386
     23 C           2.8920    2.0630    0.0000 C.ar    1  LIG1        0.0366
     24 C           3.7580    2.5540    0.0000 C.ar    1  LIG1       -0.0011
     25 C           3.7670    3.5630    0.0000 C.ar    1  LIG1       -0.0217
     26 C           2.8920    4.0420    0.0000 C.ar    1  LIG1       -0.0011
     27 C           2.0290    3.5630    0.0000 C.ar    1  LIG1        0.0366
     28 C           4.6330    4.0420    0.0000 C.3     1  LIG1        0.0310
@<TRIPOS>BOND
     1     1     2    1
     2     1     6    1
     3     1    15    1
     4     2     3   ar
     5     2    14   ar
     6     3     4    1
     7     3    11   ar
     8     4     5    1
     9     5     6   ar
    10     5    10   ar
    11     6     7   ar
    12     7     8   ar
    13     8     9   ar
    14     9    10   ar
    15    11    12   ar
    16    12    13   ar
    17    13    14   ar
    18    15    16   am
    19    16    17    2
    20    16    18   am
    21    18    19    1
    22    19    20    1
    23    20    21    1
    24    21    22    1
    25    22    23   ar
    26    22    27   ar
    27    23    24   ar
    28    24    25   ar
    29    25    26   ar
    30    25    28    1
    31    26    27   ar
