@<TRIPOS>MOLECULE
32086_ChemDiv_6623-0989
 24 26 0 0 0
SMALL
GASTEIGER
Energy = 0

@<TRIPOS>ATOM
      1 N           0.4250    0.9920    0.0000 N.ar    1  LIG1       -0.2066
      2 C          -0.4290    0.5040    0.0000 C.ar    1  LIG1        0.1379
      3 C          -0.4290   -0.5000    0.0000 C.ar    1  LIG1        0.0783
      4 C           0.4250   -1.0210    0.0000 C.ar    1  LIG1        0.0490
      5 N           1.2920   -0.5000    0.0000 N.ar    1  LIG1       -0.2897
      6 C           1.2920    0.5040    0.0000 C.ar    1  LIG1        0.1864
      7 S           2.1670    1.0330    0.0000 S.2     1  LIG1       -0.0106
      8 C           2.1460   -1.0210    0.0000 C.ar    1  LIG1        0.0655
      9 C           3.0040   -0.5000    0.0000 C.ar    1  LIG1        0.0176
     10 C           3.8580   -1.0210    0.0000 C.ar    1  LIG1        0.0015
     11 C           3.8580   -2.0250    0.0000 C.ar    1  LIG1        0.0001
     12 C           3.0040   -2.5130    0.0000 C.ar    1  LIG1        0.0015
     13 C           2.1460   -2.0250    0.0000 C.ar    1  LIG1        0.0176
     14 C           0.4250   -2.0250    0.0000 C.3     1  LIG1        0.0506
     15 C          -1.3170   -1.0210    0.0000 C.2     1  LIG1        0.1773
     16 O          -1.3170   -2.0630    0.0000 O.2     1  LIG1       -0.2912
     17 C          -2.1710   -0.5380    0.0000 C.3     1  LIG1        0.0774
     18 N          -1.2830    0.9920    0.0000 N.pl3   1  LIG1       -0.2822
     19 C          -1.2830    1.9960    0.0000 C.3     1  LIG1        0.1555
     20 C          -2.1420    2.4750    0.0000 C.3     1  LIG1        0.1608
     21 N          -2.9960    1.9960    0.0000 N.4     1  LIG1        0.3847
     22 C          -2.9960    0.9920    0.0000 C.3     1  LIG1        0.1608
     23 C          -2.1420    0.5040    0.0000 C.3     1  LIG1        0.1555
     24 C          -3.8630    2.5170    0.0000 C.3     1  LIG1        0.2024
@<TRIPOS>BOND
     1     1     2   ar
     2     1     6   ar
     3     2     3   ar
     4     2    18    1
     5     3     4   ar
     6     3    15    1
     7     4     5   ar
     8     4    14    1
     9     5     6   ar
    10     5     8    1
    11     6     7    2
    12     8     9   ar
    13     8    13   ar
    14     9    10   ar
    15    10    11   ar
    16    11    12   ar
    17    12    13   ar
    18    15    16    2
    19    15    17    1
    20    18    19    1
    21    18    23    1
    22    19    20    1
    23    20    21    1
    24    21    22    1
    25    21    24    1
    26    22    23    1
