@<TRIPOS>MOLECULE
32083_ChemDiv_5681-0026
 19 21 0 0 0
SMALL
GASTEIGER
Energy = 0

@<TRIPOS>ATOM
      1 C          -0.0040   -0.4920    0.0000 C.3     1  LIG1        0.1489
      2 C          -0.8710   -1.0040    0.0000 C.ar    1  LIG1        0.0363
      3 C          -0.8710   -2.0000    0.0000 C.ar    1  LIG1        0.1432
      4 O          -0.0040   -2.5000    0.0000 O.3     1  LIG1       -0.4540
      5 C           0.8630   -1.9830    0.0000 C.ar    1  LIG1        0.1432
      6 C           0.8630   -0.9880    0.0000 C.ar    1  LIG1        0.0363
      7 C           1.7250   -0.5040    0.0000 C.ar    1  LIG1        0.0007
      8 C           2.5920   -0.9880    0.0000 C.ar    1  LIG1       -0.0001
      9 C           2.5920   -2.0000    0.0000 C.ar    1  LIG1        0.0031
     10 C           1.7250   -2.4880    0.0000 C.ar    1  LIG1        0.0372
     11 C          -1.7250   -2.5000    0.0000 C.ar    1  LIG1        0.0372
     12 C          -2.5960   -2.0130    0.0000 C.ar    1  LIG1        0.0031
     13 C          -2.5960   -1.0040    0.0000 C.ar    1  LIG1       -0.0001
     14 C          -1.7290   -0.5040    0.0000 C.ar    1  LIG1        0.0007
     15 N          -0.0040    0.5130    0.0000 N.am    1  LIG1       -0.1612
     16 C           0.8630    1.0210    0.0000 C.2     1  LIG1        0.4218
     17 O           1.7250    0.5170    0.0000 O.2     1  LIG1       -0.2245
     18 O           0.8630    2.0170    0.0000 O.3     1  LIG1       -0.4294
     19 C          -0.0210    2.5040    0.0000 C.3     1  LIG1        0.2574
@<TRIPOS>BOND
     1     1     2    1
     2     1     6    1
     3     1    15    1
     4     2     3   ar
     5     2    14   ar
     6     3     4    1
     7     3    11   ar
     8     4     5    1
     9     5     6   ar
    10     5    10   ar
    11     6     7   ar
    12     7     8   ar
    13     8     9   ar
    14     9    10   ar
    15    11    12   ar
    16    12    13   ar
    17    13    14   ar
    18    15    16   am
    19    16    17    2
    20    16    18    1
    21    18    19    1
