@<TRIPOS>MOLECULE
32087_ChemDiv_8013-3284
 32 35 0 0 0
SMALL
GASTEIGER
Energy = 0

@<TRIPOS>ATOM
      1 C           3.4790    0.5040    0.0000 C.3     1  LIG1        0.1472
      2 C           4.3500    0.9670    0.0000 C.ar    1  LIG1        0.0363
      3 C           5.1790    0.4670    0.0000 C.ar    1  LIG1        0.1432
      4 O           5.1790   -0.5210    0.0000 O.3     1  LIG1       -0.4540
      5 C           4.3130   -0.9710    0.0000 C.ar    1  LIG1        0.1432
      6 C           3.4670   -0.4710    0.0000 C.ar    1  LIG1        0.0363
      7 C           2.5790   -0.9460    0.0000 C.ar    1  LIG1        0.0007
      8 C           2.5790   -1.9880    0.0000 C.ar    1  LIG1       -0.0001
      9 C           3.4250   -2.4670    0.0000 C.ar    1  LIG1        0.0031
     10 C           4.2960   -1.9630    0.0000 C.ar    1  LIG1        0.0372
     11 C           6.0670    0.9540    0.0000 C.ar    1  LIG1        0.0372
     12 C           6.0790    1.9420    0.0000 C.ar    1  LIG1        0.0031
     13 C           5.2330    2.4710    0.0000 C.ar    1  LIG1       -0.0001
     14 C           4.3500    1.9830    0.0000 C.ar    1  LIG1        0.0007
     15 N           2.6380    1.0210    0.0000 N.am    1  LIG1       -0.1797
     16 C           1.8000    0.5460    0.0000 C.2     1  LIG1        0.3398
     17 O           1.7880   -0.4460    0.0000 O.2     1  LIG1       -0.2492
     18 N           0.9330    1.0630    0.0000 N.am    1  LIG1       -0.1868
     19 C           0.0420    0.5710    0.0000 C.3     1  LIG1        0.1215
     20 C          -0.8330    1.1000    0.0000 C.3     1  LIG1        0.0499
     21 C          -1.7040    0.6130    0.0000 C.ar    1  LIG1       -0.0172
     22 C          -2.5710    1.1250    0.0000 C.ar    1  LIG1        0.0358
     23 C          -3.4420    0.6130    0.0000 C.ar    1  LIG1        0.1719
     24 C          -3.4420   -0.3920    0.0000 C.ar    1  LIG1        0.1722
     25 C          -2.5710   -0.9080    0.0000 C.ar    1  LIG1        0.0397
     26 C          -1.7040   -0.3920    0.0000 C.ar    1  LIG1       -0.0009
     27 O          -4.3130   -0.8790    0.0000 O.3     1  LIG1       -0.4724
     28 C          -5.1830   -0.3790    0.0000 C.3     1  LIG1        0.2057
     29 C          -6.0790   -0.8670    0.0000 C.3     1  LIG1        0.0512
     30 O          -4.3130    1.1000    0.0000 O.3     1  LIG1       -0.4724
     31 C          -5.1710    0.5710    0.0000 C.3     1  LIG1        0.2057
     32 C          -6.0500    1.0630    0.0000 C.3     1  LIG1        0.0512
@<TRIPOS>BOND
     1     1     2    1
     2     1     6    1
     3     1    15    1
     4     2     3   ar
     5     2    14   ar
     6     3     4    1
     7     3    11   ar
     8     4     5    1
     9     5     6   ar
    10     5    10   ar
    11     6     7   ar
    12     7     8   ar
    13     8     9   ar
    14     9    10   ar
    15    11    12   ar
    16    12    13   ar
    17    13    14   ar
    18    15    16   am
    19    16    17    2
    20    16    18   am
    21    18    19    1
    22    19    20    1
    23    20    21    1
    24    21    22   ar
    25    21    26   ar
    26    22    23   ar
    27    23    24   ar
    28    23    30    1
    29    24    25   ar
    30    24    27    1
    31    25    26   ar
    32    27    28    1
    33    28    29    1
    34    30    31    1
    35    31    32    1
