@<TRIPOS>MOLECULE
32093_ChemDiv_8016-5566
 29 32 0 0 0
SMALL
GASTEIGER
Energy = 0

@<TRIPOS>ATOM
      1 C          -2.1670    0.4920    0.0000 C.3     1  LIG1        0.0597
      2 C          -3.0170    0.9960    0.0000 C.ar    1  LIG1        0.0167
      3 C          -3.0290    1.9960    0.0000 C.ar    1  LIG1        0.1416
      4 O          -2.1710    2.5080    0.0000 O.3     1  LIG1       -0.4541
      5 C          -1.3040    2.0080    0.0000 C.ar    1  LIG1        0.1416
      6 C          -1.2920    1.0080    0.0000 C.ar    1  LIG1        0.0167
      7 C          -0.4290    0.5130    0.0000 C.ar    1  LIG1       -0.0009
      8 C           0.4330    1.0210    0.0000 C.ar    1  LIG1       -0.0001
      9 C           0.4210    2.0210    0.0000 C.ar    1  LIG1        0.0031
     10 C          -0.4420    2.5080    0.0000 C.ar    1  LIG1        0.0372
     11 C          -3.8960    2.4960    0.0000 C.ar    1  LIG1        0.0372
     12 C          -4.7630    1.9960    0.0000 C.ar    1  LIG1        0.0031
     13 C          -4.7630    0.9960    0.0000 C.ar    1  LIG1       -0.0001
     14 C          -3.8920    0.4880    0.0000 C.ar    1  LIG1       -0.0009
     15 C          -2.1540   -0.5040    0.0000 C.3     1  LIG1        0.0957
     16 C          -1.2920   -1.0040    0.0000 C.2     1  LIG1        0.2421
     17 O          -1.3040   -2.0080    0.0000 O.2     1  LIG1       -0.2733
     18 N          -0.4290   -0.5040    0.0000 N.am    1  LIG1       -0.2014
     19 C           0.4420   -1.0040    0.0000 C.3     1  LIG1        0.1623
     20 C           1.2960   -0.4960    0.0000 C.3     1  LIG1        0.2289
     21 O           2.1580   -0.9960    0.0000 O.3     1  LIG1       -0.4705
     22 C           3.0290   -0.4960    0.0000 C.ar    1  LIG1        0.1723
     23 C           3.8920   -0.9920    0.0000 C.ar    1  LIG1        0.1724
     24 O           3.8960   -1.9960    0.0000 O.3     1  LIG1       -0.4684
     25 C           3.0330   -2.5040    0.0000 C.3     1  LIG1        0.2526
     26 C           4.7580   -0.4830    0.0000 C.ar    1  LIG1        0.0400
     27 C           4.7540    0.5130    0.0000 C.ar    1  LIG1        0.0033
     28 C           3.8710    1.0080    0.0000 C.ar    1  LIG1        0.0033
     29 C           3.0210    0.5040    0.0000 C.ar    1  LIG1        0.0400
@<TRIPOS>BOND
     1     1     2    1
     2     1     6    1
     3     1    15    1
     4     2     3   ar
     5     2    14   ar
     6     3     4    1
     7     3    11   ar
     8     4     5    1
     9     5     6   ar
    10     5    10   ar
    11     6     7   ar
    12     7     8   ar
    13     8     9   ar
    14     9    10   ar
    15    11    12   ar
    16    12    13   ar
    17    13    14   ar
    18    15    16    1
    19    16    17    2
    20    16    18   am
    21    18    19    1
    22    19    20    1
    23    20    21    1
    24    21    22    1
    25    22    23   ar
    26    22    29   ar
    27    23    24    1
    28    23    26   ar
    29    24    25    1
    30    26    27   ar
    31    27    28   ar
    32    28    29   ar
