@<TRIPOS>MOLECULE
32095_ChemDiv_8016-9085
 25 28 0 0 0
SMALL
GASTEIGER
Energy = 0

@<TRIPOS>ATOM
      1 C           1.6790    0.0080    0.0000 C.3     1  LIG1        0.0597
      2 C           2.6290   -0.3040    0.0000 C.ar    1  LIG1        0.0167
      3 C           2.8330   -1.2790    0.0000 C.ar    1  LIG1        0.1416
      4 O           2.0830   -1.9460    0.0000 O.3     1  LIG1       -0.4541
      5 C           1.1330   -1.6290    0.0000 C.ar    1  LIG1        0.1416
      6 C           0.9330   -0.6500    0.0000 C.ar    1  LIG1        0.0167
      7 C          -0.0040   -0.3420    0.0000 C.ar    1  LIG1       -0.0009
      8 C          -0.7460   -0.9960    0.0000 C.ar    1  LIG1       -0.0001
      9 C          -0.5420   -1.9790    0.0000 C.ar    1  LIG1        0.0031
     10 C           0.3960   -2.2830    0.0000 C.ar    1  LIG1        0.0372
     11 C           3.7830   -1.5790    0.0000 C.ar    1  LIG1        0.0372
     12 C           4.5210   -0.9170    0.0000 C.ar    1  LIG1        0.0031
     13 C           4.3080    0.0670    0.0000 C.ar    1  LIG1       -0.0001
     14 C           3.3580    0.3710    0.0000 C.ar    1  LIG1       -0.0009
     15 C           1.4670    0.9960    0.0000 C.3     1  LIG1        0.0957
     16 C           0.5080    1.3040    0.0000 C.2     1  LIG1        0.2420
     17 O           0.3040    2.2880    0.0000 O.2     1  LIG1       -0.2733
     18 N          -0.2330    0.6290    0.0000 N.am    1  LIG1       -0.2050
     19 C          -1.1920    0.9420    0.0000 C.3     1  LIG1        0.1203
     20 C          -1.9420    0.2710    0.0000 C.3     1  LIG1        0.0564
     21 C          -2.8920    0.5880    0.0000 C.ar    1  LIG1        0.0091
     22 S          -3.7040   -0.0040    0.0000 S.2     1  LIG1       -0.0907
     23 C          -4.5250    0.5880    0.0000 C.ar    1  LIG1        0.0351
     24 C          -4.2130    1.5420    0.0000 C.ar    1  LIG1        0.0072
     25 C          -3.2040    1.5420    0.0000 C.ar    1  LIG1        0.0027
@<TRIPOS>BOND
     1     1     2    1
     2     1     6    1
     3     1    15    1
     4     2     3   ar
     5     2    14   ar
     6     3     4    1
     7     3    11   ar
     8     4     5    1
     9     5     6   ar
    10     5    10   ar
    11     6     7   ar
    12     7     8   ar
    13     8     9   ar
    14     9    10   ar
    15    11    12   ar
    16    12    13   ar
    17    13    14   ar
    18    15    16    1
    19    16    17    2
    20    16    18   am
    21    18    19    1
    22    19    20    1
    23    20    21    1
    24    21    22   ar
    25    21    25   ar
    26    22    23   ar
    27    23    24   ar
    28    24    25   ar
