@<TRIPOS>MOLECULE
32096_ChemDiv_8015-1058
 22 23 0 0 0
SMALL
GASTEIGER
Energy = 0

@<TRIPOS>ATOM
      1 N           1.3500    0.9630    0.0000 N.ar    1  LIG1       -0.2069
      2 C           0.6420    0.2670    0.0000 C.ar    1  LIG1        0.1376
      3 C           0.9000   -0.7080    0.0000 C.ar    1  LIG1        0.0780
      4 C           1.8790   -0.9670    0.0000 C.ar    1  LIG1        0.0446
      5 N           2.5750   -0.2630    0.0000 N.ar    1  LIG1       -0.3107
      6 C           2.3130    0.7040    0.0000 C.ar    1  LIG1        0.1825
      7 S           3.0210    1.4210    0.0000 S.2     1  LIG1       -0.0109
      8 C           3.5250   -0.5080    0.0000 C.3     1  LIG1        0.1077
      9 C           3.8080   -1.4630    0.0000 C.3     1  LIG1        0.0265
     10 C           2.1670   -1.9330    0.0000 C.3     1  LIG1        0.0503
     11 C           0.1580   -1.3920    0.0000 C.2     1  LIG1        0.1773
     12 O          -0.7710   -1.1130    0.0000 O.2     1  LIG1       -0.2912
     13 C           0.4040   -2.3580    0.0000 C.3     1  LIG1        0.0774
     14 N          -0.3250    0.5380    0.0000 N.pl3   1  LIG1       -0.2931
     15 C          -0.5710    1.5000    0.0000 C.3     1  LIG1        0.0927
     16 C          -1.5250    1.7790    0.0000 C.3     1  LIG1        0.0307
     17 C          -2.2670    1.0880    0.0000 C.3     1  LIG1        0.0833
     18 C          -3.2170    1.3670    0.0000 C.2     1  LIG1        0.2604
     19 O          -3.5750    2.3630    0.0000 O.2     1  LIG1       -0.2717
     20 N          -3.8130    0.6460    0.0000 N.am    1  LIG1       -0.0878
     21 C          -2.0170    0.1000    0.0000 C.3     1  LIG1        0.0307
     22 C          -1.0500   -0.1710    0.0000 C.3     1  LIG1        0.0927
@<TRIPOS>BOND
     1     1     2   ar
     2     1     6   ar
     3     2     3   ar
     4     2    14    1
     5     3     4   ar
     6     3    11    1
     7     4     5   ar
     8     4    10    1
     9     5     6   ar
    10     5     8    1
    11     6     7    2
    12     8     9    1
    13    11    12    2
    14    11    13    1
    15    14    15    1
    16    14    22    1
    17    15    16    1
    18    16    17    1
    19    17    18    1
    20    17    21    1
    21    18    19    2
    22    18    20   am
    23    21    22    1
