@<TRIPOS>MOLECULE
32090_ChemDiv_8013-3546
 22 23 0 0 0
SMALL
GASTEIGER
Energy = 0

@<TRIPOS>ATOM
      1 N           0.4250    0.9540    0.0000 N.ar    1  LIG1       -0.2051
      2 C           1.2880    0.4630    0.0000 C.ar    1  LIG1        0.1864
      3 N           1.2880   -0.5460    0.0000 N.ar    1  LIG1       -0.2897
      4 C           0.4250   -1.0330    0.0000 C.ar    1  LIG1        0.0490
      5 C          -0.4380   -0.5460    0.0000 C.ar    1  LIG1        0.0797
      6 C          -0.4380    0.4630    0.0000 C.ar    1  LIG1        0.1534
      7 N          -1.3250    0.9830    0.0000 N.pl3   1  LIG1       -0.2202
      8 C          -1.3250    1.9540    0.0000 C.3     1  LIG1        0.1138
      9 C          -2.1920    2.4750    0.0000 C.3     1  LIG1        0.0234
     10 C          -3.0540    2.0210    0.0000 C.3     1  LIG1        0.0018
     11 C          -3.8880    2.5380    0.0000 C.3     1  LIG1        0.0001
     12 C          -1.3250   -1.0330    0.0000 C.2     1  LIG1        0.1773
     13 O          -1.3250   -2.0460    0.0000 O.2     1  LIG1       -0.2912
     14 C          -2.1920   -0.5460    0.0000 C.3     1  LIG1        0.0774
     15 C           0.4250   -2.0460    0.0000 C.3     1  LIG1        0.0506
     16 C           2.1540   -1.0330    0.0000 C.ar    1  LIG1        0.0655
     17 C           2.1540   -2.0460    0.0000 C.ar    1  LIG1        0.0176
     18 C           3.0170   -2.5330    0.0000 C.ar    1  LIG1        0.0015
     19 C           3.8830   -2.0460    0.0000 C.ar    1  LIG1        0.0001
     20 C           3.8830   -1.0330    0.0000 C.ar    1  LIG1        0.0015
     21 C           3.0170   -0.5460    0.0000 C.ar    1  LIG1        0.0176
     22 S           2.1670    0.9830    0.0000 S.2     1  LIG1       -0.0106
@<TRIPOS>BOND
     1     1     2   ar
     2     1     6   ar
     3     2     3   ar
     4     2    22    2
     5     3     4   ar
     6     3    16    1
     7     4     5   ar
     8     4    15    1
     9     5     6   ar
    10     5    12    1
    11     6     7    1
    12     7     8    1
    13     8     9    1
    14     9    10    1
    15    10    11    1
    16    12    13    2
    17    12    14    1
    18    16    17   ar
    19    16    21   ar
    20    17    18   ar
    21    18    19   ar
    22    19    20   ar
    23    20    21   ar
