@<TRIPOS>MOLECULE
32091_ChemDiv_8016-2862
 29 32 0 0 0
SMALL
GASTEIGER
Energy = 0

@<TRIPOS>ATOM
      1 C          -1.6540   -1.2880    0.0000 C.3     1  LIG1        0.1472
      2 C          -1.2420   -2.2000    0.0000 C.ar    1  LIG1        0.0363
      3 C          -1.8420   -3.0080    0.0000 C.ar    1  LIG1        0.1432
      4 O          -2.8420   -2.9080    0.0000 O.3     1  LIG1       -0.4540
      5 C          -3.2330   -1.9830    0.0000 C.ar    1  LIG1        0.1432
      6 C          -2.6540   -1.1830    0.0000 C.ar    1  LIG1        0.0363
      7 C          -3.0420   -0.2630    0.0000 C.ar    1  LIG1        0.0007
      8 C          -4.0330   -0.1540    0.0000 C.ar    1  LIG1       -0.0001
      9 C          -4.6290   -0.9630    0.0000 C.ar    1  LIG1        0.0031
     10 C          -4.2170   -1.8750    0.0000 C.ar    1  LIG1        0.0372
     11 C          -1.4460   -3.9250    0.0000 C.ar    1  LIG1        0.0372
     12 C          -0.4460   -4.0460    0.0000 C.ar    1  LIG1        0.0031
     13 C           0.1420   -3.2250    0.0000 C.ar    1  LIG1       -0.0001
     14 C          -0.2460   -2.3130    0.0000 C.ar    1  LIG1        0.0007
     15 N          -1.0540   -0.4750    0.0000 N.am    1  LIG1       -0.1797
     16 C          -1.3580    0.4750    0.0000 C.2     1  LIG1        0.3399
     17 O          -2.3330    0.7500    0.0000 O.2     1  LIG1       -0.2492
     18 N          -0.5580    1.0670    0.0000 N.am    1  LIG1       -0.1832
     19 C          -0.5670    2.0630    0.0000 C.3     1  LIG1        0.1640
     20 C           0.3000    2.5750    0.0000 C.3     1  LIG1        0.2288
     21 O           1.1540    2.0670    0.0000 O.3     1  LIG1       -0.4736
     22 C           2.0170    2.5670    0.0000 C.ar    1  LIG1        0.1383
     23 C           2.8880    2.0630    0.0000 C.ar    1  LIG1        0.0323
     24 C           3.7540    2.5540    0.0000 C.ar    1  LIG1       -0.0228
     25 C           3.7540    3.5540    0.0000 C.ar    1  LIG1       -0.0256
     26 C           2.8880    4.0460    0.0000 C.ar    1  LIG1       -0.0015
     27 C           2.0250    3.5630    0.0000 C.ar    1  LIG1        0.0366
     28 C           4.6250    4.0460    0.0000 C.3     1  LIG1        0.0307
     29 C           4.6170    2.0540    0.0000 C.3     1  LIG1        0.0308
@<TRIPOS>BOND
     1     1     2    1
     2     1     6    1
     3     1    15    1
     4     2     3   ar
     5     2    14   ar
     6     3     4    1
     7     3    11   ar
     8     4     5    1
     9     5     6   ar
    10     5    10   ar
    11     6     7   ar
    12     7     8   ar
    13     8     9   ar
    14     9    10   ar
    15    11    12   ar
    16    12    13   ar
    17    13    14   ar
    18    15    16   am
    19    16    17    2
    20    16    18   am
    21    18    19    1
    22    19    20    1
    23    20    21    1
    24    21    22    1
    25    22    23   ar
    26    22    27   ar
    27    23    24   ar
    28    24    25   ar
    29    24    29    1
    30    25    26   ar
    31    25    28    1
    32    26    27   ar
