@<TRIPOS>MOLECULE
32100_ChemDiv_5924-0005
 22 24 0 0 0
SMALL
GASTEIGER
Energy = 0

@<TRIPOS>ATOM
      1 C          -2.1710   -1.2380    0.0000 C.2     1  LIG1        0.3412
      2 O          -1.2830   -0.7330    0.0000 O.3     1  LIG1       -0.4393
      3 C          -1.2830    0.2750    0.0000 C.3     1  LIG1        0.2506
      4 C          -0.4290    0.7630    0.0000 C.2     1  LIG1        0.2862
      5 N           0.4460    0.2750    0.0000 N.am    1  LIG1       -0.1761
      6 C           1.3040    0.7630    0.0000 C.ar    1  LIG1        0.0765
      7 C           2.1670    0.2580    0.0000 C.ar    1  LIG1        0.0535
      8 C           3.0380    0.7580    0.0000 C.ar    1  LIG1        0.1400
      9 O           3.9000    0.2580    0.0000 O.3     1  LIG1       -0.4714
     10 C           4.7580    0.7580    0.0000 C.3     1  LIG1        0.2525
     11 C           3.0380    1.7580    0.0000 C.ar    1  LIG1        0.0370
     12 C           2.1670    2.2420    0.0000 C.ar    1  LIG1        0.0044
     13 C           1.3040    1.7580    0.0000 C.ar    1  LIG1        0.0168
     14 O          -0.4170    1.7750    0.0000 O.2     1  LIG1       -0.2691
     15 C          -2.1580    0.7790    0.0000 C.3     1  LIG1        0.0799
     16 C          -3.0330    0.2750    0.0000 C.ar    1  LIG1       -0.0118
     17 C          -3.0330   -0.7330    0.0000 C.ar    1  LIG1        0.0718
     18 C          -3.9040   -1.2330    0.0000 C.ar    1  LIG1        0.0061
     19 C          -4.7630   -0.7330    0.0000 C.ar    1  LIG1        0.0002
     20 C          -4.7630    0.2750    0.0000 C.ar    1  LIG1       -0.0003
     21 C          -3.9040    0.7630    0.0000 C.ar    1  LIG1       -0.0039
     22 O          -2.1710   -2.2380    0.0000 O.2     1  LIG1       -0.2449
@<TRIPOS>BOND
     1     1     2    1
     2     1    17    1
     3     1    22    2
     4     2     3    1
     5     3     4    1
     6     3    15    1
     7     4     5   am
     8     4    14    2
     9     5     6    1
    10     6     7   ar
    11     6    13   ar
    12     7     8   ar
    13     8     9    1
    14     8    11   ar
    15     9    10    1
    16    11    12   ar
    17    12    13   ar
    18    15    16    1
    19    16    17   ar
    20    16    21   ar
    21    17    18   ar
    22    18    19   ar
    23    19    20   ar
    24    20    21   ar
