@<TRIPOS>MOLECULE
32104_ChemDiv_6149-0113
 21 23 0 0 0
SMALL
GASTEIGER
Energy = 0

@<TRIPOS>ATOM
      1 C          -1.3000   -1.2460    0.0000 C.2     1  LIG1        0.3412
      2 O          -0.4250   -0.7460    0.0000 O.3     1  LIG1       -0.4393
      3 C          -0.4250    0.2580    0.0000 C.3     1  LIG1        0.2506
      4 C           0.4460    0.7500    0.0000 C.2     1  LIG1        0.2862
      5 N           1.3080    0.2500    0.0000 N.am    1  LIG1       -0.1765
      6 C           2.1670    0.7500    0.0000 C.ar    1  LIG1        0.0695
      7 C           3.0290    0.2500    0.0000 C.ar    1  LIG1       -0.0065
      8 C           3.0250   -0.7460    0.0000 C.3     1  LIG1        0.0324
      9 C           3.8920    0.7420    0.0000 C.ar    1  LIG1       -0.0030
     10 C           3.8920    1.7380    0.0000 C.ar    1  LIG1       -0.0002
     11 C           3.0290    2.2500    0.0000 C.ar    1  LIG1        0.0013
     12 C           2.1670    1.7500    0.0000 C.ar    1  LIG1        0.0163
     13 O           0.4460    1.7500    0.0000 O.2     1  LIG1       -0.2691
     14 C          -1.2960    0.7670    0.0000 C.3     1  LIG1        0.0799
     15 C          -2.1630    0.2580    0.0000 C.ar    1  LIG1       -0.0118
     16 C          -2.1710   -0.7460    0.0000 C.ar    1  LIG1        0.0718
     17 C          -3.0330   -1.2460    0.0000 C.ar    1  LIG1        0.0061
     18 C          -3.8960   -0.7460    0.0000 C.ar    1  LIG1        0.0002
     19 C          -3.8960    0.2580    0.0000 C.ar    1  LIG1       -0.0003
     20 C          -3.0330    0.7540    0.0000 C.ar    1  LIG1       -0.0039
     21 O          -1.3000   -2.2460    0.0000 O.2     1  LIG1       -0.2449
@<TRIPOS>BOND
     1     1     2    1
     2     1    16    1
     3     1    21    2
     4     2     3    1
     5     3     4    1
     6     3    14    1
     7     4     5   am
     8     4    13    2
     9     5     6    1
    10     6     7   ar
    11     6    12   ar
    12     7     8    1
    13     7     9   ar
    14     9    10   ar
    15    10    11   ar
    16    11    12   ar
    17    14    15    1
    18    15    16   ar
    19    15    20   ar
    20    16    17   ar
    21    17    18   ar
    22    18    19   ar
    23    19    20   ar
