@<TRIPOS>MOLECULE
32103_ChemDiv_5607-0057
 30 33 0 0 0
SMALL
GASTEIGER
Energy = 0

@<TRIPOS>ATOM
      1 N          -2.1130    0.1170    0.0000 N.am    1  LIG1       -0.2761
      2 C          -3.0170   -0.3880    0.0000 C.2     1  LIG1        0.2702
      3 C          -2.9710   -1.0460    0.0000 C.3     1  LIG1        0.2896
      4 O          -3.8540   -1.5750    0.0000 O.3     1  LIG1       -0.4656
      5 C          -3.8540   -2.5670    0.0000 C.ar    1  LIG1        0.1393
      6 C          -4.7580   -3.0580    0.0000 C.ar    1  LIG1        0.0369
      7 C          -4.7290   -4.1080    0.0000 C.ar    1  LIG1        0.0031
      8 C          -3.8540   -4.6130    0.0000 C.ar    1  LIG1        0.0002
      9 C          -2.9710   -4.0920    0.0000 C.ar    1  LIG1        0.0031
     10 C          -2.9540   -3.0830    0.0000 C.ar    1  LIG1        0.0369
     11 O          -4.1630    0.2830    0.0000 O.2     1  LIG1       -0.2708
     12 C          -2.1130    1.1630    0.0000 C.3     1  LIG1        0.0994
     13 C          -1.2170    1.6920    0.0000 C.3     1  LIG1        0.0782
     14 C          -0.3330    1.1630    0.0000 C.3     1  LIG1        0.0905
     15 N           0.5630    1.6830    0.0000 N.4     1  LIG1        0.3757
     16 C           0.5630    2.6750    0.0000 C.3     1  LIG1        0.1602
     17 C           1.4250    3.1500    0.0000 C.3     1  LIG1        0.1545
     18 N           2.2380    2.6750    0.0000 N.pl3   1  LIG1       -0.2948
     19 C           3.0710    3.1500    0.0000 C.ar    1  LIG1        0.0826
     20 C           3.9330    2.6750    0.0000 C.ar    1  LIG1        0.1519
     21 O           3.9330    1.6830    0.0000 O.3     1  LIG1       -0.4702
     22 C           4.7540    1.2290    0.0000 C.3     1  LIG1        0.2525
     23 C           4.7540    3.1500    0.0000 C.ar    1  LIG1        0.0382
     24 C           4.7540    4.1290    0.0000 C.ar    1  LIG1        0.0032
     25 C           3.9330    4.6130    0.0000 C.ar    1  LIG1        0.0015
     26 C           3.0710    4.1290    0.0000 C.ar    1  LIG1        0.0176
     27 C           2.2380    1.6830    0.0000 C.3     1  LIG1        0.1545
     28 C           1.4250    1.2290    0.0000 C.3     1  LIG1        0.1602
     29 C          -0.3330    0.1170    0.0000 C.3     1  LIG1        0.0782
     30 C          -1.2170   -0.3880    0.0000 C.3     1  LIG1        0.0994
@<TRIPOS>BOND
     1     1     2   am
     2     1    12    1
     3     1    30    1
     4     2     3    1
     5     2    11    2
     6     3     4    1
     7     4     5    1
     8     5     6   ar
     9     5    10   ar
    10     6     7   ar
    11     7     8   ar
    12     8     9   ar
    13     9    10   ar
    14    12    13    1
    15    13    14    1
    16    14    15    1
    17    14    29    1
    18    15    16    1
    19    15    28    1
    20    16    17    1
    21    17    18    1
    22    18    19    1
    23    18    27    1
    24    19    20   ar
    25    19    26   ar
    26    20    21    1
    27    20    23   ar
    28    21    22    1
    29    23    24   ar
    30    24    25   ar
    31    25    26   ar
    32    27    28    1
    33    29    30    1
