@<TRIPOS>MOLECULE
32106_ChemDiv_6682-0365
 25 27 0 0 0
SMALL
GASTEIGER
Energy = 0

@<TRIPOS>ATOM
      1 C           3.4630    0.2670    0.0000 C.2     1  LIG1        0.3412
      2 O           2.6000   -0.2330    0.0000 O.3     1  LIG1       -0.4393
      3 C           1.7330    0.2750    0.0000 C.3     1  LIG1        0.2506
      4 C           0.8710   -0.2250    0.0000 C.2     1  LIG1        0.2862
      5 N           0.0000    0.2670    0.0000 N.am    1  LIG1       -0.1762
      6 C          -0.8670   -0.2420    0.0000 C.ar    1  LIG1        0.0736
      7 C          -1.7380    0.2580    0.0000 C.ar    1  LIG1        0.0179
      8 C          -2.6040   -0.2420    0.0000 C.ar    1  LIG1        0.0159
      9 C          -2.6040   -1.2420    0.0000 C.ar    1  LIG1        0.0479
     10 N          -3.4710   -1.7420    0.0000 N.pl3   1  LIG1       -0.3075
     11 C          -3.4710   -2.7500    0.0000 C.3     1  LIG1        0.0908
     12 C          -2.6040   -3.2500    0.0000 C.3     1  LIG1        0.0232
     13 C          -4.3380   -1.2420    0.0000 C.3     1  LIG1        0.0908
     14 C          -4.3380   -0.2420    0.0000 C.3     1  LIG1        0.0232
     15 C          -1.7380   -1.7420    0.0000 C.ar    1  LIG1        0.0159
     16 C          -0.8670   -1.2420    0.0000 C.ar    1  LIG1        0.0179
     17 O           0.8710   -1.2250    0.0000 O.2     1  LIG1       -0.2691
     18 C           1.7290    1.2710    0.0000 C.3     1  LIG1        0.0799
     19 C           2.6000    1.7670    0.0000 C.ar    1  LIG1       -0.0118
     20 C           3.4630    1.2670    0.0000 C.ar    1  LIG1        0.0718
     21 C           4.3250    1.7670    0.0000 C.ar    1  LIG1        0.0061
     22 C           4.3250    2.7580    0.0000 C.ar    1  LIG1        0.0002
     23 C           3.4540    3.2540    0.0000 C.ar    1  LIG1       -0.0003
     24 C           2.5960    2.7580    0.0000 C.ar    1  LIG1       -0.0039
     25 O           4.3330   -0.2380    0.0000 O.2     1  LIG1       -0.2449
@<TRIPOS>BOND
     1     1     2    1
     2     1    20    1
     3     1    25    2
     4     2     3    1
     5     3     4    1
     6     3    18    1
     7     4     5   am
     8     4    17    2
     9     5     6    1
    10     6     7   ar
    11     6    16   ar
    12     7     8   ar
    13     8     9   ar
    14     9    10    1
    15     9    15   ar
    16    10    11    1
    17    10    13    1
    18    11    12    1
    19    13    14    1
    20    15    16   ar
    21    18    19    1
    22    19    20   ar
    23    19    24   ar
    24    20    21   ar
    25    21    22   ar
    26    22    23   ar
    27    23    24   ar
