@<TRIPOS>MOLECULE
32102_ChemDiv_5924-0008
 22 24 0 0 0
SMALL
GASTEIGER
Energy = 0

@<TRIPOS>ATOM
      1 C          -2.1790   -1.2380    0.0000 C.2     1  LIG1        0.3412
      2 O          -1.2920   -0.7330    0.0000 O.3     1  LIG1       -0.4393
      3 C          -1.2920    0.2750    0.0000 C.3     1  LIG1        0.2506
      4 C          -0.4380    0.7630    0.0000 C.2     1  LIG1        0.2862
      5 N           0.4380    0.2750    0.0000 N.am    1  LIG1       -0.1762
      6 C           1.2960    0.7630    0.0000 C.ar    1  LIG1        0.0735
      7 C           2.1580    0.2580    0.0000 C.ar    1  LIG1        0.0163
      8 C           3.0290    0.7580    0.0000 C.ar    1  LIG1       -0.0029
      9 C           3.0290    1.7580    0.0000 C.ar    1  LIG1       -0.0221
     10 C           2.1580    2.2420    0.0000 C.ar    1  LIG1       -0.0029
     11 C           1.2960    1.7580    0.0000 C.ar    1  LIG1        0.0163
     12 C           3.8920    2.2420    0.0000 C.3     1  LIG1        0.0264
     13 C           4.7630    1.7460    0.0000 C.3     1  LIG1        0.0050
     14 O          -0.4250    1.7750    0.0000 O.2     1  LIG1       -0.2691
     15 C          -2.1630    0.7790    0.0000 C.3     1  LIG1        0.0799
     16 C          -3.0420    0.2750    0.0000 C.ar    1  LIG1       -0.0118
     17 C          -3.0420   -0.7330    0.0000 C.ar    1  LIG1        0.0718
     18 C          -3.9080   -1.2330    0.0000 C.ar    1  LIG1        0.0061
     19 C          -4.7670   -0.7330    0.0000 C.ar    1  LIG1        0.0002
     20 C          -4.7670    0.2750    0.0000 C.ar    1  LIG1       -0.0003
     21 C          -3.9080    0.7630    0.0000 C.ar    1  LIG1       -0.0039
     22 O          -2.1790   -2.2380    0.0000 O.2     1  LIG1       -0.2449
@<TRIPOS>BOND
     1     1     2    1
     2     1    17    1
     3     1    22    2
     4     2     3    1
     5     3     4    1
     6     3    15    1
     7     4     5   am
     8     4    14    2
     9     5     6    1
    10     6     7   ar
    11     6    11   ar
    12     7     8   ar
    13     8     9   ar
    14     9    10   ar
    15     9    12    1
    16    10    11   ar
    17    12    13    1
    18    15    16    1
    19    16    17   ar
    20    16    21   ar
    21    17    18   ar
    22    18    19   ar
    23    19    20   ar
    24    20    21   ar
