@<TRIPOS>MOLECULE
32105_ChemDiv_5607-0193
 27 31 0 0 0
SMALL
GASTEIGER
Energy = 0

@<TRIPOS>ATOM
      1 N           2.1080    1.2460    0.0000 N.4     1  LIG1        0.3733
      2 C           3.0170    1.7580    0.0000 C.3     1  LIG1        0.0867
      3 C           3.8710    1.2500    0.0000 C.3     1  LIG1        0.0512
      4 C           4.3080    2.2540    0.0000 C.3     1  LIG1        0.0059
      5 C           3.8710    3.2630    0.0000 C.3     1  LIG1        0.0059
      6 C           3.0170    2.7540    0.0000 C.3     1  LIG1        0.0567
      7 C           4.7290    2.7540    0.0000 C.3     1  LIG1        0.0004
      8 C           4.7290    1.7580    0.0000 C.3     1  LIG1        0.0057
      9 C           2.1080    0.2080    0.0000 C.3     1  LIG1        0.1443
     10 C           1.2130   -0.3170    0.0000 C.3     1  LIG1        0.1194
     11 C           0.3290    0.2080    0.0000 C.3     1  LIG1        0.0992
     12 N          -0.5500   -0.3170    0.0000 N.4     1  LIG1        0.3760
     13 C          -1.4080    0.1630    0.0000 C.3     1  LIG1        0.1602
     14 C          -2.2290   -0.3040    0.0000 C.3     1  LIG1        0.1545
     15 N          -2.2290   -1.2960    0.0000 N.pl3   1  LIG1       -0.2948
     16 C          -3.0580   -1.7670    0.0000 C.ar    1  LIG1        0.0826
     17 C          -3.9210   -1.2960    0.0000 C.ar    1  LIG1        0.1519
     18 O          -3.9210   -0.3040    0.0000 O.3     1  LIG1       -0.4702
     19 C          -4.7330    0.1630    0.0000 C.3     1  LIG1        0.2525
     20 C          -4.7330   -1.7670    0.0000 C.ar    1  LIG1        0.0382
     21 C          -4.7330   -2.7670    0.0000 C.ar    1  LIG1        0.0032
     22 C          -3.9210   -3.2580    0.0000 C.ar    1  LIG1        0.0015
     23 C          -3.0580   -2.7670    0.0000 C.ar    1  LIG1        0.0176
     24 C          -1.4080   -1.7670    0.0000 C.3     1  LIG1        0.1545
     25 C          -0.5500   -1.2830    0.0000 C.3     1  LIG1        0.1602
     26 C           0.3290    1.2460    0.0000 C.3     1  LIG1        0.1194
     27 C           1.2130    1.7580    0.0000 C.3     1  LIG1        0.1443
@<TRIPOS>BOND
     1     1     2    1
     2     1     9    1
     3     1    27    1
     4     2     3    1
     5     2     6    1
     6     3     4    1
     7     3     8    1
     8     4     5    1
     9     5     6    1
    10     5     7    1
    11     7     8    1
    12     9    10    1
    13    10    11    1
    14    11    12    1
    15    11    26    1
    16    12    13    1
    17    12    25    1
    18    13    14    1
    19    14    15    1
    20    15    16    1
    21    15    24    1
    22    16    17   ar
    23    16    23   ar
    24    17    18    1
    25    17    20   ar
    26    18    19    1
    27    20    21   ar
    28    21    22   ar
    29    22    23   ar
    30    24    25    1
    31    26    27    1
