@<TRIPOS>MOLECULE
32108_ChemDiv_6682-0366
 23 25 0 0 0
SMALL
GASTEIGER
Energy = 0

@<TRIPOS>ATOM
      1 C           3.4580    0.0170    0.0000 C.2     1  LIG1        0.3412
      2 O           2.5960   -0.4830    0.0000 O.3     1  LIG1       -0.4393
      3 C           1.7330    0.0170    0.0000 C.3     1  LIG1        0.2506
      4 C           0.8710   -0.4830    0.0000 C.2     1  LIG1        0.2862
      5 N           0.0000    0.0170    0.0000 N.am    1  LIG1       -0.1762
      6 C          -0.8630   -0.4830    0.0000 C.ar    1  LIG1        0.0736
      7 C          -1.7380    0.0170    0.0000 C.ar    1  LIG1        0.0179
      8 C          -2.6000   -0.4830    0.0000 C.ar    1  LIG1        0.0159
      9 C          -2.6000   -1.4960    0.0000 C.ar    1  LIG1        0.0480
     10 N          -3.4670   -1.9960    0.0000 N.pl3   1  LIG1       -0.3041
     11 C          -3.4670   -3.0000    0.0000 C.3     1  LIG1        0.1122
     12 C          -4.3330   -1.4960    0.0000 C.3     1  LIG1        0.1122
     13 C          -1.7380   -1.9960    0.0000 C.ar    1  LIG1        0.0159
     14 C          -0.8630   -1.4960    0.0000 C.ar    1  LIG1        0.0179
     15 O           0.8710   -1.4830    0.0000 O.2     1  LIG1       -0.2691
     16 C           1.7250    1.0210    0.0000 C.3     1  LIG1        0.0799
     17 C           2.5960    1.5130    0.0000 C.ar    1  LIG1       -0.0118
     18 C           3.4580    1.0130    0.0000 C.ar    1  LIG1        0.0718
     19 C           4.3210    1.5130    0.0000 C.ar    1  LIG1        0.0061
     20 C           4.3210    2.5130    0.0000 C.ar    1  LIG1        0.0002
     21 C           3.4500    3.0040    0.0000 C.ar    1  LIG1       -0.0003
     22 C           2.5960    2.5040    0.0000 C.ar    1  LIG1       -0.0039
     23 O           4.3290   -0.4830    0.0000 O.2     1  LIG1       -0.2449
@<TRIPOS>BOND
     1     1     2    1
     2     1    18    1
     3     1    23    2
     4     2     3    1
     5     3     4    1
     6     3    16    1
     7     4     5   am
     8     4    15    2
     9     5     6    1
    10     6     7   ar
    11     6    14   ar
    12     7     8   ar
    13     8     9   ar
    14     9    10    1
    15     9    13   ar
    16    10    11    1
    17    10    12    1
    18    13    14   ar
    19    16    17    1
    20    17    18   ar
    21    17    22   ar
    22    18    19   ar
    23    19    20   ar
    24    20    21   ar
    25    21    22   ar
