@<TRIPOS>MOLECULE
32114_ChemDiv_8015-1430
 24 26 0 0 0
SMALL
GASTEIGER
Energy = 0

@<TRIPOS>ATOM
      1 N          -0.6250    1.3790    0.0000 N.ar    1  LIG1       -0.2066
      2 C          -1.3460    0.6790    0.0000 C.ar    1  LIG1        0.1376
      3 C          -1.0830   -0.2920    0.0000 C.ar    1  LIG1        0.0783
      4 C          -0.0960   -0.5540    0.0000 C.ar    1  LIG1        0.0489
      5 N           0.6040    0.1460    0.0000 N.ar    1  LIG1       -0.2900
      6 C           0.3460    1.1210    0.0000 C.ar    1  LIG1        0.1864
      7 S           1.0460    1.8330    0.0000 S.2     1  LIG1       -0.0106
      8 C           1.5670   -0.0960    0.0000 C.ar    1  LIG1        0.0612
      9 C           1.8380   -1.0540    0.0000 C.ar    1  LIG1       -0.0057
     10 C           2.8130   -1.3000    0.0000 C.ar    1  LIG1       -0.0031
     11 C           3.5000   -0.5830    0.0000 C.ar    1  LIG1       -0.0045
     12 C           3.2250    0.3920    0.0000 C.ar    1  LIG1       -0.0204
     13 C           2.2670    0.6210    0.0000 C.ar    1  LIG1        0.0130
     14 C           3.9130    1.1210    0.0000 C.3     1  LIG1        0.0311
     15 C           1.1540   -1.7880    0.0000 C.3     1  LIG1        0.0326
     16 C           0.1920   -1.5290    0.0000 C.3     1  LIG1        0.0506
     17 C          -1.8170   -0.9960    0.0000 C.2     1  LIG1        0.1773
     18 O          -2.7630   -0.7040    0.0000 O.2     1  LIG1       -0.2912
     19 C          -1.5710   -1.9540    0.0000 C.3     1  LIG1        0.0774
     20 N          -2.3040    0.9380    0.0000 N.pl3   1  LIG1       -0.2931
     21 C          -2.5630    1.9000    0.0000 C.3     1  LIG1        0.0922
     22 C          -3.5540    1.9580    0.0000 C.3     1  LIG1        0.0232
     23 C          -3.9170    1.0630    0.0000 C.3     1  LIG1        0.0232
     24 C          -3.1540    0.4040    0.0000 C.3     1  LIG1        0.0922
@<TRIPOS>BOND
     1     1     2   ar
     2     1     6   ar
     3     2     3   ar
     4     2    20    1
     5     3     4   ar
     6     3    17    1
     7     4     5   ar
     8     4    16    1
     9     5     6   ar
    10     5     8    1
    11     6     7    2
    12     8     9   ar
    13     8    13   ar
    14     9    10   ar
    15     9    15    1
    16    10    11   ar
    17    11    12   ar
    18    12    13   ar
    19    12    14    1
    20    17    18    2
    21    17    19    1
    22    20    21    1
    23    20    24    1
    24    21    22    1
    25    22    23    1
    26    23    24    1
