@<TRIPOS>MOLECULE
32113_ChemDiv_5681-0027
 22 24 0 0 0
SMALL
GASTEIGER
Energy = 0

@<TRIPOS>ATOM
      1 C          -0.0040   -0.5040    0.0000 C.3     1  LIG1        0.0631
      2 C          -0.0040    0.5080    0.0000 C.3     1  LIG1        0.1642
      3 C           0.8630    1.0080    0.0000 C.2     1  LIG1        0.3243
      4 O           1.7420    0.5080    0.0000 O.2     1  LIG1       -0.2496
      5 O           0.8630    2.0210    0.0000 O.3     1  LIG1       -0.4441
      6 C           1.7250    2.5170    0.0000 C.3     1  LIG1        0.2556
      7 C          -0.8750    1.0080    0.0000 C.2     1  LIG1        0.1620
      8 O          -1.7460    0.5000    0.0000 O.2     1  LIG1       -0.2955
      9 C          -0.8750    2.0080    0.0000 C.3     1  LIG1        0.0729
     10 C           0.8710   -1.0000    0.0000 C.ar    1  LIG1       -0.0115
     11 C           0.8630   -1.9920    0.0000 C.ar    1  LIG1        0.0258
     12 S           0.0130   -2.4960    0.0000 S.3     1  LIG1       -0.0875
     13 C          -0.8580   -2.0080    0.0000 C.ar    1  LIG1        0.0258
     14 C          -0.8710   -1.0000    0.0000 C.ar    1  LIG1       -0.0115
     15 C          -1.7290   -0.5080    0.0000 C.ar    1  LIG1       -0.0034
     16 C          -2.5960   -1.0170    0.0000 C.ar    1  LIG1       -0.0003
     17 C          -2.5790   -2.0250    0.0000 C.ar    1  LIG1        0.0005
     18 C          -1.7250   -2.5130    0.0000 C.ar    1  LIG1        0.0062
     19 C           1.7250   -2.4960    0.0000 C.ar    1  LIG1        0.0062
     20 C           2.5920   -1.9920    0.0000 C.ar    1  LIG1        0.0005
     21 C           2.5920   -1.0000    0.0000 C.ar    1  LIG1       -0.0003
     22 C           1.7250   -0.5040    0.0000 C.ar    1  LIG1       -0.0034
@<TRIPOS>BOND
     1     1     2    1
     2     1    10    1
     3     1    14    1
     4     2     3    1
     5     2     7    1
     6     3     4    2
     7     3     5    1
     8     5     6    1
     9     7     8    2
    10     7     9    1
    11    10    11   ar
    12    10    22   ar
    13    11    12    1
    14    11    19   ar
    15    12    13    1
    16    13    14   ar
    17    13    18   ar
    18    14    15   ar
    19    15    16   ar
    20    16    17   ar
    21    17    18   ar
    22    19    20   ar
    23    20    21   ar
    24    21    22   ar
