@<TRIPOS>MOLECULE
32115_ChemDiv_5682-0019
 28 31 0 0 0
SMALL
GASTEIGER
Energy = 0

@<TRIPOS>ATOM
      1 C           0.4380    0.5130    0.0000 C.ar    1  LIG1        0.1268
      2 C          -0.4210    1.0330    0.0000 C.ar    1  LIG1        0.0010
      3 C          -1.2830    0.5380    0.0000 C.ar    1  LIG1        0.0351
      4 C          -1.2920   -0.4630    0.0000 C.ar    1  LIG1        0.1486
      5 O          -0.4330   -0.9710    0.0000 O.2     1  LIG1       -0.4202
      6 C           0.4290   -0.4750    0.0000 C.ar    1  LIG1        0.3593
      7 O           1.2880   -0.9750    0.0000 O.2     1  LIG1       -0.2431
      8 C          -2.1580   -0.9580    0.0000 C.ar    1  LIG1        0.0407
      9 C          -3.0210   -0.4540    0.0000 C.ar    1  LIG1        0.0407
     10 C          -3.0170    0.5420    0.0000 C.ar    1  LIG1        0.1486
     11 C          -2.1460    1.0330    0.0000 C.ar    1  LIG1        0.0404
     12 O          -3.8920    1.0380    0.0000 O.3     1  LIG1       -0.4241
     13 C          -3.8920    2.0460    0.0000 C.2     1  LIG1        0.3220
     14 O          -4.7500    2.5460    0.0000 O.2     1  LIG1       -0.2497
     15 C          -3.0170    2.5460    0.0000 C.3     1  LIG1        0.1216
     16 C          -0.4170    2.0290    0.0000 C.3     1  LIG1        0.0297
     17 C           0.4580    2.5210    0.0000 C.3     1  LIG1        0.0266
     18 C           1.3210    2.0040    0.0000 C.3     1  LIG1        0.0989
     19 N           1.3040    1.0040    0.0000 N.am    1  LIG1       -0.2487
     20 C           2.1670    0.4920    0.0000 C.2     1  LIG1        0.2873
     21 C           2.1500   -0.5080    0.0000 C.3     1  LIG1        0.2253
     22 N           3.0130   -1.0210    0.0000 N.4     1  LIG1        0.3844
     23 C           3.8880   -0.5380    0.0000 C.3     1  LIG1        0.1393
     24 C           4.7500   -1.0500    0.0000 C.3     1  LIG1        0.0629
     25 C           4.7330   -2.0460    0.0000 C.3     1  LIG1        0.0123
     26 C           3.8500   -2.5420    0.0000 C.3     1  LIG1        0.0629
     27 C           2.9960   -2.0250    0.0000 C.3     1  LIG1        0.1393
     28 O           3.0420    0.9790    0.0000 O.2     1  LIG1       -0.2681
@<TRIPOS>BOND
     1     1     2   ar
     2     1     6   ar
     3     1    19    1
     4     2     3   ar
     5     2    16    1
     6     3     4   ar
     7     3    11   ar
     8     4     5   ar
     9     4     8   ar
    10     5     6   ar
    11     6     7    2
    12     8     9   ar
    13     9    10   ar
    14    10    11   ar
    15    10    12    1
    16    12    13    1
    17    13    14    2
    18    13    15    1
    19    16    17    1
    20    17    18    1
    21    18    19    1
    22    19    20   am
    23    20    21    1
    24    20    28    2
    25    21    22    1
    26    22    23    1
    27    22    27    1
    28    23    24    1
    29    24    25    1
    30    25    26    1
    31    26    27    1
