@<TRIPOS>MOLECULE
32117_ChemDiv_5682-0046
 28 31 0 0 0
SMALL
GASTEIGER
Energy = 0

@<TRIPOS>ATOM
      1 C          -0.8580   -0.2290    0.0000 C.ar    1  LIG1        0.1267
      2 C          -1.7210    0.2830    0.0000 C.ar    1  LIG1        0.0010
      3 C          -2.5790   -0.2130    0.0000 C.ar    1  LIG1        0.0353
      4 C          -2.5920   -1.2130    0.0000 C.ar    1  LIG1        0.1487
      5 O          -1.7290   -1.7170    0.0000 O.2     1  LIG1       -0.4202
      6 C          -0.8670   -1.2250    0.0000 C.ar    1  LIG1        0.3593
      7 O           0.0080   -1.7290    0.0000 O.2     1  LIG1       -0.2431
      8 C          -3.4630   -1.7170    0.0000 C.ar    1  LIG1        0.0409
      9 C          -4.3330   -1.2130    0.0000 C.ar    1  LIG1        0.0452
     10 C          -4.3250   -0.2040    0.0000 C.ar    1  LIG1        0.1959
     11 C          -3.4460    0.2880    0.0000 C.ar    1  LIG1        0.0448
     12 O          -5.2040    0.2960    0.0000 O.3     1  LIG1       -0.2866
     13 C          -1.7170    1.2790    0.0000 C.3     1  LIG1        0.0297
     14 C          -0.8380    1.7670    0.0000 C.3     1  LIG1        0.0266
     15 C           0.0250    1.2540    0.0000 C.3     1  LIG1        0.0988
     16 N           0.0080    0.2580    0.0000 N.am    1  LIG1       -0.2522
     17 C           0.8670   -0.2580    0.0000 C.2     1  LIG1        0.2497
     18 C           1.7380    0.2380    0.0000 C.3     1  LIG1        0.1776
     19 N           2.6000   -0.2790    0.0000 N.pl3   1  LIG1       -0.2998
     20 C           3.4630    0.2080    0.0000 C.ar    1  LIG1        0.0482
     21 C           4.3250   -0.3040    0.0000 C.ar    1  LIG1        0.0145
     22 C           5.1880    0.1920    0.0000 C.ar    1  LIG1        0.0013
     23 C           5.2000    1.1920    0.0000 C.ar    1  LIG1        0.0001
     24 C           4.3330    1.6920    0.0000 C.ar    1  LIG1        0.0013
     25 C           3.4710    1.1960    0.0000 C.ar    1  LIG1        0.0145
     26 C           2.5790   -1.2750    0.0000 C.3     1  LIG1        0.0913
     27 C           1.7040   -1.7630    0.0000 C.3     1  LIG1        0.0232
     28 O           0.8540   -1.2580    0.0000 O.2     1  LIG1       -0.2727
@<TRIPOS>BOND
     1     1     2   ar
     2     1     6   ar
     3     1    16    1
     4     2     3   ar
     5     2    13    1
     6     3     4   ar
     7     3    11   ar
     8     4     5   ar
     9     4     8   ar
    10     5     6   ar
    11     6     7    2
    12     8     9   ar
    13     9    10   ar
    14    10    11   ar
    15    10    12    1
    16    13    14    1
    17    14    15    1
    18    15    16    1
    19    16    17   am
    20    17    18    1
    21    17    28    2
    22    18    19    1
    23    19    20    1
    24    19    26    1
    25    20    21   ar
    26    20    25   ar
    27    21    22   ar
    28    22    23   ar
    29    23    24   ar
    30    24    25   ar
    31    26    27    1
