@<TRIPOS>MOLECULE
32118_ChemDiv_8015-2533
 26 28 0 0 0
SMALL
GASTEIGER
Energy = 0

@<TRIPOS>ATOM
      1 N           0.5210    0.9630    0.0000 N.ar    1  LIG1       -0.2066
      2 C          -0.1830    0.2710    0.0000 C.ar    1  LIG1        0.1376
      3 C           0.0750   -0.7080    0.0000 C.ar    1  LIG1        0.0783
      4 C           1.0500   -0.9670    0.0000 C.ar    1  LIG1        0.0490
      5 N           1.7500   -0.2580    0.0000 N.ar    1  LIG1       -0.2897
      6 C           1.4920    0.7040    0.0000 C.ar    1  LIG1        0.1864
      7 S           2.1960    1.4210    0.0000 S.2     1  LIG1       -0.0106
      8 C           2.7000   -0.5080    0.0000 C.ar    1  LIG1        0.0655
      9 C           2.9830   -1.4630    0.0000 C.ar    1  LIG1        0.0176
     10 C           3.9500   -1.7130    0.0000 C.ar    1  LIG1        0.0015
     11 C           4.6380   -0.9880    0.0000 C.ar    1  LIG1        0.0001
     12 C           4.3540   -0.0250    0.0000 C.ar    1  LIG1        0.0015
     13 C           3.4130    0.2130    0.0000 C.ar    1  LIG1        0.0176
     14 C           1.3460   -1.9330    0.0000 C.3     1  LIG1        0.0506
     15 C          -0.6710   -1.3920    0.0000 C.2     1  LIG1        0.1773
     16 O          -1.5960   -1.1130    0.0000 O.2     1  LIG1       -0.2912
     17 C          -0.4210   -2.3630    0.0000 C.3     1  LIG1        0.0774
     18 N          -1.1540    0.5330    0.0000 N.pl3   1  LIG1       -0.2931
     19 C          -1.3960    1.5000    0.0000 C.3     1  LIG1        0.0927
     20 C          -2.3500    1.7830    0.0000 C.3     1  LIG1        0.0307
     21 C          -3.0920    1.0880    0.0000 C.3     1  LIG1        0.0833
     22 C          -4.0460    1.3670    0.0000 C.2     1  LIG1        0.2604
     23 O          -4.4080    2.3670    0.0000 O.2     1  LIG1       -0.2717
     24 N          -4.6420    0.6500    0.0000 N.am    1  LIG1       -0.0878
     25 C          -2.8460    0.1000    0.0000 C.3     1  LIG1        0.0307
     26 C          -1.8790   -0.1670    0.0000 C.3     1  LIG1        0.0927
@<TRIPOS>BOND
     1     1     2   ar
     2     1     6   ar
     3     2     3   ar
     4     2    18    1
     5     3     4   ar
     6     3    15    1
     7     4     5   ar
     8     4    14    1
     9     5     6   ar
    10     5     8    1
    11     6     7    2
    12     8     9   ar
    13     8    13   ar
    14     9    10   ar
    15    10    11   ar
    16    11    12   ar
    17    12    13   ar
    18    15    16    2
    19    15    17    1
    20    18    19    1
    21    18    26    1
    22    19    20    1
    23    20    21    1
    24    21    22    1
    25    21    25    1
    26    22    23    2
    27    22    24   am
    28    25    26    1
