@<TRIPOS>MOLECULE
32119_ChemDiv_5682-0088
 31 34 0 0 0
SMALL
GASTEIGER
Energy = 0

@<TRIPOS>ATOM
      1 C          -2.1580    0.2790    0.0000 C.ar    1  LIG1        0.1268
      2 N          -1.2790    0.7630    0.0000 N.am    1  LIG1       -0.2489
      3 C          -0.4170    0.2630    0.0000 C.2     1  LIG1        0.2808
      4 C           0.4460    0.7500    0.0000 C.3     1  LIG1        0.1650
      5 N           1.3040    0.2380    0.0000 N.4     1  LIG1        0.3823
      6 C           2.1670    0.7380    0.0000 C.3     1  LIG1        0.1610
      7 C           3.0290    0.2250    0.0000 C.3     1  LIG1        0.1594
      8 N           3.0250   -0.7750    0.0000 N.am    1  LIG1       -0.2338
      9 C           3.8790   -1.2790    0.0000 C.2     1  LIG1        0.4052
     10 O           3.8630   -2.2750    0.0000 O.2     1  LIG1       -0.2262
     11 O           4.7540   -0.7960    0.0000 O.3     1  LIG1       -0.4345
     12 C           5.6130   -1.3080    0.0000 C.3     1  LIG1        0.2102
     13 C           6.4790   -0.8210    0.0000 C.3     1  LIG1        0.0513
     14 C           2.1540   -1.2580    0.0000 C.3     1  LIG1        0.1594
     15 C           1.2920   -0.7500    0.0000 C.3     1  LIG1        0.1610
     16 C           0.4580    1.7460    0.0000 C.3     1  LIG1        0.0729
     17 O          -0.4330   -0.7330    0.0000 O.2     1  LIG1       -0.2684
     18 C          -1.2790    1.7750    0.0000 C.3     1  LIG1        0.0989
     19 C          -2.1420    2.2790    0.0000 C.3     1  LIG1        0.0266
     20 C          -3.0080    1.7750    0.0000 C.3     1  LIG1        0.0297
     21 C          -3.0210    0.7790    0.0000 C.ar    1  LIG1        0.0010
     22 C          -3.8830    0.2790    0.0000 C.ar    1  LIG1        0.0353
     23 C          -3.8830   -0.7210    0.0000 C.ar    1  LIG1        0.1487
     24 O          -3.0210   -1.2290    0.0000 O.2     1  LIG1       -0.4202
     25 C          -2.1580   -0.7290    0.0000 C.ar    1  LIG1        0.3593
     26 O          -1.2790   -1.2330    0.0000 O.2     1  LIG1       -0.2431
     27 C          -4.7500   -1.2290    0.0000 C.ar    1  LIG1        0.0409
     28 C          -5.6210   -0.7210    0.0000 C.ar    1  LIG1        0.0452
     29 C          -5.6130    0.2790    0.0000 C.ar    1  LIG1        0.1959
     30 C          -4.7460    0.7790    0.0000 C.ar    1  LIG1        0.0448
     31 O          -6.4790    0.7830    0.0000 O.3     1  LIG1       -0.2866
@<TRIPOS>BOND
     1     1     2    1
     2     1    21   ar
     3     1    25   ar
     4     2     3   am
     5     2    18    1
     6     3     4    1
     7     3    17    2
     8     4     5    1
     9     4    16    1
    10     5     6    1
    11     5    15    1
    12     6     7    1
    13     7     8    1
    14     8     9   am
    15     8    14    1
    16     9    10    2
    17     9    11    1
    18    11    12    1
    19    12    13    1
    20    14    15    1
    21    18    19    1
    22    19    20    1
    23    20    21    1
    24    21    22   ar
    25    22    23   ar
    26    22    30   ar
    27    23    24   ar
    28    23    27   ar
    29    24    25   ar
    30    25    26    2
    31    27    28   ar
    32    28    29   ar
    33    29    30   ar
    34    29    31    1
