@<TRIPOS>MOLECULE
32116_ChemDiv_8015-2337
 30 33 0 0 0
SMALL
GASTEIGER
Energy = 0

@<TRIPOS>ATOM
      1 N           1.3130    0.9630    0.0000 N.ar    1  LIG1       -0.2066
      2 C           0.6080    0.2670    0.0000 C.ar    1  LIG1        0.1377
      3 C           0.8670   -0.7080    0.0000 C.ar    1  LIG1        0.0783
      4 C           1.8420   -0.9670    0.0000 C.ar    1  LIG1        0.0490
      5 N           2.5380   -0.2580    0.0000 N.ar    1  LIG1       -0.2897
      6 C           2.2790    0.7040    0.0000 C.ar    1  LIG1        0.1864
      7 S           2.9880    1.4210    0.0000 S.2     1  LIG1       -0.0106
      8 C           3.4920   -0.5080    0.0000 C.ar    1  LIG1        0.0655
      9 C           3.7750   -1.4630    0.0000 C.ar    1  LIG1        0.0176
     10 C           4.7380   -1.7080    0.0000 C.ar    1  LIG1        0.0015
     11 C           5.4250   -0.9880    0.0000 C.ar    1  LIG1        0.0001
     12 C           5.1420   -0.0250    0.0000 C.ar    1  LIG1        0.0015
     13 C           4.2000    0.2080    0.0000 C.ar    1  LIG1        0.0176
     14 C           2.1330   -1.9330    0.0000 C.3     1  LIG1        0.0506
     15 C           0.1210   -1.3920    0.0000 C.2     1  LIG1        0.1773
     16 O          -0.8040   -1.1130    0.0000 O.2     1  LIG1       -0.2912
     17 C           0.3670   -2.3630    0.0000 C.3     1  LIG1        0.0774
     18 N          -0.3630    0.5330    0.0000 N.pl3   1  LIG1       -0.2896
     19 C          -1.0880   -0.1670    0.0000 C.3     1  LIG1        0.1137
     20 C          -2.0540    0.1000    0.0000 C.3     1  LIG1        0.1149
     21 N          -2.2960    1.0880    0.0000 N.am    1  LIG1       -0.2741
     22 C          -3.2540    1.3750    0.0000 C.2     1  LIG1        0.2529
     23 C          -3.9710    0.6920    0.0000 C.3     1  LIG1        0.1910
     24 O          -3.8380   -0.3040    0.0000 O.3     1  LIG1       -0.3471
     25 C          -4.7580   -0.7290    0.0000 C.3     1  LIG1        0.1428
     26 C          -5.4290   -0.0040    0.0000 C.3     1  LIG1        0.0351
     27 C          -4.9580    0.8710    0.0000 C.3     1  LIG1        0.0416
     28 O          -3.4790    2.3670    0.0000 O.2     1  LIG1       -0.2722
     29 C          -1.5580    1.7790    0.0000 C.3     1  LIG1        0.1149
     30 C          -0.6040    1.5000    0.0000 C.3     1  LIG1        0.1137
@<TRIPOS>BOND
     1     1     2   ar
     2     1     6   ar
     3     2     3   ar
     4     2    18    1
     5     3     4   ar
     6     3    15    1
     7     4     5   ar
     8     4    14    1
     9     5     6   ar
    10     5     8    1
    11     6     7    2
    12     8     9   ar
    13     8    13   ar
    14     9    10   ar
    15    10    11   ar
    16    11    12   ar
    17    12    13   ar
    18    15    16    2
    19    15    17    1
    20    18    19    1
    21    18    30    1
    22    19    20    1
    23    20    21    1
    24    21    22   am
    25    21    29    1
    26    22    23    1
    27    22    28    2
    28    23    24    1
    29    23    27    1
    30    24    25    1
    31    25    26    1
    32    26    27    1
    33    29    30    1
