@<TRIPOS>MOLECULE
32112_ChemDiv_D001-0008
 25 27 0 0 0
SMALL
GASTEIGER
Energy = 0

@<TRIPOS>ATOM
      1 C          -1.2920    1.8130    0.0000 C.3     1  LIG1        0.2097
      2 O          -1.2920    0.8040    0.0000 O.3     1  LIG1       -0.4434
      3 C          -2.1670    0.3040    0.0000 C.2     1  LIG1        0.3411
      4 C          -3.0330    0.8040    0.0000 C.ar    1  LIG1        0.0718
      5 C          -3.0290    1.8130    0.0000 C.ar    1  LIG1       -0.0119
      6 C          -2.1630    2.3170    0.0000 C.3     1  LIG1        0.0757
      7 C          -3.8960    2.3130    0.0000 C.ar    1  LIG1       -0.0039
      8 C          -4.7630    1.8130    0.0000 C.ar    1  LIG1       -0.0003
      9 C          -4.7630    0.8040    0.0000 C.ar    1  LIG1        0.0002
     10 C          -3.8960    0.3130    0.0000 C.ar    1  LIG1        0.0061
     11 O          -2.1670   -0.6960    0.0000 O.2     1  LIG1       -0.2449
     12 C          -0.4290    1.3130    0.0000 C.2     1  LIG1        0.2822
     13 N           0.4330    1.8130    0.0000 N.am    1  LIG1       -0.1763
     14 C           1.3000    1.3130    0.0000 C.ar    1  LIG1        0.0735
     15 C           1.3000    0.3130    0.0000 C.ar    1  LIG1        0.0163
     16 C           2.1580   -0.1880    0.0000 C.ar    1  LIG1       -0.0029
     17 C           3.0250    0.3130    0.0000 C.ar    1  LIG1       -0.0221
     18 C           3.0210    1.3130    0.0000 C.ar    1  LIG1       -0.0029
     19 C           2.1580    1.8130    0.0000 C.ar    1  LIG1        0.0163
     20 C           3.8880   -0.1880    0.0000 C.3     1  LIG1        0.0264
     21 C           3.8920   -1.1880    0.0000 C.3     1  LIG1        0.0047
     22 C           4.7580   -1.6790    0.0000 C.3     1  LIG1        0.0003
     23 C           4.7580   -2.6790    0.0000 C.3     1  LIG1        0.0000
     24 O          -0.4290    0.3130    0.0000 O.2     1  LIG1       -0.2692
     25 C          -0.7960    2.6830    0.0000 C.3     1  LIG1        0.0537
@<TRIPOS>BOND
     1     1     2    1
     2     1     6    1
     3     1    12    1
     4     1    25    1
     5     2     3    1
     6     3     4    1
     7     3    11    2
     8     4     5   ar
     9     4    10   ar
    10     5     6    1
    11     5     7   ar
    12     7     8   ar
    13     8     9   ar
    14     9    10   ar
    15    12    13   am
    16    12    24    2
    17    13    14    1
    18    14    15   ar
    19    14    19   ar
    20    15    16   ar
    21    16    17   ar
    22    17    18   ar
    23    17    20    1
    24    18    19   ar
    25    20    21    1
    26    21    22    1
    27    22    23    1
