@<TRIPOS>MOLECULE
32129_ChemDiv_5612-0043
 18 18 0 0 0
SMALL
GASTEIGER
Energy = 0

@<TRIPOS>ATOM
      1 C           2.2540   -1.1420    0.0000 C.ar    1  LIG1        0.2081
      2 S           2.3750   -2.1250    0.0000 S.2     1  LIG1       -0.0266
      3 C           3.3500   -2.3250    0.0000 C.ar    1  LIG1        0.1605
      4 N           3.8380   -1.4580    0.0000 N.ar    1  LIG1       -0.1374
      5 N           3.1630   -0.7170    0.0000 N.ar    1  LIG1       -0.1235
      6 N           1.3790   -0.6420    0.0000 N.am    1  LIG1       -0.1528
      7 C           0.5130   -1.1540    0.0000 C.2     1  LIG1        0.2473
      8 O           0.5380   -2.1580    0.0000 O.2     1  LIG1       -0.2729
      9 C          -0.3540   -0.6670    0.0000 C.3     1  LIG1        0.0876
     10 C          -1.2210   -1.1750    0.0000 C.3     1  LIG1        0.0152
     11 C          -2.1130   -0.6880    0.0000 C.3     1  LIG1        0.0370
     12 C          -2.9670   -1.2040    0.0000 C.2     1  LIG1        0.0500
     13 O          -3.8420   -0.7170    0.0000 O.co2   1  LIG1       -0.5492
     14 O          -2.9630   -2.2040    0.0000 O.co2   1  LIG1       -0.5492
     15 C          -2.1170    0.3130    0.0000 C.3     1  LIG1        0.0055
     16 C          -1.2630    0.8330    0.0000 C.3     1  LIG1        0.0004
     17 C          -1.2670    1.8210    0.0000 C.3     1  LIG1        0.0000
     18 C          -0.4130    2.3290    0.0000 C.3     1  LIG1        0.0000
@<TRIPOS>BOND
     1     1     2   ar
     2     1     5   ar
     3     1     6    1
     4     2     3   ar
     5     3     4   ar
     6     4     5   ar
     7     6     7   am
     8     7     8    2
     9     7     9    1
    10     9    10    1
    11    10    11    1
    12    11    12    1
    13    11    15    1
    14    12    13   ar
    15    12    14   ar
    16    15    16    1
    17    16    17    1
    18    17    18    1
