@<TRIPOS>MOLECULE
32125_ChemDiv_C285-0060
 34 38 0 0 0
SMALL
GASTEIGER
Energy = 0

@<TRIPOS>ATOM
      1 C          -0.8920    0.4630    0.0000 C.ar    1  LIG1        0.1268
      2 C          -1.7710    0.9540    0.0000 C.ar    1  LIG1        0.0010
      3 C          -2.6170    0.4330    0.0000 C.ar    1  LIG1        0.0351
      4 C          -2.6000   -0.5630    0.0000 C.ar    1  LIG1        0.1486
      5 O          -1.7250   -1.0380    0.0000 O.2     1  LIG1       -0.4202
      6 C          -0.8750   -0.5380    0.0000 C.ar    1  LIG1        0.3593
      7 O           0.0170   -1.0170    0.0000 O.2     1  LIG1       -0.2431
      8 C          -3.4500   -1.0670    0.0000 C.ar    1  LIG1        0.0407
      9 C          -4.3290   -0.5920    0.0000 C.ar    1  LIG1        0.0407
     10 C          -4.3290    0.4040    0.0000 C.ar    1  LIG1        0.1486
     11 C          -3.4790    0.9210    0.0000 C.ar    1  LIG1        0.0404
     12 O          -5.2210    0.9000    0.0000 O.3     1  LIG1       -0.4241
     13 C          -6.0710    0.3920    0.0000 C.2     1  LIG1        0.3220
     14 O          -6.0500   -0.6080    0.0000 O.2     1  LIG1       -0.2497
     15 C          -6.9420    0.8750    0.0000 C.3     1  LIG1        0.1216
     16 C          -1.7830    1.9580    0.0000 C.3     1  LIG1        0.0297
     17 C          -0.9170    2.4580    0.0000 C.3     1  LIG1        0.0266
     18 C          -0.0420    1.9790    0.0000 C.3     1  LIG1        0.0989
     19 N          -0.0250    0.9920    0.0000 N.am    1  LIG1       -0.2487
     20 C           0.8500    0.4790    0.0000 C.2     1  LIG1        0.2873
     21 C           1.7170    1.0000    0.0000 C.3     1  LIG1        0.2254
     22 N           2.5960    0.5080    0.0000 N.4     1  LIG1        0.3871
     23 C           3.4500    1.0210    0.0000 C.3     1  LIG1        0.1612
     24 C           4.3210    0.5380    0.0000 C.3     1  LIG1        0.1566
     25 N           4.3330   -0.4750    0.0000 N.pl3   1  LIG1       -0.2667
     26 C           5.1960   -0.9580    0.0000 C.ar    1  LIG1        0.2205
     27 N           5.2080   -1.9580    0.0000 N.ar    1  LIG1       -0.2121
     28 C           6.0750   -2.4540    0.0000 C.ar    1  LIG1        0.1034
     29 C           6.9420   -1.9460    0.0000 C.ar    1  LIG1        0.0414
     30 C           6.9210   -0.9460    0.0000 C.ar    1  LIG1        0.1034
     31 N           6.0460   -0.4540    0.0000 N.ar    1  LIG1       -0.2121
     32 C           3.4710   -0.9750    0.0000 C.3     1  LIG1        0.1566
     33 C           2.6040   -0.4920    0.0000 C.3     1  LIG1        0.1612
     34 O           0.8500   -0.5330    0.0000 O.2     1  LIG1       -0.2681
@<TRIPOS>BOND
     1     1     2   ar
     2     1     6   ar
     3     1    19    1
     4     2     3   ar
     5     2    16    1
     6     3     4   ar
     7     3    11   ar
     8     4     5   ar
     9     4     8   ar
    10     5     6   ar
    11     6     7    2
    12     8     9   ar
    13     9    10   ar
    14    10    11   ar
    15    10    12    1
    16    12    13    1
    17    13    14    2
    18    13    15    1
    19    16    17    1
    20    17    18    1
    21    18    19    1
    22    19    20   am
    23    20    21    1
    24    20    34    2
    25    21    22    1
    26    22    23    1
    27    22    33    1
    28    23    24    1
    29    24    25    1
    30    25    26    1
    31    25    32    1
    32    26    27   ar
    33    26    31   ar
    34    27    28   ar
    35    28    29   ar
    36    29    30   ar
    37    30    31   ar
    38    32    33    1
