@<TRIPOS>MOLECULE
32123_ChemDiv_C285-0058
 33 37 0 0 0
SMALL
GASTEIGER
Energy = 0

@<TRIPOS>ATOM
      1 C          -2.1790   -0.2330    0.0000 C.ar    1  LIG1        0.1268
      2 N          -1.3170    0.2830    0.0000 N.am    1  LIG1       -0.2489
      3 C          -0.4420   -0.2210    0.0000 C.2     1  LIG1        0.2808
      4 C           0.4250    0.3000    0.0000 C.3     1  LIG1        0.1648
      5 N           1.3040   -0.1830    0.0000 N.4     1  LIG1        0.3796
      6 C           1.3130   -1.1830    0.0000 C.3     1  LIG1        0.1389
      7 C           2.1790   -1.6710    0.0000 C.3     1  LIG1        0.0633
      8 C           3.0460   -1.1580    0.0000 C.3     1  LIG1        0.0162
      9 C           3.9040   -1.6460    0.0000 C.3     1  LIG1        0.0268
     10 C           4.7670   -1.1290    0.0000 C.ar    1  LIG1       -0.0222
     11 C           5.6420   -1.6250    0.0000 C.ar    1  LIG1       -0.0043
     12 C           6.4960   -1.1130    0.0000 C.ar    1  LIG1       -0.0003
     13 C           6.4790   -0.1130    0.0000 C.ar    1  LIG1       -0.0000
     14 C           5.6000    0.3750    0.0000 C.ar    1  LIG1       -0.0003
     15 C           4.7540   -0.1290    0.0000 C.ar    1  LIG1       -0.0043
     16 C           3.0250   -0.1580    0.0000 C.3     1  LIG1        0.0633
     17 C           2.1500    0.3420    0.0000 C.3     1  LIG1        0.1389
     18 C           0.4080    1.3000    0.0000 C.3     1  LIG1        0.0729
     19 O          -0.4290   -1.2290    0.0000 O.2     1  LIG1       -0.2684
     20 C          -1.3210    1.2920    0.0000 C.3     1  LIG1        0.0989
     21 C          -2.2080    1.7670    0.0000 C.3     1  LIG1        0.0266
     22 C          -3.0630    1.2630    0.0000 C.3     1  LIG1        0.0297
     23 C          -3.0500    0.2540    0.0000 C.ar    1  LIG1        0.0010
     24 C          -3.8960   -0.2670    0.0000 C.ar    1  LIG1        0.0353
     25 C          -3.8920   -1.2580    0.0000 C.ar    1  LIG1        0.1487
     26 O          -3.0170   -1.7330    0.0000 O.2     1  LIG1       -0.4202
     27 C          -2.1670   -1.2290    0.0000 C.ar    1  LIG1        0.3593
     28 O          -1.2710   -1.7040    0.0000 O.2     1  LIG1       -0.2431
     29 C          -4.7380   -1.7630    0.0000 C.ar    1  LIG1        0.0409
     30 C          -5.6170   -1.2880    0.0000 C.ar    1  LIG1        0.0452
     31 C          -5.6170   -0.2790    0.0000 C.ar    1  LIG1        0.1959
     32 C          -4.7670    0.2250    0.0000 C.ar    1  LIG1        0.0448
     33 O          -6.4960    0.2040    0.0000 O.3     1  LIG1       -0.2866
@<TRIPOS>BOND
     1     1     2    1
     2     1    23   ar
     3     1    27   ar
     4     2     3   am
     5     2    20    1
     6     3     4    1
     7     3    19    2
     8     4     5    1
     9     4    18    1
    10     5     6    1
    11     5    17    1
    12     6     7    1
    13     7     8    1
    14     8     9    1
    15     8    16    1
    16     9    10    1
    17    10    11   ar
    18    10    15   ar
    19    11    12   ar
    20    12    13   ar
    21    13    14   ar
    22    14    15   ar
    23    16    17    1
    24    20    21    1
    25    21    22    1
    26    22    23    1
    27    23    24   ar
    28    24    25   ar
    29    24    32   ar
    30    25    26   ar
    31    25    29   ar
    32    26    27   ar
    33    27    28    2
    34    29    30   ar
    35    30    31   ar
    36    31    32   ar
    37    31    33    1
