@<TRIPOS>MOLECULE
32136_ChemDiv_D001-0035
 22 24 0 0 0
SMALL
GASTEIGER
Energy = 0

@<TRIPOS>ATOM
      1 C          -0.8540    0.8170    0.0000 C.3     1  LIG1        0.2097
      2 O          -0.8540   -0.1920    0.0000 O.3     1  LIG1       -0.4434
      3 C          -1.7330   -0.6920    0.0000 C.2     1  LIG1        0.3411
      4 C          -2.5960   -0.1920    0.0000 C.ar    1  LIG1        0.0718
      5 C          -2.5920    0.8170    0.0000 C.ar    1  LIG1       -0.0119
      6 C          -1.7250    1.3250    0.0000 C.3     1  LIG1        0.0757
      7 C          -3.4580    1.3130    0.0000 C.ar    1  LIG1       -0.0039
      8 C          -4.3250    0.8170    0.0000 C.ar    1  LIG1       -0.0003
      9 C          -4.3250   -0.1830    0.0000 C.ar    1  LIG1        0.0002
     10 C          -3.4580   -0.6880    0.0000 C.ar    1  LIG1        0.0061
     11 O          -1.7330   -1.6880    0.0000 O.2     1  LIG1       -0.2449
     12 C           0.0080    0.3210    0.0000 C.2     1  LIG1        0.2822
     13 N           0.8670    0.8170    0.0000 N.am    1  LIG1       -0.1763
     14 C           1.7290    0.3210    0.0000 C.ar    1  LIG1        0.0740
     15 C           2.5920    0.8170    0.0000 C.ar    1  LIG1        0.0233
     16 C           3.4540    0.3210    0.0000 C.ar    1  LIG1        0.0359
     17 BR          4.3210    0.8290    0.0000 Br      1  LIG1       -0.0490
     18 C           3.4580   -0.6790    0.0000 C.ar    1  LIG1        0.0068
     19 C           2.5920   -1.1790    0.0000 C.ar    1  LIG1        0.0018
     20 C           1.7290   -0.6790    0.0000 C.ar    1  LIG1        0.0166
     21 O           0.0000   -0.6790    0.0000 O.2     1  LIG1       -0.2692
     22 C          -0.3630    1.6920    0.0000 C.3     1  LIG1        0.0537
@<TRIPOS>BOND
     1     1     2    1
     2     1     6    1
     3     1    12    1
     4     1    22    1
     5     2     3    1
     6     3     4    1
     7     3    11    2
     8     4     5   ar
     9     4    10   ar
    10     5     6    1
    11     5     7   ar
    12     7     8   ar
    13     8     9   ar
    14     9    10   ar
    15    12    13   am
    16    12    21    2
    17    13    14    1
    18    14    15   ar
    19    14    20   ar
    20    15    16   ar
    21    16    17    1
    22    16    18   ar
    23    18    19   ar
    24    19    20   ar
