@<TRIPOS>MOLECULE
32137_ChemDiv_8016-2781
 21 24 0 0 0
SMALL
GASTEIGER
Energy = 0

@<TRIPOS>ATOM
      1 C          -0.2420    0.9460    0.0000 C.ar    1  LIG1        0.2078
      2 S          -1.0540    0.3580    0.0000 S.2     1  LIG1       -0.0306
      3 C          -1.8790    0.9460    0.0000 C.ar    1  LIG1        0.1423
      4 N          -1.5670    1.9080    0.0000 N.ar    1  LIG1       -0.1414
      5 N          -0.5540    1.9080    0.0000 N.ar    1  LIG1       -0.1238
      6 C          -2.7540    0.4460    0.0000 C.3     1  LIG1        0.1962
      7 O          -3.6330    0.9460    0.0000 O.3     1  LIG1       -0.3441
      8 C          -4.5170    0.4460    0.0000 C.3     1  LIG1        0.1747
      9 N           0.6330    0.4460    0.0000 N.am    1  LIG1       -0.1529
     10 C           1.5170    0.9460    0.0000 C.2     1  LIG1        0.2464
     11 C           2.3880    0.4460    0.0000 C.3     1  LIG1        0.0709
     12 C           2.8960   -0.4290    0.0000 C.3     1  LIG1        0.0087
     13 C           3.8580   -0.9920    0.0000 C.3     1  LIG1        0.0005
     14 C           4.5130   -0.4130    0.0000 C.3     1  LIG1        0.0000
     15 C           4.1460    0.4460    0.0000 C.3     1  LIG1        0.0005
     16 C           3.2710    0.9460    0.0000 C.3     1  LIG1        0.0087
     17 C           4.2040   -0.2670    0.0000 C.3     1  LIG1        0.0000
     18 C           3.3290   -1.1130    0.0000 C.3     1  LIG1        0.0005
     19 C           2.3880   -0.5670    0.0000 C.3     1  LIG1        0.0087
     20 C           3.6210   -1.9540    0.0000 C.3     1  LIG1        0.0000
     21 O           1.5170    1.9580    0.0000 O.2     1  LIG1       -0.2730
@<TRIPOS>BOND
     1     1     2   ar
     2     1     5   ar
     3     1     9    1
     4     2     3   ar
     5     3     4   ar
     6     3     6    1
     7     4     5   ar
     8     6     7    1
     9     7     8    1
    10     9    10   am
    11    10    11    1
    12    10    21    2
    13    11    12    1
    14    11    16    1
    15    11    19    1
    16    12    13    1
    17    13    14    1
    18    13    20    1
    19    14    15    1
    20    15    16    1
    21    15    17    1
    22    17    18    1
    23    18    19    1
    24    18    20    1
