@<TRIPOS>MOLECULE
32138_ChemDiv_D001-0040
 25 27 0 0 0
SMALL
GASTEIGER
Energy = 0

@<TRIPOS>ATOM
      1 C          -0.8540    0.5000    0.0000 C.3     1  LIG1        0.2097
      2 O          -0.8540   -0.5040    0.0000 O.3     1  LIG1       -0.4434
      3 C          -1.7330   -1.0040    0.0000 C.2     1  LIG1        0.3411
      4 C          -2.6000   -0.5040    0.0000 C.ar    1  LIG1        0.0718
      5 C          -2.5960    0.5000    0.0000 C.ar    1  LIG1       -0.0119
      6 C          -1.7250    1.0130    0.0000 C.3     1  LIG1        0.0757
      7 C          -3.4580    1.0000    0.0000 C.ar    1  LIG1       -0.0039
      8 C          -4.3250    0.5000    0.0000 C.ar    1  LIG1       -0.0003
      9 C          -4.3250   -0.4960    0.0000 C.ar    1  LIG1        0.0002
     10 C          -3.4580   -1.0000    0.0000 C.ar    1  LIG1        0.0061
     11 O          -1.7330   -2.0000    0.0000 O.2     1  LIG1       -0.2449
     12 C           0.0080    0.0040    0.0000 C.2     1  LIG1        0.2822
     13 N           0.8670    0.5000    0.0000 N.am    1  LIG1       -0.1761
     14 C           1.7290    0.0040    0.0000 C.ar    1  LIG1        0.0797
     15 C           2.5920    0.5000    0.0000 C.ar    1  LIG1        0.0909
     16 C           2.5920    1.5080    0.0000 C.2     1  LIG1        0.3426
     17 O           1.7210    2.0000    0.0000 O.2     1  LIG1       -0.2448
     18 O           3.4500    2.0040    0.0000 O.3     1  LIG1       -0.4413
     19 C           4.3210    1.5130    0.0000 C.3     1  LIG1        0.2560
     20 C           3.4540    0.0080    0.0000 C.ar    1  LIG1        0.0078
     21 C           3.4630   -0.9960    0.0000 C.ar    1  LIG1        0.0003
     22 C           2.5920   -1.4960    0.0000 C.ar    1  LIG1        0.0013
     23 C           1.7290   -0.9960    0.0000 C.ar    1  LIG1        0.0168
     24 O           0.0000   -0.9960    0.0000 O.2     1  LIG1       -0.2692
     25 C          -0.3630    1.3790    0.0000 C.3     1  LIG1        0.0537
@<TRIPOS>BOND
     1     1     2    1
     2     1     6    1
     3     1    12    1
     4     1    25    1
     5     2     3    1
     6     3     4    1
     7     3    11    2
     8     4     5   ar
     9     4    10   ar
    10     5     6    1
    11     5     7   ar
    12     7     8   ar
    13     8     9   ar
    14     9    10   ar
    15    12    13   am
    16    12    24    2
    17    13    14    1
    18    14    15   ar
    19    14    23   ar
    20    15    16    1
    21    15    20   ar
    22    16    17    2
    23    16    18    1
    24    18    19    1
    25    20    21   ar
    26    21    22   ar
    27    22    23   ar
