@<TRIPOS>MOLECULE
32131_ChemDiv_8007-8569
 15 16 0 0 0
SMALL
GASTEIGER
Energy = 0

@<TRIPOS>ATOM
      1 C          -1.7630    0.7790    0.0000 C.ar    1  LIG1        0.2077
      2 S          -1.8880   -0.2170    0.0000 S.2     1  LIG1       -0.0330
      3 C          -2.8710   -0.4380    0.0000 C.ar    1  LIG1        0.1128
      4 N          -3.3580    0.4290    0.0000 N.ar    1  LIG1       -0.1440
      5 N          -2.7000    1.1790    0.0000 N.ar    1  LIG1       -0.1239
      6 C          -3.3210   -1.3500    0.0000 C.3     1  LIG1        0.0614
      7 N          -0.8920    1.2790    0.0000 N.am    1  LIG1       -0.1512
      8 C          -0.0040    0.7920    0.0000 C.2     1  LIG1        0.2704
      9 C           0.8580    1.3250    0.0000 C.3     1  LIG1        0.1951
     10 N           1.7380    0.8290    0.0000 N.ar    1  LIG1       -0.2991
     11 C           2.5880    1.3540    0.0000 C.ar    1  LIG1        0.1790
     12 N           3.3540    0.6830    0.0000 N.ar    1  LIG1       -0.2223
     13 C           2.9790   -0.1670    0.0000 C.ar    1  LIG1        0.1193
     14 C           1.9790   -0.1210    0.0000 C.ar    1  LIG1        0.0984
     15 O          -0.0040   -0.1920    0.0000 O.2     1  LIG1       -0.2708
@<TRIPOS>BOND
     1     1     2   ar
     2     1     5   ar
     3     1     7    1
     4     2     3   ar
     5     3     4   ar
     6     3     6    1
     7     4     5   ar
     8     7     8   am
     9     8     9    1
    10     8    15    2
    11     9    10    1
    12    10    11   ar
    13    10    14   ar
    14    11    12   ar
    15    12    13   ar
    16    13    14   ar
