@<TRIPOS>MOLECULE
32133_ChemDiv_8010-2143
 18 18 0 0 0
SMALL
GASTEIGER
Energy = 0

@<TRIPOS>ATOM
      1 C          -0.7830   -1.4040    0.0000 C.ar    1  LIG1        0.2077
      2 S          -1.5920   -0.8170    0.0000 S.2     1  LIG1       -0.0330
      3 C          -2.4080   -1.3830    0.0000 C.ar    1  LIG1        0.1124
      4 N          -2.1040   -2.3380    0.0000 N.ar    1  LIG1       -0.1440
      5 N          -1.0920   -2.3380    0.0000 N.ar    1  LIG1       -0.1239
      6 C          -3.3540   -1.0670    0.0000 C.3     1  LIG1        0.0545
      7 C          -3.5580   -0.1130    0.0000 C.3     1  LIG1        0.0069
      8 C          -2.8040    0.5580    0.0000 C.3     1  LIG1        0.0004
      9 C          -3.0170    1.5420    0.0000 C.3     1  LIG1        0.0000
     10 C          -2.2880    2.2250    0.0000 C.3     1  LIG1        0.0000
     11 C          -2.4830    3.2080    0.0000 C.3     1  LIG1        0.0000
     12 N           0.1880   -1.1130    0.0000 N.am    1  LIG1       -0.1529
     13 C           0.9210   -1.8170    0.0000 C.2     1  LIG1        0.2473
     14 O           0.6710   -2.7790    0.0000 O.2     1  LIG1       -0.2729
     15 C           1.8750   -1.5380    0.0000 C.3     1  LIG1        0.0872
     16 C           2.5960   -2.2420    0.0000 C.3     1  LIG1        0.0091
     17 C           2.3380   -3.2040    0.0000 C.3     1  LIG1        0.0005
     18 C           3.5540   -1.9710    0.0000 C.3     1  LIG1        0.0005
@<TRIPOS>BOND
     1     1     2   ar
     2     1     5   ar
     3     1    12    1
     4     2     3   ar
     5     3     4   ar
     6     3     6    1
     7     4     5   ar
     8     6     7    1
     9     7     8    1
    10     8     9    1
    11     9    10    1
    12    10    11    1
    13    12    13   am
    14    13    14    2
    15    13    15    1
    16    15    16    1
    17    16    17    1
    18    16    18    1
