@<TRIPOS>MOLECULE
32130_ChemDiv_D001-0014
 23 25 0 0 0
SMALL
GASTEIGER
Energy = 0

@<TRIPOS>ATOM
      1 C          -0.4250    0.5080    0.0000 C.3     1  LIG1        0.2097
      2 O          -0.4250   -0.5000    0.0000 O.3     1  LIG1       -0.4434
      3 C          -1.3040   -0.9960    0.0000 C.2     1  LIG1        0.3411
      4 C          -2.1710   -0.5000    0.0000 C.ar    1  LIG1        0.0718
      5 C          -2.1630    0.5080    0.0000 C.ar    1  LIG1       -0.0119
      6 C          -1.2960    1.0170    0.0000 C.3     1  LIG1        0.0757
      7 C          -3.0330    1.0040    0.0000 C.ar    1  LIG1       -0.0039
      8 C          -3.8960    0.5080    0.0000 C.ar    1  LIG1       -0.0003
      9 C          -3.8960   -0.4920    0.0000 C.ar    1  LIG1        0.0002
     10 C          -3.0330   -0.9960    0.0000 C.ar    1  LIG1        0.0061
     11 O          -1.3040   -1.9960    0.0000 O.2     1  LIG1       -0.2449
     12 C           0.4380    0.0080    0.0000 C.2     1  LIG1        0.2823
     13 N           1.2960    0.5080    0.0000 N.am    1  LIG1       -0.1732
     14 C           2.1580    0.0080    0.0000 C.ar    1  LIG1        0.1073
     15 C           3.0210    0.5080    0.0000 C.ar    1  LIG1        0.1539
     16 O           3.0210    1.5040    0.0000 O.3     1  LIG1       -0.4701
     17 C           2.1540    2.0000    0.0000 C.3     1  LIG1        0.2525
     18 C           3.8830    0.0130    0.0000 C.ar    1  LIG1        0.0383
     19 C           3.8920   -0.9880    0.0000 C.ar    1  LIG1        0.0032
     20 C           3.0210   -1.4880    0.0000 C.ar    1  LIG1        0.0015
     21 C           2.1580   -0.9880    0.0000 C.ar    1  LIG1        0.0197
     22 O           0.4290   -0.9880    0.0000 O.2     1  LIG1       -0.2692
     23 C           0.0670    1.3790    0.0000 C.3     1  LIG1        0.0537
@<TRIPOS>BOND
     1     1     2    1
     2     1     6    1
     3     1    12    1
     4     1    23    1
     5     2     3    1
     6     3     4    1
     7     3    11    2
     8     4     5   ar
     9     4    10   ar
    10     5     6    1
    11     5     7   ar
    12     7     8   ar
    13     8     9   ar
    14     9    10   ar
    15    12    13   am
    16    12    22    2
    17    13    14    1
    18    14    15   ar
    19    14    21   ar
    20    15    16    1
    21    15    18   ar
    22    16    17    1
    23    18    19   ar
    24    19    20   ar
    25    20    21   ar
