@<TRIPOS>MOLECULE
32143_ChemDiv_E002-0398
 25 26 0 0 0
SMALL
GASTEIGER
Energy = 0

@<TRIPOS>ATOM
      1 C          -1.8170    0.8750    0.0000 C.ar    1  LIG1        0.1868
      2 S          -1.4040   -0.0420    0.0000 S.2     1  LIG1       -0.0137
      3 C          -0.4080    0.0670    0.0000 C.ar    1  LIG1        0.2105
      4 N          -0.2000    1.0540    0.0000 N.ar    1  LIG1       -0.1222
      5 N          -1.0750    1.5380    0.0000 N.ar    1  LIG1       -0.1241
      6 N           0.2670   -0.6750    0.0000 N.am    1  LIG1       -0.1340
      7 C           1.2630   -0.6750    0.0000 C.2     1  LIG1        0.3496
      8 N           1.7670   -1.5380    0.0000 N.am    1  LIG1       -0.1584
      9 C           2.7710   -1.5330    0.0000 C.ar    1  LIG1        0.1023
     10 C           3.2580   -2.4000    0.0000 C.ar    1  LIG1        0.1554
     11 F           2.7630   -3.2580    0.0000 F       1  LIG1       -0.2028
     12 C           4.2670   -2.4000    0.0000 C.ar    1  LIG1        0.0310
     13 C           4.7670   -1.5250    0.0000 C.ar    1  LIG1        0.0024
     14 C           4.2540   -0.6580    0.0000 C.ar    1  LIG1        0.0015
     15 C           3.2580   -0.6630    0.0000 C.ar    1  LIG1        0.0189
     16 O           1.7630    0.1960    0.0000 O.2     1  LIG1       -0.2484
     17 N          -2.7960    1.0710    0.0000 N.pl3   1  LIG1       -0.2868
     18 C          -3.0630    2.0380    0.0000 C.3     1  LIG1        0.0926
     19 C          -4.0290    2.3000    0.0000 C.3     1  LIG1        0.0198
     20 C          -4.2830    3.2630    0.0000 C.3     1  LIG1        0.0018
     21 C          -4.7380    1.6000    0.0000 C.3     1  LIG1        0.0018
     22 C          -3.0630    0.1080    0.0000 C.3     1  LIG1        0.0926
     23 C          -3.9830   -0.2710    0.0000 C.3     1  LIG1        0.0198
     24 C          -4.7710    0.3330    0.0000 C.3     1  LIG1        0.0018
     25 C          -4.1040   -1.2630    0.0000 C.3     1  LIG1        0.0018
@<TRIPOS>BOND
     1     1     2   ar
     2     1     5   ar
     3     1    17    1
     4     2     3   ar
     5     3     4   ar
     6     3     6    1
     7     4     5   ar
     8     6     7   am
     9     7     8   am
    10     7    16    2
    11     8     9    1
    12     9    10   ar
    13     9    15   ar
    14    10    11    1
    15    10    12   ar
    16    12    13   ar
    17    13    14   ar
    18    14    15   ar
    19    17    18    1
    20    17    22    1
    21    18    19    1
    22    19    20    1
    23    19    21    1
    24    22    23    1
    25    23    24    1
    26    23    25    1
