@<TRIPOS>MOLECULE
32148_ChemDiv_5750-1502
 20 22 0 0 0
SMALL
GASTEIGER
Energy = 0

@<TRIPOS>ATOM
      1 N          -1.0000   -0.1920    0.0000 N.am    1  LIG1       -0.2206
      2 C          -0.3080   -0.9460    0.0000 C.2     1  LIG1        0.2317
      3 C          -0.7250   -1.7210    0.0000 C.3     1  LIG1        0.0857
      4 C          -1.6920   -1.5380    0.0000 C.3     1  LIG1        0.0857
      5 C          -1.8500   -0.7170    0.0000 C.2     1  LIG1        0.2317
      6 O          -2.8210   -0.1540    0.0000 O.2     1  LIG1       -0.2745
      7 C          -2.2920   -2.4290    0.0000 C.3     1  LIG1        0.0096
      8 C          -2.0130   -3.3170    0.0000 C.3     1  LIG1        0.0005
      9 C          -0.9420   -3.4830    0.0000 C.3     1  LIG1        0.0005
     10 C          -0.3210   -2.7630    0.0000 C.3     1  LIG1        0.0096
     11 O           0.6880   -0.6880    0.0000 O.2     1  LIG1       -0.2745
     12 C          -0.8380    0.7500    0.0000 C.3     1  LIG1        0.1892
     13 C           0.0920    1.1420    0.0000 C.2     1  LIG1        0.2821
     14 N           0.2420    2.1290    0.0000 N.am    1  LIG1       -0.0921
     15 N           1.1960    2.4790    0.0000 N.ar    1  LIG1       -0.1925
     16 C           1.4170    3.4130    0.0000 C.ar    1  LIG1        0.2224
     17 N           2.4420    3.4880    0.0000 N.ar    1  LIG1       -0.1237
     18 N           2.8170    2.5330    0.0000 N.ar    1  LIG1       -0.1237
     19 C           2.0420    1.9460    0.0000 C.ar    1  LIG1        0.2224
     20 O           0.8210    0.4420    0.0000 O.2     1  LIG1       -0.2696
@<TRIPOS>BOND
     1     1     2   am
     2     1     5   am
     3     1    12    1
     4     2     3    1
     5     2    11    2
     6     3     4    1
     7     3    10    1
     8     4     5    1
     9     4     7    1
    10     5     6    2
    11     7     8    1
    12     8     9    1
    13     9    10    1
    14    12    13    1
    15    13    14   am
    16    13    20    2
    17    14    15    1
    18    15    16   ar
    19    15    19   ar
    20    16    17   ar
    21    17    18   ar
    22    18    19   ar
