@<TRIPOS>MOLECULE
32142_ChemDiv_5928-0016
 24 27 0 0 0
SMALL
GASTEIGER
Energy = 0

@<TRIPOS>ATOM
      1 N          -0.6080    0.2380    0.0000 N.am    1  LIG1       -0.2096
      2 C          -0.6920    0.8630    0.0000 C.2     1  LIG1        0.2330
      3 C          -1.2790    0.9580    0.0000 C.3     1  LIG1        0.0901
      4 C          -1.5830    0.4330    0.0000 C.3     1  LIG1        0.0901
      5 C          -1.1790   -0.0210    0.0000 C.2     1  LIG1        0.2330
      6 O          -1.2790   -0.6080    0.0000 O.2     1  LIG1       -0.2744
      7 C          -2.9250    1.1210    0.0000 C.3     1  LIG1        0.0311
      8 C          -4.5460    0.4830    0.0000 C.2     1  LIG1       -0.0305
      9 C          -4.1330    1.1210    0.0000 C.2     1  LIG1       -0.0305
     10 C          -2.5830    1.7580    0.0000 C.3     1  LIG1        0.0311
     11 C          -2.9250    3.0460    0.0000 C.3     1  LIG1        0.0096
     12 O          -0.2170    1.1920    0.0000 O.2     1  LIG1       -0.2744
     13 C           0.0960   -0.1170    0.0000 C.3     1  LIG1        0.2192
     14 N           0.8670    0.3040    0.0000 N.am    1  LIG1       -0.1640
     15 C           1.6630   -0.0540    0.0000 C.2     1  LIG1        0.3452
     16 N           1.7790   -1.0380    0.0000 N.am    1  LIG1       -0.1577
     17 C           2.6920   -1.4290    0.0000 C.ar    1  LIG1        0.1138
     18 C           2.8250   -2.4210    0.0000 C.ar    1  LIG1        0.2109
     19 O           2.0540   -3.0420    0.0000 O.3     1  LIG1       -0.2852
     20 C           3.7420   -2.8000    0.0000 C.ar    1  LIG1        0.0434
     21 C           4.5420   -2.1880    0.0000 C.ar    1  LIG1        0.0034
     22 C           4.3920   -1.2170    0.0000 C.ar    1  LIG1        0.0015
     23 C           3.4750   -0.8420    0.0000 C.ar    1  LIG1        0.0199
     24 O           2.3630    0.3710    0.0000 O.2     1  LIG1       -0.2488
@<TRIPOS>BOND
     1     1     2   am
     2     1     5   am
     3     1    13    1
     4     2     3    1
     5     2    12    2
     6     3     4    1
     7     3    10    1
     8     4     5    1
     9     4     7    1
    10     5     6    2
    11     7     8    1
    12     7    11    1
    13     8     9    2
    14     9    10    1
    15    10    11    1
    16    13    14    1
    17    14    15   am
    18    15    16   am
    19    15    24    2
    20    16    17    1
    21    17    18   ar
    22    17    23   ar
    23    18    19    1
    24    18    20   ar
    25    20    21   ar
    26    21    22   ar
    27    22    23   ar
