@<TRIPOS>MOLECULE
32144_ChemDiv_5928-0024
 22 25 0 0 0
SMALL
GASTEIGER
Energy = 0

@<TRIPOS>ATOM
      1 N          -0.4170    1.1250    0.0000 N.am    1  LIG1       -0.2096
      2 C          -0.5880    2.0880    0.0000 C.2     1  LIG1        0.2330
      3 C          -1.5580    2.1710    0.0000 C.3     1  LIG1        0.0901
      4 C          -1.9670    1.2960    0.0000 C.3     1  LIG1        0.0901
      5 C          -1.2580    0.6500    0.0000 C.2     1  LIG1        0.2330
      6 O          -1.3380   -0.3040    0.0000 O.2     1  LIG1       -0.2744
      7 C          -2.8750    1.7420    0.0000 C.3     1  LIG1        0.0311
      8 C          -3.7080    1.2960    0.0000 C.2     1  LIG1       -0.0305
      9 C          -3.2790    2.1500    0.0000 C.2     1  LIG1       -0.0305
     10 C          -2.4460    2.5790    0.0000 C.3     1  LIG1        0.0311
     11 C          -2.8750    3.4080    0.0000 C.3     1  LIG1        0.0096
     12 O           0.0380    2.7830    0.0000 O.2     1  LIG1       -0.2744
     13 C           0.4170    0.6710    0.0000 C.3     1  LIG1        0.2192
     14 N           0.4170   -0.2830    0.0000 N.am    1  LIG1       -0.1640
     15 C           1.2630   -0.7750    0.0000 C.2     1  LIG1        0.3468
     16 N           1.2630   -1.7380    0.0000 N.am    1  LIG1       -0.1359
     17 C           2.1040   -2.2290    0.0000 C.ar    1  LIG1        0.1873
     18 N           2.9920   -1.8000    0.0000 N.ar    1  LIG1       -0.2209
     19 C           3.7040   -2.5540    0.0000 C.ar    1  LIG1        0.1079
     20 C           3.2130   -3.4040    0.0000 C.ar    1  LIG1        0.0588
     21 S           2.2080   -3.2330    0.0000 S.2     1  LIG1       -0.0491
     22 O           2.1040   -0.2830    0.0000 O.2     1  LIG1       -0.2487
@<TRIPOS>BOND
     1     1     2   am
     2     1     5   am
     3     1    13    1
     4     2     3    1
     5     2    12    2
     6     3     4    1
     7     3    10    1
     8     4     5    1
     9     4     7    1
    10     5     6    2
    11     7     8    1
    12     7    11    1
    13     8     9    2
    14     9    10    1
    15    10    11    1
    16    13    14    1
    17    14    15   am
    18    15    16   am
    19    15    22    2
    20    16    17    1
    21    17    18   ar
    22    17    21   ar
    23    18    19   ar
    24    19    20   ar
    25    20    21   ar
