@<TRIPOS>MOLECULE
32151_ChemDiv_5683-0436
 25 28 0 0 0
SMALL
GASTEIGER
Energy = 0

@<TRIPOS>ATOM
      1 C          -2.1710    0.2540    0.0000 C.ar    1  LIG1        0.1482
      2 C          -2.1710    1.2540    0.0000 C.ar    1  LIG1        0.0735
      3 C          -1.2920    1.7710    0.0000 C.ar    1  LIG1        0.2016
      4 C          -0.4330    1.2540    0.0000 C.ar    1  LIG1        0.0796
      5 C          -0.4330    0.2540    0.0000 C.ar    1  LIG1        0.1485
      6 O          -1.3040   -0.2460    0.0000 O.2     1  LIG1       -0.4533
      7 C           0.4380   -0.2460    0.0000 C.2     1  LIG1        0.0376
      8 C           1.3000    0.2540    0.0000 C.2     1  LIG1        0.0031
      9 C           2.1750   -0.2630    0.0000 C.ar    1  LIG1        0.0003
     10 C           2.1670   -1.2540    0.0000 C.ar    1  LIG1        0.0031
     11 C           3.0250   -1.7460    0.0000 C.ar    1  LIG1        0.0369
     12 C           3.8920   -1.2540    0.0000 C.ar    1  LIG1        0.1387
     13 C           3.8920   -0.2460    0.0000 C.ar    1  LIG1        0.0369
     14 C           3.0250    0.2540    0.0000 C.ar    1  LIG1        0.0031
     15 O           4.7540   -1.7630    0.0000 O.3     1  LIG1       -0.4714
     16 C           4.7540   -2.7540    0.0000 C.3     1  LIG1        0.2525
     17 O          -1.2920    2.7580    0.0000 O.2     1  LIG1       -0.2864
     18 C          -3.0210    1.7540    0.0000 C.ar    1  LIG1        0.0062
     19 C          -3.8880    1.2540    0.0000 C.ar    1  LIG1        0.0003
     20 C          -3.8960    0.2540    0.0000 C.ar    1  LIG1        0.0029
     21 C          -3.0210   -0.2460    0.0000 C.ar    1  LIG1        0.0347
     22 C          -3.0210   -1.2420    0.0000 C.ar    1  LIG1        0.0030
     23 C          -3.8880   -1.7460    0.0000 C.ar    1  LIG1        0.0001
     24 C          -4.7580   -1.2540    0.0000 C.ar    1  LIG1        0.0000
     25 C          -4.7580   -0.2460    0.0000 C.ar    1  LIG1        0.0001
@<TRIPOS>BOND
     1     1     2   ar
     2     1     6   ar
     3     1    21   ar
     4     2     3   ar
     5     2    18   ar
     6     3     4   ar
     7     3    17    2
     8     4     5   ar
     9     5     6   ar
    10     5     7    1
    11     7     8    2
    12     8     9    1
    13     9    10   ar
    14     9    14   ar
    15    10    11   ar
    16    11    12   ar
    17    12    13   ar
    18    12    15    1
    19    13    14   ar
    20    15    16    1
    21    18    19   ar
    22    19    20   ar
    23    20    21   ar
    24    20    25   ar
    25    21    22   ar
    26    22    23   ar
    27    23    24   ar
    28    24    25   ar
