@<TRIPOS>MOLECULE
32158_ChemDiv_5763-0140
 21 24 0 0 0
SMALL
GASTEIGER
Energy = 0

@<TRIPOS>ATOM
      1 C           0.5790    0.1750    0.0000 C.ar    1  LIG1        0.0300
      2 C           0.2920    1.1250    0.0000 C.ar    1  LIG1        0.0819
      3 N           0.9710    1.8670    0.0000 N.ar    1  LIG1       -0.2208
      4 C           1.9540    1.6290    0.0000 C.ar    1  LIG1        0.2016
      5 N           2.2420    0.6710    0.0000 N.ar    1  LIG1       -0.2026
      6 C           1.5500   -0.0630    0.0000 C.ar    1  LIG1        0.1692
      7 N           1.8080   -1.0210    0.0000 N.pl3   1  LIG1       -0.1074
      8 S           2.6330    2.3670    0.0000 S.2     1  LIG1       -0.0092
      9 C          -0.6880    1.3580    0.0000 C.ar    1  LIG1        0.0136
     10 C          -1.3750    0.6250    0.0000 C.ar    1  LIG1       -0.0204
     11 C          -1.0790   -0.3250    0.0000 C.3     1  LIG1        0.0306
     12 C          -0.1130   -0.5630    0.0000 C.3     1  LIG1        0.0271
     13 C           0.8330   -0.9000    0.0000 C.3     1  LIG1        0.0045
     14 C           0.9920   -1.8830    0.0000 C.3     1  LIG1        0.0003
     15 C           0.2290   -2.5290    0.0000 C.3     1  LIG1        0.0000
     16 C          -0.7040   -2.1790    0.0000 C.3     1  LIG1        0.0003
     17 C          -0.8750   -1.2040    0.0000 C.3     1  LIG1        0.0045
     18 C          -2.3420    0.8460    0.0000 C.ar    1  LIG1       -0.0042
     19 C          -2.6380    1.8080    0.0000 C.ar    1  LIG1       -0.0003
     20 C          -1.9580    2.5330    0.0000 C.ar    1  LIG1        0.0000
     21 C          -0.9920    2.3210    0.0000 C.ar    1  LIG1        0.0012
@<TRIPOS>BOND
     1     1     2   ar
     2     1     6   ar
     3     1    12    1
     4     2     3   ar
     5     2     9    1
     6     3     4   ar
     7     4     5   ar
     8     4     8    2
     9     5     6   ar
    10     6     7    1
    11     9    10   ar
    12     9    21   ar
    13    10    11    1
    14    10    18   ar
    15    11    12    1
    16    12    13    1
    17    12    17    1
    18    13    14    1
    19    14    15    1
    20    15    16    1
    21    16    17    1
    22    18    19   ar
    23    19    20   ar
    24    20    21   ar
