@<TRIPOS>MOLECULE
32150_ChemDiv_5750-2766
 29 32 0 0 0
SMALL
GASTEIGER
Energy = 0

@<TRIPOS>ATOM
      1 N           2.1330   -0.6750    0.0000 N.am    1  LIG1       -0.2207
      2 C           3.1630   -0.6750    0.0000 C.2     1  LIG1        0.2317
      3 C           3.4790   -1.5710    0.0000 C.3     1  LIG1        0.0857
      4 C           2.6500   -2.1380    0.0000 C.3     1  LIG1        0.0857
      5 C           1.8210   -1.5710    0.0000 C.2     1  LIG1        0.2317
      6 O           0.8170   -1.7670    0.0000 O.2     1  LIG1       -0.2745
      7 C           2.7710   -3.1500    0.0000 C.3     1  LIG1        0.0096
      8 C           3.6630   -3.6000    0.0000 C.3     1  LIG1        0.0005
      9 C           4.4920   -2.9670    0.0000 C.3     1  LIG1        0.0005
     10 C           4.3460   -2.0170    0.0000 C.3     1  LIG1        0.0096
     11 O           3.7170    0.2750    0.0000 O.2     1  LIG1       -0.2745
     12 C           1.5040    0.1960    0.0000 C.3     1  LIG1        0.1862
     13 C           1.9670    1.0790    0.0000 C.2     1  LIG1        0.2515
     14 N           1.3330    1.9040    0.0000 N.am    1  LIG1       -0.2359
     15 C           0.3830    1.7710    0.0000 C.ar    1  LIG1        0.1914
     16 S          -0.1920    0.9580    0.0000 S.2     1  LIG1       -0.0302
     17 C          -1.1380    1.2750    0.0000 C.ar    1  LIG1        0.1349
     18 N          -1.1380    2.2210    0.0000 N.ar    1  LIG1       -0.1396
     19 N          -0.2500    2.5330    0.0000 N.ar    1  LIG1       -0.1251
     20 C          -1.9670    0.7580    0.0000 C.ar    1  LIG1        0.0257
     21 C          -1.9670   -0.2380    0.0000 C.ar    1  LIG1        0.0029
     22 C          -2.8380   -0.7540    0.0000 C.ar    1  LIG1        0.0115
     23 C          -3.6670   -0.2380    0.0000 C.ar    1  LIG1        0.0577
     24 C          -3.6670    0.8250    0.0000 C.ar    1  LIG1        0.0115
     25 C          -2.8380    1.2750    0.0000 C.ar    1  LIG1        0.0029
     26 CL         -4.4960   -0.8750    0.0000 Cl      1  LIG1       -0.0822
     27 C           1.7670    2.8000    0.0000 C.3     1  LIG1        0.1003
     28 C           1.1380    3.6040    0.0000 C.3     1  LIG1        0.0237
     29 O           2.9130    1.2250    0.0000 O.2     1  LIG1       -0.2726
@<TRIPOS>BOND
     1     1     2   am
     2     1     5   am
     3     1    12    1
     4     2     3    1
     5     2    11    2
     6     3     4    1
     7     3    10    1
     8     4     5    1
     9     4     7    1
    10     5     6    2
    11     7     8    1
    12     8     9    1
    13     9    10    1
    14    12    13    1
    15    13    14   am
    16    13    29    2
    17    14    15    1
    18    14    27    1
    19    15    16   ar
    20    15    19   ar
    21    16    17   ar
    22    17    18   ar
    23    17    20    1
    24    18    19   ar
    25    20    21   ar
    26    20    25   ar
    27    21    22   ar
    28    22    23   ar
    29    23    24   ar
    30    23    26    1
    31    24    25   ar
    32    27    28    1
