@<TRIPOS>MOLECULE
32156_ChemDiv_5750-3480
 24 28 0 0 0
SMALL
GASTEIGER
Energy = 0

@<TRIPOS>ATOM
      1 C           0.0710   -0.1790    0.0000 C.ar    1  LIG1        0.0744
      2 C          -0.5210   -1.0380    0.0000 C.ar    1  LIG1        0.0890
      3 N          -0.0920   -1.9540    0.0000 N.ar    1  LIG1       -0.2098
      4 C           0.9380   -2.0380    0.0000 C.ar    1  LIG1        0.2546
      5 N           1.5420   -1.1790    0.0000 N.ar    1  LIG1       -0.1948
      6 C           1.0960   -0.2670    0.0000 C.ar    1  LIG1        0.0904
      7 C           1.6750    0.5630    0.0000 C.ar    1  LIG1        0.0180
      8 C           1.2290    1.4920    0.0000 C.ar    1  LIG1        0.0020
      9 C           1.8040    2.3460    0.0000 C.ar    1  LIG1        0.0067
     10 C           2.8330    2.2670    0.0000 C.ar    1  LIG1        0.0346
     11 C           3.2960    1.3380    0.0000 C.ar    1  LIG1        0.0067
     12 C           2.7000    0.4830    0.0000 C.ar    1  LIG1        0.0020
     13 BR          3.2630    2.8420    0.0000 Br      1  LIG1       -0.0490
     14 N           2.4880   -1.4710    0.0000 N.ar    1  LIG1       -0.1397
     15 C           2.5420   -2.4880    0.0000 C.ar    1  LIG1        0.2226
     16 N           1.5630   -2.8380    0.0000 N.ar    1  LIG1       -0.1862
     17 C          -1.5000   -0.7380    0.0000 C.ar    1  LIG1        0.0210
     18 C          -1.5000    0.3000    0.0000 C.ar    1  LIG1        0.0405
     19 C          -0.5420    0.6080    0.0000 C.2     1  LIG1        0.1985
     20 O          -0.3670    1.1420    0.0000 O.2     1  LIG1       -0.2865
     21 C          -2.4000    0.8170    0.0000 C.ar    1  LIG1        0.0032
     22 C          -3.3000    0.3000    0.0000 C.ar    1  LIG1        0.0001
     23 C          -3.3000   -0.7380    0.0000 C.ar    1  LIG1        0.0001
     24 C          -2.4000   -1.2630    0.0000 C.ar    1  LIG1        0.0016
@<TRIPOS>BOND
     1     1     2   ar
     2     1     6   ar
     3     1    19    1
     4     2     3   ar
     5     2    17    1
     6     3     4   ar
     7     4     5   ar
     8     4    16   ar
     9     5     6   ar
    10     5    14   ar
    11     6     7    1
    12     7     8   ar
    13     7    12   ar
    14     8     9   ar
    15     9    10   ar
    16    10    11   ar
    17    10    13    1
    18    11    12   ar
    19    14    15   ar
    20    15    16   ar
    21    17    18   ar
    22    17    24   ar
    23    18    19    1
    24    18    21   ar
    25    19    20    2
    26    21    22   ar
    27    22    23   ar
    28    23    24   ar
