@<TRIPOS>MOLECULE
32152_ChemDiv_5750-3069
 25 27 0 0 0
SMALL
GASTEIGER
Energy = 0

@<TRIPOS>ATOM
      1 C          -0.0080    0.0130    0.0000 C.2     1  LIG1        0.1810
      2 C          -0.0080    1.0080    0.0000 C.2     1  LIG1        0.0761
      3 C          -0.8750    1.5040    0.0000 C.2     1  LIG1        0.1987
      4 C          -1.7330    1.0080    0.0000 C.ar    1  LIG1        0.0422
      5 C          -1.7330    0.0130    0.0000 C.ar    1  LIG1        0.0451
      6 C          -0.8750   -0.4880    0.0000 C.2     1  LIG1        0.2294
      7 O          -0.8750   -1.4920    0.0000 O.2     1  LIG1       -0.2833
      8 C          -2.6080   -0.4880    0.0000 C.ar    1  LIG1        0.0034
      9 C          -3.4670    0.0130    0.0000 C.ar    1  LIG1        0.0001
     10 C          -3.4670    1.0080    0.0000 C.ar    1  LIG1        0.0001
     11 C          -2.6080    1.5040    0.0000 C.ar    1  LIG1        0.0033
     12 O          -0.8750    2.5130    0.0000 O.2     1  LIG1       -0.2865
     13 C           0.8580    1.5040    0.0000 C.ar    1  LIG1        0.0061
     14 C           1.7210    1.0080    0.0000 C.ar    1  LIG1        0.0002
     15 C           2.5920    1.5040    0.0000 C.ar    1  LIG1        0.0000
     16 C           2.5920    2.5130    0.0000 C.ar    1  LIG1        0.0000
     17 C           1.7210    3.0130    0.0000 C.ar    1  LIG1        0.0000
     18 C           0.8580    2.5130    0.0000 C.ar    1  LIG1        0.0002
     19 O           0.8670   -0.5040    0.0000 O.2     1  LIG1       -0.4604
     20 C           1.7380   -0.0040    0.0000 C.3     1  LIG1        0.3142
     21 C           2.5960   -0.5040    0.0000 C.2     1  LIG1        0.3620
     22 O           3.4630   -0.0040    0.0000 O.2     1  LIG1       -0.2459
     23 O           2.5960   -1.5080    0.0000 O.3     1  LIG1       -0.4459
     24 C           1.7380   -2.0080    0.0000 C.3     1  LIG1        0.2087
     25 C           1.7380   -3.0080    0.0000 C.3     1  LIG1        0.0513
@<TRIPOS>BOND
     1     1     2    2
     2     1     6    1
     3     1    19    1
     4     2     3    1
     5     2    13    1
     6     3     4    1
     7     3    12    2
     8     4     5   ar
     9     4    11   ar
    10     5     6    1
    11     5     8   ar
    12     6     7    2
    13     8     9   ar
    14     9    10   ar
    15    10    11   ar
    16    13    14   ar
    17    13    18   ar
    18    14    15   ar
    19    15    16   ar
    20    16    17   ar
    21    17    18   ar
    22    19    20    1
    23    20    21    1
    24    21    22    2
    25    21    23    1
    26    23    24    1
    27    24    25    1
