@<TRIPOS>MOLECULE
32160_ChemDiv_5764-0029
 30 32 0 0 0
SMALL
GASTEIGER
Energy = 0

@<TRIPOS>ATOM
      1 C           1.6960   -1.7750    0.0000 C.ar    1  LIG1        0.1117
      2 C           1.3040   -0.8540    0.0000 C.ar    1  LIG1        0.0860
      3 C           2.0210   -0.2000    0.0000 C.ar    1  LIG1       -0.0088
      4 C           2.9380   -0.7000    0.0000 C.ar    1  LIG1        0.0052
      5 S           2.6920   -1.6750    0.0000 S.2     1  LIG1       -0.0744
      6 C           3.8380   -0.3580    0.0000 C.3     1  LIG1        0.0327
      7 C           4.3130    0.4880    0.0000 C.3     1  LIG1        0.0052
      8 C           4.0540    1.4830    0.0000 C.3     1  LIG1        0.0004
      9 C           3.1670    1.9920    0.0000 C.3     1  LIG1        0.0004
     10 C           2.2500    1.6290    0.0000 C.3     1  LIG1        0.0047
     11 C           1.7920    0.7710    0.0000 C.3     1  LIG1        0.0273
     12 C           0.3420   -0.6250    0.0000 C.1     1  LIG1        0.1019
     13 N          -0.6250   -0.3960    0.0000 N.1     1  LIG1       -0.1908
     14 N           1.2080   -2.6420    0.0000 N.am    1  LIG1       -0.1712
     15 C           0.2130   -2.6420    0.0000 C.2     1  LIG1        0.2576
     16 O          -0.3210   -3.4880    0.0000 O.2     1  LIG1       -0.2720
     17 C          -0.3210   -1.7750    0.0000 C.3     1  LIG1        0.1564
     18 S          -1.3130   -1.7750    0.0000 S.3     1  LIG1       -0.0118
     19 C          -1.8500   -0.8540    0.0000 C.2     1  LIG1        0.3992
     20 N          -1.3380    0.0040    0.0000 N.am    1  LIG1        0.1626
     21 C          -1.8500    0.8710    0.0000 C.2     1  LIG1        0.4865
     22 C          -2.8420    0.8710    0.0000 C.3     1  LIG1        0.3084
     23 C          -3.3250    0.0040    0.0000 C.2     1  LIG1        0.2853
     24 N          -2.8420   -0.8540    0.0000 N.am    1  LIG1       -0.1053
     25 O          -4.3170    0.0040    0.0000 O.2     1  LIG1       -0.2702
     26 N          -3.3250    1.7630    0.0000 N.am    1  LIG1       -0.1837
     27 C          -2.8420    2.6210    0.0000 C.2     1  LIG1        0.2428
     28 O          -3.3250    3.4920    0.0000 O.2     1  LIG1       -0.2733
     29 C          -1.8500    2.6210    0.0000 C.3     1  LIG1        0.0965
     30 O          -1.3130    1.7630    0.0000 O.2     1  LIG1       -0.2093
@<TRIPOS>BOND
     1     1     2   ar
     2     1     5   ar
     3     1    14    1
     4     2     3   ar
     5     2    12    1
     6     3     4   ar
     7     3    11    1
     8     4     5   ar
     9     4     6    1
    10     6     7    1
    11     7     8    1
    12     8     9    1
    13     9    10    1
    14    10    11    1
    15    12    13    3
    16    14    15   am
    17    15    16    2
    18    15    17    1
    19    17    18    1
    20    18    19    1
    21    19    20    2
    22    19    24    1
    23    20    21   am
    24    21    22    1
    25    21    30    2
    26    22    23    1
    27    22    26    1
    28    23    24   am
    29    23    25    2
    30    26    27   am
    31    27    28    2
    32    27    29    1
