@<TRIPOS>MOLECULE
32169_ChemDiv_7201-0002
 27 30 0 0 0
SMALL
GASTEIGER
Energy = 0

@<TRIPOS>ATOM
      1 C           1.2630    0.7290    0.0000 C.ar    1  LIG1        0.0053
      2 C           1.2630   -0.2380    0.0000 C.ar    1  LIG1        0.0720
      3 N           2.1080   -0.7250    0.0000 N.ar    1  LIG1       -0.3252
      4 C           2.9580   -0.2380    0.0000 C.ar    1  LIG1        0.0596
      5 C           2.9580    0.7290    0.0000 C.ar    1  LIG1        0.0137
      6 C           3.8040    1.2210    0.0000 C.ar    1  LIG1        0.0012
      7 C           4.6540    0.7290    0.0000 C.ar    1  LIG1        0.0001
      8 C           4.6540   -0.2380    0.0000 C.ar    1  LIG1        0.0015
      9 C           3.8040   -0.7250    0.0000 C.ar    1  LIG1        0.0172
     10 C           2.1080   -1.7040    0.0000 C.3     1  LIG1        0.1222
     11 C           2.9580   -2.1960    0.0000 C.3     1  LIG1        0.1298
     12 C           3.8040   -1.7040    0.0000 C.1     1  LIG1        0.0752
     13 N           4.6540   -2.1960    0.0000 N.1     1  LIG1       -0.1958
     14 C           0.4210    0.2500    0.0000 C.3     1  LIG1        0.1096
     15 C           0.4210   -0.7250    0.0000 C.2     1  LIG1        0.2667
     16 N          -0.4290   -1.2170    0.0000 N.am    1  LIG1       -0.0793
     17 N          -1.2710   -0.7250    0.0000 N.2     1  LIG1       -0.1605
     18 C          -1.2710    0.2500    0.0000 C.2     1  LIG1        0.0790
     19 C          -0.4290    0.7290    0.0000 C.3     1  LIG1        0.0611
     20 C          -2.1250    0.7290    0.0000 C.ar    1  LIG1        0.0151
     21 C          -2.9670    0.2500    0.0000 C.ar    1  LIG1        0.0009
     22 C          -3.8130    0.7290    0.0000 C.ar    1  LIG1       -0.0042
     23 C          -3.8130    1.7130    0.0000 C.ar    1  LIG1       -0.0218
     24 C          -2.9670    2.2000    0.0000 C.ar    1  LIG1       -0.0042
     25 C          -2.1250    1.7130    0.0000 C.ar    1  LIG1        0.0009
     26 C          -4.6580    2.2000    0.0000 C.3     1  LIG1        0.0310
     27 O           1.2630   -1.2170    0.0000 O.2     1  LIG1       -0.2711
@<TRIPOS>BOND
     1     1     2   ar
     2     1     5   ar
     3     1    14    1
     4     2     3   ar
     5     3     4   ar
     6     3    10    1
     7     4     5   ar
     8     4     9   ar
     9     5     6   ar
    10     6     7   ar
    11     7     8   ar
    12     8     9   ar
    13    10    11    1
    14    11    12    1
    15    12    13    3
    16    14    15    1
    17    14    19    1
    18    15    16   am
    19    15    27    2
    20    16    17    1
    21    17    18    2
    22    18    19    1
    23    18    20    1
    24    20    21   ar
    25    20    25   ar
    26    21    22   ar
    27    22    23   ar
    28    23    24   ar
    29    23    26    1
    30    24    25   ar
