@<TRIPOS>MOLECULE
32164_ChemDiv_5928-0028
 25 28 0 0 0
SMALL
GASTEIGER
Energy = 0

@<TRIPOS>ATOM
      1 N          -1.1330    1.5630    0.0000 N.am    1  LIG1       -0.2096
      2 C          -1.3040    2.5250    0.0000 C.2     1  LIG1        0.2330
      3 C          -2.2750    2.6080    0.0000 C.3     1  LIG1        0.0901
      4 C          -2.6880    1.7330    0.0000 C.3     1  LIG1        0.0901
      5 C          -1.9750    1.0830    0.0000 C.2     1  LIG1        0.2330
      6 O          -2.0540    0.1290    0.0000 O.2     1  LIG1       -0.2744
      7 C          -3.5960    2.1790    0.0000 C.3     1  LIG1        0.0311
      8 C          -4.4330    1.7330    0.0000 C.2     1  LIG1       -0.0305
      9 C          -4.0000    2.5880    0.0000 C.2     1  LIG1       -0.0305
     10 C          -3.1630    3.0210    0.0000 C.3     1  LIG1        0.0311
     11 C          -3.5960    3.8500    0.0000 C.3     1  LIG1        0.0096
     12 O          -0.6790    3.2250    0.0000 O.2     1  LIG1       -0.2744
     13 C          -0.2960    1.1080    0.0000 C.3     1  LIG1        0.2192
     14 N          -0.2960    0.1540    0.0000 N.am    1  LIG1       -0.1640
     15 C           0.5500   -0.3420    0.0000 C.2     1  LIG1        0.3469
     16 N           0.5500   -1.3040    0.0000 N.am    1  LIG1       -0.1343
     17 C           1.3920   -1.8000    0.0000 C.ar    1  LIG1        0.2090
     18 S           1.4920   -2.8040    0.0000 S.2     1  LIG1       -0.0330
     19 C           2.5000   -2.9750    0.0000 C.ar    1  LIG1        0.1124
     20 N           2.9960   -2.1210    0.0000 N.ar    1  LIG1       -0.1440
     21 N           2.2790   -1.3670    0.0000 N.ar    1  LIG1       -0.1238
     22 C           2.9380   -3.8460    0.0000 C.3     1  LIG1        0.0545
     23 C           3.9330   -3.8460    0.0000 C.3     1  LIG1        0.0069
     24 C           4.4290   -2.9880    0.0000 C.3     1  LIG1        0.0004
     25 O           1.3920    0.1540    0.0000 O.2     1  LIG1       -0.2487
@<TRIPOS>BOND
     1     1     2   am
     2     1     5   am
     3     1    13    1
     4     2     3    1
     5     2    12    2
     6     3     4    1
     7     3    10    1
     8     4     5    1
     9     4     7    1
    10     5     6    2
    11     7     8    1
    12     7    11    1
    13     8     9    2
    14     9    10    1
    15    10    11    1
    16    13    14    1
    17    14    15   am
    18    15    16   am
    19    15    25    2
    20    16    17    1
    21    17    18   ar
    22    17    21   ar
    23    18    19   ar
    24    19    20   ar
    25    19    22    1
    26    20    21   ar
    27    22    23    1
    28    23    24    1
