@<TRIPOS>MOLECULE
32174_ChemDiv_5936-0059
 29 31 0 0 0
SMALL
GASTEIGER
Energy = 0

@<TRIPOS>ATOM
      1 N          -1.2080    1.9000    0.0000 N.ar    1  LIG1       -0.3243
      2 C          -0.6290    2.7080    0.0000 C.ar    1  LIG1        0.0600
      3 C          -1.2080    3.5250    0.0000 C.ar    1  LIG1        0.0186
      4 C          -2.1580    3.2080    0.0000 C.ar    1  LIG1        0.0172
      5 C          -2.1580    2.2040    0.0000 C.ar    1  LIG1        0.0600
      6 C          -3.0130    1.7210    0.0000 C.ar    1  LIG1        0.0172
      7 C          -3.9000    2.2040    0.0000 C.ar    1  LIG1        0.0015
      8 C          -3.9000    3.2080    0.0000 C.ar    1  LIG1        0.0001
      9 C          -3.0130    3.7040    0.0000 C.ar    1  LIG1        0.0015
     10 C           0.3830    2.6750    0.0000 C.ar    1  LIG1        0.0160
     11 C           0.8500    1.7960    0.0000 C.ar    1  LIG1        0.0045
     12 C           1.8420    1.7540    0.0000 C.ar    1  LIG1        0.0369
     13 C           2.3880    2.5880    0.0000 C.ar    1  LIG1        0.1387
     14 C           1.9170    3.4790    0.0000 C.ar    1  LIG1        0.0369
     15 C           0.9130    3.5130    0.0000 C.ar    1  LIG1        0.0045
     16 O           3.3880    2.5830    0.0000 O.3     1  LIG1       -0.4714
     17 C           3.8960    3.4380    0.0000 C.3     1  LIG1        0.2525
     18 C          -0.8920    0.9500    0.0000 C.3     1  LIG1        0.1452
     19 C          -1.5750    0.2210    0.0000 C.3     1  LIG1        0.2365
     20 C          -1.2540   -0.7460    0.0000 C.3     1  LIG1        0.2355
     21 N          -1.9380   -1.4710    0.0000 N.4     1  LIG1        0.4473
     22 C          -1.6330   -2.4290    0.0000 C.3     1  LIG1        0.1904
     23 C          -1.3290   -3.3710    0.0000 C.3     1  LIG1        0.2435
     24 O          -0.3460   -3.5960    0.0000 O.3     1  LIG1       -0.2138
     25 C          -2.5880   -2.7290    0.0000 C.3     1  LIG1        0.2435
     26 O          -2.8130   -3.7000    0.0000 O.3     1  LIG1       -0.2138
     27 C          -0.6880   -2.1250    0.0000 C.3     1  LIG1        0.2435
     28 O          -0.4630   -1.1460    0.0000 O.3     1  LIG1       -0.2138
     29 O          -2.5420    0.4330    0.0000 O.3     1  LIG1       -0.2144
@<TRIPOS>BOND
     1     1     2   ar
     2     1     5   ar
     3     1    18    1
     4     2     3   ar
     5     2    10    1
     6     3     4   ar
     7     4     5   ar
     8     4     9   ar
     9     5     6   ar
    10     6     7   ar
    11     7     8   ar
    12     8     9   ar
    13    10    11   ar
    14    10    15   ar
    15    11    12   ar
    16    12    13   ar
    17    13    14   ar
    18    13    16    1
    19    14    15   ar
    20    16    17    1
    21    18    19    1
    22    19    20    1
    23    19    29    1
    24    20    21    1
    25    21    22    1
    26    22    23    1
    27    22    25    1
    28    22    27    1
    29    23    24    1
    30    25    26    1
    31    27    28    1
