@<TRIPOS>MOLECULE
32176_ChemDiv_5936-0062
 37 41 0 0 0
SMALL
GASTEIGER
Energy = 0

@<TRIPOS>ATOM
      1 N          -0.5000    0.2750    0.0000 N.ar    1  LIG1       -0.3243
      2 C           0.0670    1.0790    0.0000 C.ar    1  LIG1        0.0599
      3 C          -0.5000    1.8920    0.0000 C.ar    1  LIG1        0.0172
      4 C          -1.4630    1.5920    0.0000 C.ar    1  LIG1        0.0172
      5 C          -1.4630    0.5830    0.0000 C.ar    1  LIG1        0.0599
      6 C          -2.3130    0.0920    0.0000 C.ar    1  LIG1        0.0158
      7 C          -3.1880    0.5830    0.0000 C.ar    1  LIG1        0.0014
      8 C          -3.1880    1.5920    0.0000 C.ar    1  LIG1        0.0001
      9 C          -2.3130    2.0880    0.0000 C.ar    1  LIG1        0.0015
     10 C          -4.0500    0.0920    0.0000 C.ar    1  LIG1        0.0000
     11 C          -4.0500   -0.9290    0.0000 C.ar    1  LIG1        0.0000
     12 C          -3.1880   -1.4210    0.0000 C.ar    1  LIG1        0.0000
     13 C          -2.3130   -0.9290    0.0000 C.ar    1  LIG1        0.0014
     14 C          -0.1500    2.8210    0.0000 C.ar    1  LIG1        0.0014
     15 C          -0.7960    3.5880    0.0000 C.ar    1  LIG1        0.0000
     16 C          -0.4380    4.5130    0.0000 C.ar    1  LIG1        0.0000
     17 C           0.5500    4.6880    0.0000 C.ar    1  LIG1        0.0000
     18 C           1.1960    3.9080    0.0000 C.ar    1  LIG1        0.0000
     19 C           0.8330    2.9960    0.0000 C.ar    1  LIG1        0.0000
     20 C           1.0750    1.0460    0.0000 C.ar    1  LIG1        0.0158
     21 C           1.5420    0.1540    0.0000 C.ar    1  LIG1        0.0014
     22 C           2.5330    0.1130    0.0000 C.ar    1  LIG1        0.0000
     23 C           3.0750    0.9580    0.0000 C.ar    1  LIG1        0.0000
     24 C           2.6080    1.8460    0.0000 C.ar    1  LIG1        0.0000
     25 C           1.6210    1.8920    0.0000 C.ar    1  LIG1        0.0014
     26 C          -0.1960   -0.6880    0.0000 C.3     1  LIG1        0.1452
     27 C           0.7710   -0.8920    0.0000 C.3     1  LIG1        0.2365
     28 C           1.0790   -1.8420    0.0000 C.3     1  LIG1        0.2355
     29 N           2.0460   -2.0540    0.0000 N.4     1  LIG1        0.4473
     30 C           2.3500   -3.0080    0.0000 C.3     1  LIG1        0.1904
     31 C           2.6670   -3.9630    0.0000 C.3     1  LIG1        0.2435
     32 O           1.9880   -4.6880    0.0000 O.3     1  LIG1       -0.2138
     33 C           3.3130   -2.6920    0.0000 C.3     1  LIG1        0.2435
     34 O           4.0460   -3.3710    0.0000 O.3     1  LIG1       -0.2138
     35 C           1.3960   -3.3130    0.0000 C.3     1  LIG1        0.2435
     36 O           0.6710   -2.6460    0.0000 O.3     1  LIG1       -0.2138
     37 O           1.4420   -0.1500    0.0000 O.3     1  LIG1       -0.2144
@<TRIPOS>BOND
     1     1     2   ar
     2     1     5   ar
     3     1    26    1
     4     2     3   ar
     5     2    20    1
     6     3     4   ar
     7     3    14    1
     8     4     5   ar
     9     4     9   ar
    10     5     6   ar
    11     6     7   ar
    12     6    13   ar
    13     7     8   ar
    14     7    10   ar
    15     8     9   ar
    16    10    11   ar
    17    11    12   ar
    18    12    13   ar
    19    14    15   ar
    20    14    19   ar
    21    15    16   ar
    22    16    17   ar
    23    17    18   ar
    24    18    19   ar
    25    20    21   ar
    26    20    25   ar
    27    21    22   ar
    28    22    23   ar
    29    23    24   ar
    30    24    25   ar
    31    26    27    1
    32    27    28    1
    33    27    37    1
    34    28    29    1
    35    29    30    1
    36    30    31    1
    37    30    33    1
    38    30    35    1
    39    31    32    1
    40    33    34    1
    41    35    36    1
