@<TRIPOS>MOLECULE
32171_ChemDiv_7201-0004
 26 29 0 0 0
SMALL
GASTEIGER
Energy = 0

@<TRIPOS>ATOM
      1 C           0.8420    0.7290    0.0000 C.ar    1  LIG1        0.0053
      2 C           0.8420   -0.2330    0.0000 C.ar    1  LIG1        0.0720
      3 N           1.6880   -0.7290    0.0000 N.ar    1  LIG1       -0.3252
      4 C           2.5330   -0.2330    0.0000 C.ar    1  LIG1        0.0596
      5 C           2.5330    0.7290    0.0000 C.ar    1  LIG1        0.0137
      6 C           3.3750    1.2210    0.0000 C.ar    1  LIG1        0.0012
      7 C           4.2250    0.7290    0.0000 C.ar    1  LIG1        0.0001
      8 C           4.2250   -0.2330    0.0000 C.ar    1  LIG1        0.0015
      9 C           3.3750   -0.7290    0.0000 C.ar    1  LIG1        0.0172
     10 C           1.6880   -1.7040    0.0000 C.3     1  LIG1        0.1222
     11 C           2.5330   -2.1960    0.0000 C.3     1  LIG1        0.1298
     12 C           3.3750   -1.7040    0.0000 C.1     1  LIG1        0.0752
     13 N           4.2250   -2.1960    0.0000 N.1     1  LIG1       -0.1958
     14 C           0.0000    0.2460    0.0000 C.3     1  LIG1        0.1096
     15 C           0.0000   -0.7290    0.0000 C.2     1  LIG1        0.2667
     16 N          -0.8540   -1.2170    0.0000 N.am    1  LIG1       -0.0793
     17 N          -1.7000   -0.7290    0.0000 N.2     1  LIG1       -0.1605
     18 C          -1.7000    0.2460    0.0000 C.2     1  LIG1        0.0790
     19 C          -0.8540    0.7290    0.0000 C.3     1  LIG1        0.0611
     20 C          -2.5460    0.7290    0.0000 C.ar    1  LIG1        0.0151
     21 C          -3.3880    0.2460    0.0000 C.ar    1  LIG1        0.0012
     22 C          -4.2290    0.7290    0.0000 C.ar    1  LIG1        0.0000
     23 C          -4.2290    1.7080    0.0000 C.ar    1  LIG1        0.0000
     24 C          -3.3880    2.2000    0.0000 C.ar    1  LIG1        0.0000
     25 C          -2.5460    1.7080    0.0000 C.ar    1  LIG1        0.0012
     26 O           0.8420   -1.2170    0.0000 O.2     1  LIG1       -0.2711
@<TRIPOS>BOND
     1     1     2   ar
     2     1     5   ar
     3     1    14    1
     4     2     3   ar
     5     3     4   ar
     6     3    10    1
     7     4     5   ar
     8     4     9   ar
     9     5     6   ar
    10     6     7   ar
    11     7     8   ar
    12     8     9   ar
    13    10    11    1
    14    11    12    1
    15    12    13    3
    16    14    15    1
    17    14    19    1
    18    15    16   am
    19    15    26    2
    20    16    17    1
    21    17    18    2
    22    18    19    1
    23    18    20    1
    24    20    21   ar
    25    20    25   ar
    26    21    22   ar
    27    22    23   ar
    28    23    24   ar
    29    24    25   ar
