@<TRIPOS>MOLECULE
32170_ChemDiv_5928-0111
 17 19 0 0 0
SMALL
GASTEIGER
Energy = 0

@<TRIPOS>ATOM
      1 N          -0.7540    1.0500    0.0000 N.am    1  LIG1       -0.2601
      2 C          -0.1420    0.2790    0.0000 C.2     1  LIG1        0.3277
      3 N          -0.4960   -0.6670    0.0000 N.am    1  LIG1       -0.1622
      4 C           0.1380   -1.4460    0.0000 C.ar    1  LIG1        0.0746
      5 C           1.1170   -1.2790    0.0000 C.ar    1  LIG1        0.0124
      6 C           1.7540   -2.0380    0.0000 C.ar    1  LIG1       -0.0206
      7 C           1.4330   -2.9830    0.0000 C.ar    1  LIG1       -0.0042
      8 C           0.4380   -3.1500    0.0000 C.ar    1  LIG1        0.0010
      9 C          -0.2040   -2.3960    0.0000 C.ar    1  LIG1        0.0166
     10 C           2.7210   -1.8500    0.0000 C.3     1  LIG1        0.0311
     11 O           0.8330    0.4460    0.0000 O.2     1  LIG1       -0.2504
     12 C          -1.5290    1.4960    0.0000 C.3     1  LIG1        0.0992
     13 C          -2.3750    1.1500    0.0000 C.2     1  LIG1       -0.0112
     14 C          -2.7250    1.9710    0.0000 C.2     1  LIG1       -0.0276
     15 C          -1.8790    2.3290    0.0000 C.3     1  LIG1        0.0436
     16 C          -1.0080    1.8960    0.0000 C.3     1  LIG1        0.0996
     17 C          -1.5290    3.1540    0.0000 C.3     1  LIG1        0.0304
@<TRIPOS>BOND
     1     1     2   am
     2     1    12    1
     3     1    16    1
     4     2     3   am
     5     2    11    2
     6     3     4    1
     7     4     5   ar
     8     4     9   ar
     9     5     6   ar
    10     6     7   ar
    11     6    10    1
    12     7     8   ar
    13     8     9   ar
    14    12    13    1
    15    12    17    1
    16    13    14    2
    17    14    15    1
    18    15    16    1
    19    15    17    1
