@<TRIPOS>MOLECULE
32172_ChemDiv_5929-0087
 29 33 0 0 0
SMALL
GASTEIGER
Energy = 0

@<TRIPOS>ATOM
      1 C          -3.3210    1.0960    0.0000 C.3     1  LIG1        0.0205
      2 C          -2.3420    0.7420    0.0000 C.3     1  LIG1        0.0241
      3 C          -1.5920    1.4170    0.0000 C.3     1  LIG1        0.0805
      4 N          -0.6000    1.4170    0.0000 N.am    1  LIG1       -0.1918
      5 C          -0.1540    0.6330    0.0000 C.2     1  LIG1        0.3235
      6 N           0.8420    0.6040    0.0000 N.am    1  LIG1       -0.2509
      7 C           1.3710    1.4500    0.0000 C.3     1  LIG1        0.1578
      8 C           2.3750    1.4000    0.0000 C.3     1  LIG1        0.1607
      9 N           2.8250    0.5130    0.0000 N.4     1  LIG1        0.3821
     10 C           2.2920   -0.3250    0.0000 C.3     1  LIG1        0.1607
     11 C           1.2880   -0.2790    0.0000 C.3     1  LIG1        0.1578
     12 C           3.8210    0.4500    0.0000 C.3     1  LIG1        0.1749
     13 C           4.3580    1.2670    0.0000 C.3     1  LIG1        0.2442
     14 O           3.9210    2.1500    0.0000 O.3     1  LIG1       -0.2137
     15 O          -0.6000   -0.1290    0.0000 O.2     1  LIG1       -0.2508
     16 C          -1.5920    2.2710    0.0000 C.3     1  LIG1        0.0201
     17 C          -2.4170    2.8000    0.0000 C.3     1  LIG1        0.0020
     18 C          -3.3420    2.0750    0.0000 C.3     1  LIG1        0.0042
     19 C          -3.5420    2.5000    0.0000 C.3     1  LIG1        0.0001
     20 C          -3.5420    1.4920    0.0000 C.3     1  LIG1        0.0020
     21 C          -4.3630    0.7630    0.0000 C.3     1  LIG1        0.0042
     22 C          -2.5000    1.2170    0.0000 C.3     1  LIG1        0.0201
     23 C          -3.3210    0.2380    0.0000 C.ar    1  LIG1       -0.0228
     24 C          -4.1630   -0.2630    0.0000 C.ar    1  LIG1       -0.0046
     25 C          -4.1630   -1.2630    0.0000 C.ar    1  LIG1       -0.0046
     26 C          -3.3210   -1.7670    0.0000 C.ar    1  LIG1       -0.0219
     27 C          -2.4380   -1.2630    0.0000 C.ar    1  LIG1       -0.0046
     28 C          -2.4380   -0.2630    0.0000 C.ar    1  LIG1       -0.0046
     29 C          -3.3210   -2.7960    0.0000 C.3     1  LIG1        0.0310
@<TRIPOS>BOND
     1     1     2    1
     2     1    18    1
     3     1    21    1
     4     1    23    1
     5     2     3    1
     6     3     4    1
     7     3    16    1
     8     3    22    1
     9     4     5   am
    10     5     6   am
    11     5    15    2
    12     6     7    1
    13     6    11    1
    14     7     8    1
    15     8     9    1
    16     9    10    1
    17     9    12    1
    18    10    11    1
    19    12    13    1
    20    13    14    1
    21    16    17    1
    22    17    18    1
    23    17    19    1
    24    19    20    1
    25    20    21    1
    26    20    22    1
    27    23    24   ar
    28    23    28   ar
    29    24    25   ar
    30    25    26   ar
    31    26    27   ar
    32    26    29    1
    33    27    28   ar
