@<TRIPOS>MOLECULE
32188_ChemDiv_5782-5856
 31 36 0 0 0
SMALL
GASTEIGER
Energy = 0

@<TRIPOS>ATOM
      1 N          -1.3830   -1.7210    0.0000 N.am    1  LIG1       -0.2081
      2 C          -1.9630   -2.5290    0.0000 C.2     1  LIG1        0.2351
      3 C          -2.9040   -2.2290    0.0000 C.3     1  LIG1        0.0860
      4 C          -2.9040   -1.2330    0.0000 C.3     1  LIG1        0.0860
      5 C          -1.9630   -0.9250    0.0000 C.2     1  LIG1        0.2351
      6 O          -1.6580    0.0250    0.0000 O.2     1  LIG1       -0.2741
      7 C          -3.7630   -0.7330    0.0000 C.3     1  LIG1        0.0091
      8 C          -3.5080   -1.6880    0.0000 C.3     1  LIG1        0.0010
      9 C          -3.7630   -2.7210    0.0000 C.3     1  LIG1        0.0091
     10 C          -4.6290   -2.2210    0.0000 C.3     1  LIG1        0.0005
     11 C          -4.6290   -1.2290    0.0000 C.3     1  LIG1        0.0005
     12 O          -1.6580   -3.4750    0.0000 O.2     1  LIG1       -0.2741
     13 C          -0.3830   -1.7210    0.0000 C.ar    1  LIG1        0.0608
     14 C           0.1170   -0.8630    0.0000 C.ar    1  LIG1        0.0218
     15 C           1.1170   -0.8630    0.0000 C.ar    1  LIG1        0.0773
     16 C           1.6170    0.0080    0.0000 C.2     1  LIG1        0.3458
     17 O           2.6170    0.0080    0.0000 O.3     1  LIG1       -0.4195
     18 C           3.1170    0.8750    0.0000 C.ar    1  LIG1        0.1662
     19 C           2.6170    1.7420    0.0000 C.ar    1  LIG1        0.1158
     20 N           1.6170    1.7420    0.0000 N.ar    1  LIG1       -0.2408
     21 C           1.1080    2.6130    0.0000 C.ar    1  LIG1        0.0989
     22 C           1.6170    3.4790    0.0000 C.ar    1  LIG1        0.0207
     23 C           2.6170    3.4790    0.0000 C.ar    1  LIG1        0.0032
     24 C           3.1170    2.6130    0.0000 C.ar    1  LIG1        0.0207
     25 C           4.1170    2.6130    0.0000 C.ar    1  LIG1        0.0017
     26 C           4.6250    1.7420    0.0000 C.ar    1  LIG1        0.0032
     27 C           4.1170    0.8750    0.0000 C.ar    1  LIG1        0.0392
     28 O           1.1170    0.8750    0.0000 O.2     1  LIG1       -0.2445
     29 C           1.6170   -1.7290    0.0000 C.ar    1  LIG1        0.0065
     30 C           1.1040   -2.5920    0.0000 C.ar    1  LIG1        0.0015
     31 C           0.1080   -2.5920    0.0000 C.ar    1  LIG1        0.0153
@<TRIPOS>BOND
     1     1     2   am
     2     1     5   am
     3     1    13    1
     4     2     3    1
     5     2    12    2
     6     3     4    1
     7     3     9    1
     8     4     5    1
     9     4     7    1
    10     5     6    2
    11     7     8    1
    12     7    11    1
    13     8     9    1
    14     9    10    1
    15    10    11    1
    16    13    14   ar
    17    13    31   ar
    18    14    15   ar
    19    15    16    1
    20    15    29   ar
    21    16    17    1
    22    16    28    2
    23    17    18    1
    24    18    19   ar
    25    18    27   ar
    26    19    20   ar
    27    19    24   ar
    28    20    21   ar
    29    21    22   ar
    30    22    23   ar
    31    23    24   ar
    32    24    25   ar
    33    25    26   ar
    34    26    27   ar
    35    29    30   ar
    36    30    31   ar
