@<TRIPOS>MOLECULE
32186_ChemDiv_5782-5850
 31 36 0 0 0
SMALL
GASTEIGER
Energy = 0

@<TRIPOS>ATOM
      1 N          -2.1170    0.0080    0.0000 N.am    1  LIG1       -0.2081
      2 C          -2.7000   -0.8000    0.0000 C.2     1  LIG1        0.2351
      3 C          -3.6460   -0.5040    0.0000 C.3     1  LIG1        0.0860
      4 C          -3.6460    0.4960    0.0000 C.3     1  LIG1        0.0860
      5 C          -2.7000    0.8080    0.0000 C.2     1  LIG1        0.2351
      6 O          -2.3960    1.7580    0.0000 O.2     1  LIG1       -0.2741
      7 C          -4.5130    0.9960    0.0000 C.3     1  LIG1        0.0091
      8 C          -4.2500    0.0380    0.0000 C.3     1  LIG1        0.0010
      9 C          -4.5130   -0.9960    0.0000 C.3     1  LIG1        0.0091
     10 C          -5.3750   -0.4960    0.0000 C.3     1  LIG1        0.0005
     11 C          -5.3750    0.4960    0.0000 C.3     1  LIG1        0.0005
     12 O          -2.3960   -1.7540    0.0000 O.2     1  LIG1       -0.2741
     13 C          -1.1210    0.0080    0.0000 C.ar    1  LIG1        0.0606
     14 C          -0.6210    0.8750    0.0000 C.ar    1  LIG1        0.0155
     15 C           0.3830    0.8750    0.0000 C.ar    1  LIG1        0.0077
     16 C           0.8790    0.0040    0.0000 C.ar    1  LIG1        0.0761
     17 C           1.8750    0.0080    0.0000 C.2     1  LIG1        0.3457
     18 O           2.3750   -0.8540    0.0000 O.3     1  LIG1       -0.4195
     19 C           3.3750   -0.8540    0.0000 C.ar    1  LIG1        0.1662
     20 C           3.8750    0.0080    0.0000 C.ar    1  LIG1        0.1158
     21 N           3.3750    0.8750    0.0000 N.ar    1  LIG1       -0.2408
     22 C           3.8750    1.7460    0.0000 C.ar    1  LIG1        0.0989
     23 C           4.8750    1.7460    0.0000 C.ar    1  LIG1        0.0207
     24 C           5.3710    0.8750    0.0000 C.ar    1  LIG1        0.0032
     25 C           4.8750    0.0080    0.0000 C.ar    1  LIG1        0.0207
     26 C           5.3710   -0.8540    0.0000 C.ar    1  LIG1        0.0017
     27 C           4.8750   -1.7170    0.0000 C.ar    1  LIG1        0.0032
     28 C           3.8750   -1.7170    0.0000 C.ar    1  LIG1        0.0392
     29 O           2.3790    0.8750    0.0000 O.2     1  LIG1       -0.2445
     30 C           0.3880   -0.8580    0.0000 C.ar    1  LIG1        0.0077
     31 C          -0.6170   -0.8540    0.0000 C.ar    1  LIG1        0.0155
@<TRIPOS>BOND
     1     1     2   am
     2     1     5   am
     3     1    13    1
     4     2     3    1
     5     2    12    2
     6     3     4    1
     7     3     9    1
     8     4     5    1
     9     4     7    1
    10     5     6    2
    11     7     8    1
    12     7    11    1
    13     8     9    1
    14     9    10    1
    15    10    11    1
    16    13    14   ar
    17    13    31   ar
    18    14    15   ar
    19    15    16   ar
    20    16    17    1
    21    16    30   ar
    22    17    18    1
    23    17    29    2
    24    18    19    1
    25    19    20   ar
    26    19    28   ar
    27    20    21   ar
    28    20    25   ar
    29    21    22   ar
    30    22    23   ar
    31    23    24   ar
    32    24    25   ar
    33    25    26   ar
    34    26    27   ar
    35    27    28   ar
    36    30    31   ar
