@<TRIPOS>MOLECULE
32182_ChemDiv_5782-5125
 28 32 0 0 0
SMALL
GASTEIGER
Energy = 0

@<TRIPOS>ATOM
      1 N          -2.1210    0.0170    0.0000 N.am    1  LIG1       -0.2207
      2 C          -2.6920    0.8040    0.0000 C.2     1  LIG1        0.2317
      3 C          -3.6170    0.5130    0.0000 C.3     1  LIG1        0.0857
      4 C          -3.6170   -0.4920    0.0000 C.3     1  LIG1        0.0857
      5 C          -2.6920   -0.7960    0.0000 C.2     1  LIG1        0.2317
      6 O          -2.3750   -1.7630    0.0000 O.2     1  LIG1       -0.2745
      7 C          -4.4670   -0.9920    0.0000 C.3     1  LIG1        0.0091
      8 C          -4.0420   -0.0130    0.0000 C.3     1  LIG1        0.0010
      9 C          -4.4670    1.0170    0.0000 C.3     1  LIG1        0.0091
     10 C          -5.3380    0.5130    0.0000 C.3     1  LIG1        0.0005
     11 C          -5.3380   -0.4920    0.0000 C.3     1  LIG1        0.0005
     12 O          -2.3750    1.7670    0.0000 O.2     1  LIG1       -0.2745
     13 C          -1.1250    0.0380    0.0000 C.3     1  LIG1        0.1858
     14 C          -0.6420   -0.8330    0.0000 C.2     1  LIG1        0.2467
     15 N           0.3460   -0.8460    0.0000 N.am    1  LIG1       -0.2667
     16 C           0.8460    0.0040    0.0000 C.3     1  LIG1        0.1565
     17 C           1.8500   -0.0040    0.0000 C.3     1  LIG1        0.1610
     18 N           2.3540   -0.8630    0.0000 N.4     1  LIG1        0.3834
     19 C           3.3500   -0.8630    0.0000 C.3     1  LIG1        0.1663
     20 C           3.8380   -0.0040    0.0000 C.ar    1  LIG1        0.0344
     21 C           3.3500    0.8460    0.0000 C.ar    1  LIG1        0.0014
     22 C           3.8290    1.7210    0.0000 C.ar    1  LIG1       -0.0001
     23 C           4.8210    1.7420    0.0000 C.ar    1  LIG1       -0.0000
     24 C           5.3330    0.8750    0.0000 C.ar    1  LIG1       -0.0001
     25 C           4.8330    0.0040    0.0000 C.ar    1  LIG1        0.0014
     26 C           1.8380   -1.7130    0.0000 C.3     1  LIG1        0.1610
     27 C           0.8420   -1.7000    0.0000 C.3     1  LIG1        0.1565
     28 O          -1.1250   -1.7000    0.0000 O.2     1  LIG1       -0.2730
@<TRIPOS>BOND
     1     1     2   am
     2     1     5   am
     3     1    13    1
     4     2     3    1
     5     2    12    2
     6     3     4    1
     7     3     9    1
     8     4     5    1
     9     4     7    1
    10     5     6    2
    11     7     8    1
    12     7    11    1
    13     8     9    1
    14     9    10    1
    15    10    11    1
    16    13    14    1
    17    14    15   am
    18    14    28    2
    19    15    16    1
    20    15    27    1
    21    16    17    1
    22    17    18    1
    23    18    19    1
    24    18    26    1
    25    19    20    1
    26    20    21   ar
    27    20    25   ar
    28    21    22   ar
    29    22    23   ar
    30    23    24   ar
    31    24    25   ar
    32    26    27    1
