@<TRIPOS>MOLECULE
32184_ChemDiv_5782-5161
 27 32 0 0 0
SMALL
GASTEIGER
Energy = 0

@<TRIPOS>ATOM
      1 N           1.5750    0.5130    0.0000 N.am    1  LIG1       -0.1894
      2 C           0.6750    0.5380    0.0000 C.2     1  LIG1        0.2370
      3 C           0.3790   -0.3170    0.0000 C.3     1  LIG1        0.0947
      4 C           1.1000   -0.8580    0.0000 C.3     1  LIG1        0.0947
      5 C           1.8330   -0.3460    0.0000 C.2     1  LIG1        0.2370
      6 O           2.6790   -0.6420    0.0000 O.2     1  LIG1       -0.2741
      7 C          -2.5290   -1.7210    0.0000 C.3     1  LIG1        0.0531
      8 C          -1.7500   -2.1540    0.0000 C.ar    1  LIG1       -0.0216
      9 C          -0.9830   -1.7210    0.0000 C.ar    1  LIG1       -0.0216
     10 C          -0.9830   -0.8250    0.0000 C.3     1  LIG1        0.0531
     11 C          -1.7540   -0.3750    0.0000 C.ar    1  LIG1       -0.0216
     12 C          -2.5290   -0.8250    0.0000 C.ar    1  LIG1       -0.0216
     13 C          -3.2960   -0.3920    0.0000 C.ar    1  LIG1       -0.0042
     14 C          -3.3130    0.5000    0.0000 C.ar    1  LIG1       -0.0003
     15 C          -2.5420    0.9540    0.0000 C.ar    1  LIG1       -0.0003
     16 C          -1.7670    0.5210    0.0000 C.ar    1  LIG1       -0.0042
     17 C          -0.2210   -2.1670    0.0000 C.ar    1  LIG1       -0.0042
     18 C          -0.2210   -3.0460    0.0000 C.ar    1  LIG1       -0.0003
     19 C          -0.9920   -3.4960    0.0000 C.ar    1  LIG1       -0.0003
     20 C          -1.7540   -3.0460    0.0000 C.ar    1  LIG1       -0.0042
     21 O           0.1630    1.2710    0.0000 O.2     1  LIG1       -0.2741
     22 C           2.1210    1.2290    0.0000 C.ar    1  LIG1        0.1851
     23 N           3.0170    1.2040    0.0000 N.ar    1  LIG1       -0.0615
     24 O           3.3080    2.0540    0.0000 O.2     1  LIG1       -0.3565
     25 C           2.6040    2.5960    0.0000 C.ar    1  LIG1        0.1562
     26 C           1.8670    2.0830    0.0000 C.ar    1  LIG1        0.0740
     27 C           2.6210    3.5000    0.0000 C.3     1  LIG1        0.0754
@<TRIPOS>BOND
     1     1     2   am
     2     1     5   am
     3     1    22    1
     4     2     3    1
     5     2    21    2
     6     3     4    1
     7     3    10    1
     8     4     5    1
     9     4     7    1
    10     5     6    2
    11     7     8    1
    12     7    12    1
    13     8     9   ar
    14     8    20   ar
    15     9    10    1
    16     9    17   ar
    17    10    11    1
    18    11    12   ar
    19    11    16   ar
    20    12    13   ar
    21    13    14   ar
    22    14    15   ar
    23    15    16   ar
    24    17    18   ar
    25    18    19   ar
    26    19    20   ar
    27    22    23   ar
    28    22    26   ar
    29    23    24   ar
    30    24    25   ar
    31    25    26   ar
    32    25    27    1
