@<TRIPOS>MOLECULE
32185_ChemDiv_5696-0049
 19 20 0 0 0
SMALL
GASTEIGER
Energy = 0

@<TRIPOS>ATOM
      1 C          -0.0830   -1.1290    0.0000 C.ar    1  LIG1        0.1714
      2 N          -0.6710   -1.9380    0.0000 N.ar    1  LIG1       -0.2195
      3 C          -1.6130   -1.6330    0.0000 C.ar    1  LIG1        0.1183
      4 C          -1.6130   -0.6380    0.0000 C.ar    1  LIG1        0.0824
      5 N          -0.6710   -0.3250    0.0000 N.ar    1  LIG1       -0.3044
      6 C          -0.3500    0.6210    0.0000 C.3     1  LIG1        0.1324
      7 C          -2.4790   -0.1250    0.0000 C.ar    1  LIG1        0.0394
      8 C          -3.3460   -0.6380    0.0000 C.ar    1  LIG1        0.1005
      9 N          -3.3460   -1.6420    0.0000 N.ar    1  LIG1       -0.2406
     10 C          -2.4790   -2.1330    0.0000 C.ar    1  LIG1        0.1194
     11 S           0.9210   -1.1290    0.0000 S.3     1  LIG1       -0.0773
     12 C           1.4210   -0.2630    0.0000 C.3     1  LIG1        0.0651
     13 C           2.4250   -0.3960    0.0000 C.3     1  LIG1        0.0121
     14 C           3.2170    0.2210    0.0000 C.3     1  LIG1        0.0009
     15 C           3.3420    1.2170    0.0000 C.3     1  LIG1        0.0000
     16 C           2.7330    2.0040    0.0000 C.3     1  LIG1        0.0000
     17 C           1.7420    2.1380    0.0000 C.3     1  LIG1        0.0000
     18 C           0.9420    1.5290    0.0000 C.3     1  LIG1        0.0000
     19 C           0.0250    1.9130    0.0000 C.3     1  LIG1        0.0000
@<TRIPOS>BOND
     1     1     2   ar
     2     1     5   ar
     3     1    11    1
     4     2     3   ar
     5     3     4   ar
     6     3    10   ar
     7     4     5   ar
     8     4     7   ar
     9     5     6    1
    10     7     8   ar
    11     8     9   ar
    12     9    10   ar
    13    11    12    1
    14    12    13    1
    15    13    14    1
    16    14    15    1
    17    15    16    1
    18    16    17    1
    19    17    18    1
    20    18    19    1
