@<TRIPOS>MOLECULE
32181_ChemDiv_5689-0153
 22 25 0 0 0
SMALL
GASTEIGER
Energy = 0

@<TRIPOS>ATOM
      1 C          -1.4040   -0.7460    0.0000 C.3     1  LIG1        0.1206
      2 C          -0.4580   -0.4250    0.0000 C.2     1  LIG1        0.2323
      3 N           0.1330   -1.2580    0.0000 N.am    1  LIG1       -0.2561
      4 C          -0.4580   -2.0630    0.0000 C.3     1  LIG1        0.1299
      5 C          -1.4500   -1.7040    0.0000 C.3     1  LIG1        0.1385
      6 O          -2.1580   -1.0040    0.0000 O.3     1  LIG1       -0.3498
      7 C          -3.1330   -0.7460    0.0000 C.3     1  LIG1        0.1483
      8 C          -2.2670   -0.2420    0.0000 C.3     1  LIG1        0.1415
      9 C          -2.2670    0.7750    0.0000 C.2     1  LIG1        0.3199
     10 O          -3.1330    1.2630    0.0000 O.2     1  LIG1       -0.2500
     11 O          -1.4040    1.2630    0.0000 O.3     1  LIG1       -0.4443
     12 C          -1.4040    2.2540    0.0000 C.3     1  LIG1        0.2556
     13 C          -3.1330   -1.7580    0.0000 C.2     1  LIG1        0.0012
     14 C          -2.2670   -2.2500    0.0000 C.2     1  LIG1        0.0002
     15 C           1.1460   -1.2580    0.0000 C.ar    1  LIG1        0.0499
     16 C           1.6500   -0.3960    0.0000 C.ar    1  LIG1       -0.0082
     17 C           1.1380    0.4880    0.0000 C.3     1  LIG1        0.0323
     18 C           2.6290   -0.3960    0.0000 C.ar    1  LIG1       -0.0030
     19 C           3.1290   -1.2710    0.0000 C.ar    1  LIG1       -0.0002
     20 C           2.6290   -2.1250    0.0000 C.ar    1  LIG1        0.0013
     21 C           1.6330   -2.1250    0.0000 C.ar    1  LIG1        0.0146
     22 O          -0.1540    0.5170    0.0000 O.2     1  LIG1       -0.2744
@<TRIPOS>BOND
     1     1     2    1
     2     1     5    1
     3     1     8    1
     4     2     3   am
     5     2    22    2
     6     3     4    1
     7     3    15    1
     8     4     5    1
     9     5     6    1
    10     5    14    1
    11     6     7    1
    12     7     8    1
    13     7    13    1
    14     8     9    1
    15     9    10    2
    16     9    11    1
    17    11    12    1
    18    13    14    2
    19    15    16   ar
    20    15    21   ar
    21    16    17    1
    22    16    18   ar
    23    18    19   ar
    24    19    20   ar
    25    20    21   ar
