@<TRIPOS>MOLECULE
32190_ChemDiv_5785-0907
 27 29 0 0 0
SMALL
GASTEIGER
Energy = 0

@<TRIPOS>ATOM
      1 C           0.9960    0.4500    0.0000 C.ar    1  LIG1        0.1457
      2 C           0.0210    0.6750    0.0000 C.ar    1  LIG1        0.2954
      3 N          -0.0630    1.6500    0.0000 N.ar    1  LIG1       -0.2134
      4 N           0.8290    2.0500    0.0000 N.ar    1  LIG1       -0.2646
      5 C           1.5000    1.2960    0.0000 C.ar    1  LIG1        0.0746
      6 C           2.5040    1.4040    0.0000 C.3     1  LIG1        0.0532
      7 C           1.0330    3.0460    0.0000 C.3     1  LIG1        0.1518
      8 C          -0.8710    2.2330    0.0000 C.ar    1  LIG1        0.0841
      9 C          -1.8460    2.0290    0.0000 C.ar    1  LIG1        0.0192
     10 C          -2.5080    2.7830    0.0000 C.ar    1  LIG1        0.0015
     11 C          -2.2040    3.7080    0.0000 C.ar    1  LIG1        0.0001
     12 C          -1.2290    3.9080    0.0000 C.ar    1  LIG1        0.0015
     13 C          -0.5670    3.1750    0.0000 C.ar    1  LIG1        0.0192
     14 O          -0.7540    0.0040    0.0000 O.2     1  LIG1       -0.2637
     15 N           1.5000   -0.4130    0.0000 N.pl3   1  LIG1       -0.1513
     16 P           0.9960   -1.3080    0.0000 P.3     1  LIG1        0.3648
     17 O           0.4880   -2.1580    0.0000 O.3     1  LIG1       -0.4239
     18 C          -0.5130   -2.1580    0.0000 C.ar    1  LIG1        0.1797
     19 C          -1.0170   -3.0000    0.0000 C.ar    1  LIG1        0.1728
     20 O          -0.5130   -3.9040    0.0000 O.3     1  LIG1       -0.4684
     21 C           0.5080   -3.9040    0.0000 C.3     1  LIG1        0.2526
     22 C          -2.0000   -3.0000    0.0000 C.ar    1  LIG1        0.0401
     23 C          -2.5080   -2.1580    0.0000 C.ar    1  LIG1        0.0033
     24 C          -2.0000   -1.2710    0.0000 C.ar    1  LIG1        0.0033
     25 C          -1.0170   -1.2920    0.0000 C.ar    1  LIG1        0.0405
     26 O           1.8630   -1.8080    0.0000 O.2     1  LIG1       -0.2524
     27 C           0.1210   -0.7880    0.0000 C.3     1  LIG1        0.1340
@<TRIPOS>BOND
     1     1     2   ar
     2     1     5   ar
     3     1    15    1
     4     2     3   ar
     5     2    14    2
     6     3     4   ar
     7     3     8    1
     8     4     5   ar
     9     4     7    1
    10     5     6    1
    11     8     9   ar
    12     8    13   ar
    13     9    10   ar
    14    10    11   ar
    15    11    12   ar
    16    12    13   ar
    17    15    16    1
    18    16    17    1
    19    16    26    2
    20    16    27    1
    21    17    18    1
    22    18    19   ar
    23    18    25   ar
    24    19    20    1
    25    19    22   ar
    26    20    21    1
    27    22    23   ar
    28    23    24   ar
    29    24    25   ar
