@<TRIPOS>MOLECULE
32196_ChemDiv_5947-0059
 24 26 0 0 0
SMALL
GASTEIGER
Energy = 0

@<TRIPOS>ATOM
      1 C           0.0080   -1.2250    0.0000 C.ar    1  LIG1        0.2287
      2 C           0.0080   -0.2210    0.0000 C.ar    1  LIG1        0.1243
      3 C          -0.8540    0.2880    0.0000 C.ar    1  LIG1        0.2044
      4 C          -1.7460   -0.2210    0.0000 C.ar    1  LIG1        0.0735
      5 C          -1.7460   -1.2250    0.0000 C.ar    1  LIG1        0.1500
      6 O          -0.8540   -1.7330    0.0000 O.2     1  LIG1       -0.4379
      7 C          -2.6040   -1.7330    0.0000 C.ar    1  LIG1        0.0377
      8 C          -3.4630   -1.2250    0.0000 C.ar    1  LIG1        0.0031
      9 C          -3.4630   -0.2210    0.0000 C.ar    1  LIG1        0.0003
     10 C          -2.6040    0.2880    0.0000 C.ar    1  LIG1        0.0062
     11 O          -0.8540    1.2830    0.0000 O.2     1  LIG1       -0.2864
     12 C           0.8750    0.2880    0.0000 C.3     1  LIG1        0.1742
     13 N           0.8750    1.2830    0.0000 N.4     1  LIG1        0.3849
     14 C           0.0080    1.7670    0.0000 C.3     1  LIG1        0.1718
     15 C           0.0080    2.7670    0.0000 C.3     1  LIG1        0.2048
     16 O           0.8750    3.2500    0.0000 O.3     1  LIG1       -0.3411
     17 C           1.7330    2.7670    0.0000 C.3     1  LIG1        0.2048
     18 C           1.7330    1.7670    0.0000 C.3     1  LIG1        0.1718
     19 N           0.8750   -1.7630    0.0000 N.am    1  LIG1       -0.1071
     20 C           0.8750   -2.7580    0.0000 C.2     1  LIG1        0.4279
     21 O           0.0080   -3.2460    0.0000 O.2     1  LIG1       -0.2241
     22 O           1.7330   -3.2460    0.0000 O.3     1  LIG1       -0.4333
     23 C           2.6000   -2.7580    0.0000 C.3     1  LIG1        0.2103
     24 C           3.4580   -3.2460    0.0000 C.3     1  LIG1        0.0513
@<TRIPOS>BOND
     1     1     2   ar
     2     1     6   ar
     3     1    19    1
     4     2     3   ar
     5     2    12    1
     6     3     4   ar
     7     3    11    2
     8     4     5   ar
     9     4    10   ar
    10     5     6   ar
    11     5     7   ar
    12     7     8   ar
    13     8     9   ar
    14     9    10   ar
    15    12    13    1
    16    13    14    1
    17    13    18    1
    18    14    15    1
    19    15    16    1
    20    16    17    1
    21    17    18    1
    22    19    20   am
    23    20    21    2
    24    20    22    1
    25    22    23    1
    26    23    24    1
