@<TRIPOS>MOLECULE
32192_ChemDiv_5785-1673
 19 20 0 0 0
SMALL
GASTEIGER
Energy = 0

@<TRIPOS>ATOM
      1 N           1.9790    0.1750    0.0000 N.ar    1  LIG1       -0.2058
      2 C           1.7500   -0.8130    0.0000 C.ar    1  LIG1        0.2048
      3 N           0.8750   -1.3000    0.0000 N.am    1  LIG1       -0.1493
      4 C           0.0250   -0.8130    0.0000 C.2     1  LIG1        0.2707
      5 C          -0.8500   -1.3130    0.0000 C.ar    1  LIG1        0.0556
      6 C          -1.7080   -0.8130    0.0000 C.ar    1  LIG1        0.0069
      7 C          -2.5830   -1.3000    0.0000 C.ar    1  LIG1        0.0298
      8 C          -2.5830   -2.3170    0.0000 C.ar    1  LIG1        0.1401
      9 C          -1.7080   -2.8000    0.0000 C.ar    1  LIG1        0.0298
     10 C          -0.8500   -2.3170    0.0000 C.ar    1  LIG1        0.0069
     11 F          -3.4580   -2.8420    0.0000 F       1  LIG1       -0.2042
     12 O           0.0420    0.2080    0.0000 O.2     1  LIG1       -0.2679
     13 S           2.6250   -1.3130    0.0000 S.2     1  LIG1        0.0509
     14 N           3.3670   -0.6540    0.0000 N.ar    1  LIG1       -0.1913
     15 C           2.9630    0.2630    0.0000 C.ar    1  LIG1        0.1564
     16 C           3.4540    1.1380    0.0000 C.3     1  LIG1        0.1307
     17 C           2.9630    1.9880    0.0000 C.2     1  LIG1        0.1587
     18 O           1.9670    1.9710    0.0000 O.2     1  LIG1       -0.2956
     19 C           3.4540    2.8460    0.0000 C.3     1  LIG1        0.0727
@<TRIPOS>BOND
     1     1     2   ar
     2     1    15   ar
     3     2     3    1
     4     2    13   ar
     5     3     4   am
     6     4     5    1
     7     4    12    2
     8     5     6   ar
     9     5    10   ar
    10     6     7   ar
    11     7     8   ar
    12     8     9   ar
    13     8    11    1
    14     9    10   ar
    15    13    14   ar
    16    14    15   ar
    17    15    16    1
    18    16    17    1
    19    17    18    2
    20    17    19    1
