@<TRIPOS>MOLECULE
32191_ChemDiv_C875-0020
 23 25 0 0 0
SMALL
GASTEIGER
Energy = 0

@<TRIPOS>ATOM
      1 C           0.1210    1.3500    0.0000 C.ar    1  LIG1        0.1906
      2 N          -0.4630    2.1540    0.0000 N.ar    1  LIG1       -0.2196
      3 C          -1.4170    1.8500    0.0000 C.ar    1  LIG1        0.1042
      4 C          -1.4170    0.8460    0.0000 C.ar    1  LIG1        0.1202
      5 N          -0.4630    0.5460    0.0000 N.ar    1  LIG1       -0.2181
      6 C          -2.2750    0.3460    0.0000 C.ar    1  LIG1        0.1195
      7 N          -3.1460    0.8460    0.0000 N.ar    1  LIG1       -0.2406
      8 C          -3.1460    1.8500    0.0000 C.ar    1  LIG1        0.1005
      9 C          -2.2750    2.3500    0.0000 C.ar    1  LIG1        0.0414
     10 S           1.1210    1.3210    0.0000 S.3     1  LIG1       -0.0658
     11 C           1.6290    2.1830    0.0000 C.3     1  LIG1        0.1519
     12 C           2.6420    2.1670    0.0000 C.2     1  LIG1        0.2570
     13 N           3.1420    1.3130    0.0000 N.am    1  LIG1       -0.1785
     14 C           2.6420    0.4380    0.0000 C.ar    1  LIG1        0.0735
     15 C           3.1420   -0.4210    0.0000 C.ar    1  LIG1        0.0179
     16 C           2.6420   -1.3000    0.0000 C.ar    1  LIG1        0.0159
     17 C           1.6380   -1.2880    0.0000 C.ar    1  LIG1        0.0480
     18 N           1.1250   -2.1670    0.0000 N.pl3   1  LIG1       -0.3041
     19 C           1.6290   -3.0250    0.0000 C.3     1  LIG1        0.1122
     20 C           0.1250   -2.1670    0.0000 C.3     1  LIG1        0.1122
     21 C           1.1380   -0.4210    0.0000 C.ar    1  LIG1        0.0159
     22 C           1.6380    0.4380    0.0000 C.ar    1  LIG1        0.0179
     23 O           3.1420    3.0290    0.0000 O.2     1  LIG1       -0.2720
@<TRIPOS>BOND
     1     1     2   ar
     2     1     5   ar
     3     1    10    1
     4     2     3   ar
     5     3     4   ar
     6     3     9   ar
     7     4     5   ar
     8     4     6   ar
     9     6     7   ar
    10     7     8   ar
    11     8     9   ar
    12    10    11    1
    13    11    12    1
    14    12    13   am
    15    12    23    2
    16    13    14    1
    17    14    15   ar
    18    14    22   ar
    19    15    16   ar
    20    16    17   ar
    21    17    18    1
    22    17    21   ar
    23    18    19    1
    24    18    20    1
    25    21    22   ar
