@<TRIPOS>MOLECULE
32193_ChemDiv_5618-4244
 26 30 0 0 0
SMALL
GASTEIGER
Energy = 0

@<TRIPOS>ATOM
      1 C          -1.6960   -0.3130    0.0000 C.ar    1  LIG1        0.0216
      2 C          -1.6960   -1.2880    0.0000 C.ar    1  LIG1        0.0944
      3 N          -2.5210   -1.7500    0.0000 N.2     1  LIG1       -0.2481
      4 C          -3.3540   -1.2670    0.0000 C.2     1  LIG1        0.0634
      5 C          -3.3540   -0.3000    0.0000 C.2     1  LIG1        0.0154
      6 C          -4.1750    0.1710    0.0000 C.2     1  LIG1        0.0009
      7 C          -5.0000   -0.3130    0.0000 C.2     1  LIG1       -0.0041
      8 C          -5.0000   -1.2580    0.0000 C.2     1  LIG1       -0.0198
      9 C          -4.1750   -1.7330    0.0000 C.3     1  LIG1        0.0717
     10 C          -0.8420   -1.7920    0.0000 C.ar    1  LIG1        0.0770
     11 N           0.0130   -1.3040    0.0000 N.ar    1  LIG1       -0.2435
     12 C           0.0130   -0.3130    0.0000 C.ar    1  LIG1        0.1362
     13 C           0.8750    0.1790    0.0000 C.2     1  LIG1        0.2867
     14 N           1.7250   -0.3130    0.0000 N.am    1  LIG1       -0.1741
     15 C           2.5750    0.1830    0.0000 C.ar    1  LIG1        0.0753
     16 C           2.5630    1.1670    0.0000 C.ar    1  LIG1        0.0380
     17 C           3.4040    1.6790    0.0000 C.ar    1  LIG1        0.1101
     18 C           4.2710    1.2130    0.0000 C.ar    1  LIG1        0.1089
     19 N           4.9960    1.8880    0.0000 N.ar    1  LIG1       -0.1901
     20 S           4.5580    2.7790    0.0000 S.2     1  LIG1        0.1165
     21 N           3.5880    2.6500    0.0000 N.ar    1  LIG1       -0.1901
     22 C           4.2920    0.2170    0.0000 C.ar    1  LIG1        0.0227
     23 C           3.4460   -0.2920    0.0000 C.ar    1  LIG1        0.0183
     24 O           0.8750    1.1670    0.0000 O.2     1  LIG1       -0.2663
     25 C          -0.8330    0.1790    0.0000 C.ar    1  LIG1        0.0253
     26 C          -0.8460   -2.7750    0.0000 C.3     1  LIG1        0.0537
@<TRIPOS>BOND
     1     1     2   ar
     2     1     5    1
     3     1    25   ar
     4     2     3    1
     5     2    10   ar
     6     3     4    2
     7     4     5    1
     8     4     9    1
     9     5     6    2
    10     6     7    1
    11     7     8    2
    12     8     9    1
    13    10    11   ar
    14    10    26    1
    15    11    12   ar
    16    12    13    1
    17    12    25   ar
    18    13    14   am
    19    13    24    2
    20    14    15    1
    21    15    16   ar
    22    15    23   ar
    23    16    17   ar
    24    17    18   ar
    25    17    21   ar
    26    18    19   ar
    27    18    22   ar
    28    19    20   ar
    29    20    21   ar
    30    22    23   ar
