@<TRIPOS>MOLECULE
32195_ChemDiv_5628-0973
 24 27 0 0 0
SMALL
GASTEIGER
Energy = 0

@<TRIPOS>ATOM
      1 C          -1.2040   -0.5500    0.0000 C.ar    1  LIG1        0.1090
      2 C          -0.3580   -0.0290    0.0000 C.2     1  LIG1        0.2750
      3 N           0.5460   -0.4920    0.0000 N.am    1  LIG1       -0.1504
      4 C           1.3960    0.0380    0.0000 C.ar    1  LIG1        0.1854
      5 N           1.4830    1.0250    0.0000 N.ar    1  LIG1       -0.2272
      6 C           2.4710    1.2580    0.0000 C.ar    1  LIG1        0.0630
      7 C           2.9750    0.4000    0.0000 C.ar    1  LIG1        0.0235
      8 S           2.2960   -0.3580    0.0000 S.2     1  LIG1       -0.0544
      9 C           3.9790    0.4000    0.0000 C.3     1  LIG1        0.0343
     10 C           4.4880    1.2580    0.0000 C.3     1  LIG1        0.0057
     11 C           3.9790    2.1380    0.0000 C.3     1  LIG1        0.0067
     12 C           2.9750    2.1380    0.0000 C.3     1  LIG1        0.0461
     13 O          -0.3750    0.9880    0.0000 O.2     1  LIG1       -0.2678
     14 C          -2.1670   -0.2580    0.0000 C.ar    1  LIG1        0.1270
     15 N          -2.7170   -1.0790    0.0000 N.ar    1  LIG1       -0.0772
     16 O          -2.1290   -1.8630    0.0000 O.2     1  LIG1       -0.3576
     17 C          -1.1830   -1.5330    0.0000 C.ar    1  LIG1        0.1592
     18 C          -0.3290   -2.1330    0.0000 C.3     1  LIG1        0.0755
     19 C          -2.8500    0.4630    0.0000 C.ar    1  LIG1        0.0211
     20 C          -2.5670    1.4210    0.0000 C.ar    1  LIG1        0.0016
     21 C          -3.2630    2.1380    0.0000 C.ar    1  LIG1        0.0000
     22 C          -4.2080    1.9130    0.0000 C.ar    1  LIG1        0.0000
     23 C          -4.4920    0.9540    0.0000 C.ar    1  LIG1        0.0000
     24 C          -3.8130    0.2330    0.0000 C.ar    1  LIG1        0.0016
@<TRIPOS>BOND
     1     1     2    1
     2     1    14   ar
     3     1    17   ar
     4     2     3   am
     5     2    13    2
     6     3     4    1
     7     4     5   ar
     8     4     8   ar
     9     5     6   ar
    10     6     7   ar
    11     6    12    1
    12     7     8   ar
    13     7     9    1
    14     9    10    1
    15    10    11    1
    16    11    12    1
    17    14    15   ar
    18    14    19    1
    19    15    16   ar
    20    16    17   ar
    21    17    18    1
    22    19    20   ar
    23    19    24   ar
    24    20    21   ar
    25    21    22   ar
    26    22    23   ar
    27    23    24   ar
