@<TRIPOS>MOLECULE
32197_ChemDiv_6040-4545
 28 31 0 0 0
SMALL
GASTEIGER
Energy = 0

@<TRIPOS>ATOM
      1 C          -2.0170   -0.5080    0.0000 C.ar    1  LIG1        0.1091
      2 C          -1.9500   -1.5040    0.0000 C.ar    1  LIG1        0.1278
      3 N          -2.9040   -1.8710    0.0000 N.ar    1  LIG1       -0.0772
      4 O          -3.4960   -1.0750    0.0000 O.2     1  LIG1       -0.3576
      5 C          -2.9630   -0.2460    0.0000 C.ar    1  LIG1        0.1592
      6 C          -3.3170    0.6830    0.0000 C.3     1  LIG1        0.0755
      7 C          -1.5080   -2.4000    0.0000 C.ar    1  LIG1        0.0316
      8 C          -2.0580   -3.2290    0.0000 C.ar    1  LIG1        0.0592
      9 CL         -3.0710   -3.1960    0.0000 Cl      1  LIG1       -0.0822
     10 C          -1.6170   -4.1540    0.0000 C.ar    1  LIG1        0.0114
     11 C          -0.6000   -4.2250    0.0000 C.ar    1  LIG1        0.0009
     12 C          -0.0460   -3.3630    0.0000 C.ar    1  LIG1        0.0001
     13 C          -0.4880   -2.4710    0.0000 C.ar    1  LIG1        0.0024
     14 C          -1.3040    0.1830    0.0000 C.2     1  LIG1        0.2750
     15 N          -0.3330   -0.0790    0.0000 N.am    1  LIG1       -0.1504
     16 C           0.3750    0.6170    0.0000 C.ar    1  LIG1        0.1858
     17 N           0.2460    1.5790    0.0000 N.ar    1  LIG1       -0.2268
     18 C           1.1040    2.0420    0.0000 C.ar    1  LIG1        0.0697
     19 C           1.8130    1.3170    0.0000 C.ar    1  LIG1        0.0803
     20 S           1.3670    0.4500    0.0000 S.2     1  LIG1       -0.0472
     21 C           2.7880    1.5790    0.0000 C.2     1  LIG1        0.1802
     22 C           3.0500    2.5460    0.0000 C.3     1  LIG1        0.0701
     23 C           2.3210    3.2630    0.0000 C.3     1  LIG1        0.0129
     24 C           1.3670    3.0040    0.0000 C.3     1  LIG1        0.0469
     25 C           3.0290    3.9630    0.0000 C.3     1  LIG1        0.0008
     26 C           2.3210    4.2250    0.0000 C.3     1  LIG1        0.0008
     27 O           3.4920    0.8460    0.0000 O.2     1  LIG1       -0.2908
     28 O          -1.5460    1.1500    0.0000 O.2     1  LIG1       -0.2678
@<TRIPOS>BOND
     1     1     2   ar
     2     1     5   ar
     3     1    14    1
     4     2     3   ar
     5     2     7    1
     6     3     4   ar
     7     4     5   ar
     8     5     6    1
     9     7     8   ar
    10     7    13   ar
    11     8     9    1
    12     8    10   ar
    13    10    11   ar
    14    11    12   ar
    15    12    13   ar
    16    14    15   am
    17    14    28    2
    18    15    16    1
    19    16    17   ar
    20    16    20   ar
    21    17    18   ar
    22    18    19   ar
    23    18    24    1
    24    19    20   ar
    25    19    21    1
    26    21    22    1
    27    21    27    2
    28    22    23    1
    29    23    24    1
    30    23    25    1
    31    23    26    1
