@<TRIPOS>MOLECULE
32208_ChemDiv_5954-1862
 27 30 0 0 0
SMALL
GASTEIGER
Energy = 0

@<TRIPOS>ATOM
      1 S          -0.8460    0.7250    0.0000 S.O2    1  LIG1        0.0665
      2 N           0.0380    0.2250    0.0000 N.3     1  LIG1       -0.1287
      3 C           0.0380   -0.7750    0.0000 C.3     1  LIG1        0.1940
      4 N          -0.8460   -1.3210    0.0000 N.pl3   1  LIG1       -0.2156
      5 C          -1.7380   -0.7960    0.0000 C.ar    1  LIG1        0.0857
      6 C          -1.7210    0.2250    0.0000 C.ar    1  LIG1        0.1370
      7 C          -2.6170    0.7250    0.0000 C.ar    1  LIG1        0.0212
      8 C          -3.5000    0.2080    0.0000 C.ar    1  LIG1        0.0015
      9 C          -3.5000   -0.8080    0.0000 C.ar    1  LIG1        0.0014
     10 C          -2.6170   -1.3210    0.0000 C.ar    1  LIG1        0.0175
     11 C           0.9040   -1.2580    0.0000 C.ar    1  LIG1        0.0141
     12 C           0.9170   -2.2330    0.0000 C.ar    1  LIG1       -0.0015
     13 C           1.7630   -2.7130    0.0000 C.ar    1  LIG1       -0.0045
     14 C           2.6000   -2.2210    0.0000 C.ar    1  LIG1       -0.0222
     15 C           2.5960   -1.2420    0.0000 C.ar    1  LIG1       -0.0045
     16 C           1.7420   -0.7580    0.0000 C.ar    1  LIG1       -0.0015
     17 C           3.4710   -2.7000    0.0000 C.3     1  LIG1        0.0264
     18 C           3.4960   -3.6750    0.0000 C.3     1  LIG1        0.0050
     19 C           0.9210    0.7210    0.0000 C.3     1  LIG1        0.1243
     20 C           0.9210    1.7080    0.0000 C.ar    1  LIG1       -0.0044
     21 C           0.0790    2.2040    0.0000 C.ar    1  LIG1       -0.0029
     22 C           0.0790    3.1790    0.0000 C.ar    1  LIG1       -0.0003
     23 C           0.9210    3.6790    0.0000 C.ar    1  LIG1       -0.0000
     24 C           1.7750    3.1830    0.0000 C.ar    1  LIG1       -0.0003
     25 C           1.7750    2.2040    0.0000 C.ar    1  LIG1       -0.0029
     26 O          -0.1250    1.4580    0.0000 O.2     1  LIG1       -0.1527
     27 O          -1.5790    1.4580    0.0000 O.2     1  LIG1       -0.1527
@<TRIPOS>BOND
     1     1     2    1
     2     1     6    1
     3     1    26    2
     4     1    27    2
     5     2     3    1
     6     2    19    1
     7     3     4    1
     8     3    11    1
     9     4     5    1
    10     5     6   ar
    11     5    10   ar
    12     6     7   ar
    13     7     8   ar
    14     8     9   ar
    15     9    10   ar
    16    11    12   ar
    17    11    16   ar
    18    12    13   ar
    19    13    14   ar
    20    14    15   ar
    21    14    17    1
    22    15    16   ar
    23    17    18    1
    24    19    20    1
    25    20    21   ar
    26    20    25   ar
    27    21    22   ar
    28    22    23   ar
    29    23    24   ar
    30    24    25   ar
