@<TRIPOS>MOLECULE
32201_ChemDiv_5629-2096
 35 40 0 0 0
SMALL
GASTEIGER
Energy = 0

@<TRIPOS>ATOM
      1 N           1.4380    0.9960    0.0000 N.ar    1  LIG1       -0.1689
      2 C           1.1330    0.0500    0.0000 C.ar    1  LIG1        0.1998
      3 N           1.9500   -0.5380    0.0000 N.ar    1  LIG1       -0.2000
      4 C           2.7540    0.0500    0.0000 C.ar    1  LIG1        0.1842
      5 N           2.4420    0.9960    0.0000 N.ar    1  LIG1       -0.1412
      6 C           3.7130   -0.2630    0.0000 C.ar    1  LIG1        0.0406
      7 C           3.9130   -1.2500    0.0000 C.ar    1  LIG1        0.0238
      8 C           4.8750   -1.5630    0.0000 C.ar    1  LIG1        0.0990
      9 N           5.6210   -0.8790    0.0000 N.ar    1  LIG1       -0.2423
     10 C           5.4000    0.1170    0.0000 C.ar    1  LIG1        0.0990
     11 C           4.4460    0.4000    0.0000 C.ar    1  LIG1        0.0238
     12 S           0.1290    0.0500    0.0000 S.2     1  LIG1       -0.0443
     13 C          -0.1830    0.9960    0.0000 C.ar    1  LIG1        0.0825
     14 C           0.6420    1.5880    0.0000 C.ar    1  LIG1        0.2875
     15 O           0.6420    2.5920    0.0000 O.2     1  LIG1       -0.2646
     16 C          -1.1420    1.3130    0.0000 C.2     1  LIG1       -0.0312
     17 C          -1.8710    0.6500    0.0000 C.ar    1  LIG1        0.0314
     18 C          -2.8500    0.8500    0.0000 C.ar    1  LIG1        0.1021
     19 N          -3.3420   -0.0250    0.0000 N.ar    1  LIG1       -0.1651
     20 N          -2.6880   -0.7580    0.0000 N.ar    1  LIG1       -0.2282
     21 C          -1.7710   -0.3670    0.0000 C.ar    1  LIG1        0.1013
     22 C          -2.8290   -1.7630    0.0000 C.ar    1  LIG1        0.0828
     23 C          -2.0630   -2.3960    0.0000 C.ar    1  LIG1        0.0191
     24 C          -2.2330   -3.3630    0.0000 C.ar    1  LIG1        0.0015
     25 C          -3.1330   -3.7250    0.0000 C.ar    1  LIG1        0.0001
     26 C          -3.9170   -3.1040    0.0000 C.ar    1  LIG1        0.0015
     27 C          -3.7460   -2.1040    0.0000 C.ar    1  LIG1        0.0191
     28 C          -3.5330    1.5670    0.0000 C.ar    1  LIG1        0.0194
     29 C          -3.2330    2.5330    0.0000 C.ar    1  LIG1        0.0012
     30 C          -3.9380    3.2380    0.0000 C.ar    1  LIG1       -0.0042
     31 C          -4.9290    2.9960    0.0000 C.ar    1  LIG1       -0.0218
     32 C          -5.1960    2.0580    0.0000 C.ar    1  LIG1       -0.0042
     33 C          -4.5170    1.3330    0.0000 C.ar    1  LIG1        0.0012
     34 C          -5.6250    3.7290    0.0000 C.3     1  LIG1        0.0310
     35 H          -1.3420    2.2790    0.0000 H       1  LIG1        0.0638
@<TRIPOS>BOND
     1     1     2   ar
     2     1     5   ar
     3     1    14   ar
     4     2     3   ar
     5     2    12   ar
     6     3     4   ar
     7     4     5   ar
     8     4     6    1
     9     6     7   ar
    10     6    11   ar
    11     7     8   ar
    12     8     9   ar
    13     9    10   ar
    14    10    11   ar
    15    12    13   ar
    16    13    14   ar
    17    13    16    2
    18    14    15    2
    19    16    17    1
    20    16    35    1
    21    17    18   ar
    22    17    21   ar
    23    18    19   ar
    24    18    28    1
    25    19    20   ar
    26    20    21   ar
    27    20    22    1
    28    22    23   ar
    29    22    27   ar
    30    23    24   ar
    31    24    25   ar
    32    25    26   ar
    33    26    27   ar
    34    28    29   ar
    35    28    33   ar
    36    29    30   ar
    37    30    31   ar
    38    31    32   ar
    39    31    34    1
    40    32    33   ar
