@<TRIPOS>MOLECULE
32204_ChemDiv_5954-0276
 27 30 0 0 0
SMALL
GASTEIGER
Energy = 0

@<TRIPOS>ATOM
      1 S          -0.8460    0.2630    0.0000 S.O2    1  LIG1        0.0665
      2 N           0.0330   -0.2330    0.0000 N.3     1  LIG1       -0.1287
      3 C           0.0330   -1.2290    0.0000 C.3     1  LIG1        0.1949
      4 N          -0.8460   -1.7710    0.0000 N.pl3   1  LIG1       -0.2155
      5 C          -1.7290   -1.2500    0.0000 C.ar    1  LIG1        0.0857
      6 C          -1.7170   -0.2330    0.0000 C.ar    1  LIG1        0.1370
      7 C          -2.6040    0.2630    0.0000 C.ar    1  LIG1        0.0212
      8 C          -3.4880   -0.2500    0.0000 C.ar    1  LIG1        0.0015
      9 C          -3.4880   -1.2630    0.0000 C.ar    1  LIG1        0.0014
     10 C          -2.6040   -1.7710    0.0000 C.ar    1  LIG1        0.0175
     11 C           0.8960   -1.7130    0.0000 C.ar    1  LIG1        0.0247
     12 C           1.7460   -1.2130    0.0000 C.ar    1  LIG1        0.0575
     13 C           2.6000   -1.6920    0.0000 C.ar    1  LIG1        0.0226
     14 C           2.6170   -2.6790    0.0000 C.ar    1  LIG1        0.0585
     15 C           1.7500   -3.2000    0.0000 C.ar    1  LIG1        0.0112
     16 C           0.9080   -2.7040    0.0000 C.ar    1  LIG1        0.0005
     17 CL          3.4830   -3.1830    0.0000 Cl      1  LIG1       -0.0822
     18 CL          1.7460   -0.2130    0.0000 Cl      1  LIG1       -0.0824
     19 C           0.9170    0.2580    0.0000 C.3     1  LIG1        0.1243
     20 C           0.9170    1.2420    0.0000 C.ar    1  LIG1       -0.0044
     21 C           1.7670    1.7330    0.0000 C.ar    1  LIG1       -0.0029
     22 C           1.7670    2.7080    0.0000 C.ar    1  LIG1       -0.0003
     23 C           0.9170    3.2040    0.0000 C.ar    1  LIG1       -0.0000
     24 C           0.0750    2.7040    0.0000 C.ar    1  LIG1       -0.0003
     25 C           0.0750    1.7330    0.0000 C.ar    1  LIG1       -0.0029
     26 O          -0.1290    0.9960    0.0000 O.2     1  LIG1       -0.1527
     27 O          -1.5750    0.9960    0.0000 O.2     1  LIG1       -0.1527
@<TRIPOS>BOND
     1     1     2    1
     2     1     6    1
     3     1    26    2
     4     1    27    2
     5     2     3    1
     6     2    19    1
     7     3     4    1
     8     3    11    1
     9     4     5    1
    10     5     6   ar
    11     5    10   ar
    12     6     7   ar
    13     7     8   ar
    14     8     9   ar
    15     9    10   ar
    16    11    12   ar
    17    11    16   ar
    18    12    13   ar
    19    12    18    1
    20    13    14   ar
    21    14    15   ar
    22    14    17    1
    23    15    16   ar
    24    19    20    1
    25    20    21   ar
    26    20    25   ar
    27    21    22   ar
    28    22    23   ar
    29    23    24   ar
    30    24    25   ar
