@<TRIPOS>MOLECULE
32218_ChemDiv_C200-1573
 18 19 0 0 0
SMALL
GASTEIGER
Energy = 0

@<TRIPOS>ATOM
      1 N           0.9460   -0.3790    0.0000 N.ar    1  LIG1       -0.2062
      2 C           0.1250    0.2000    0.0000 C.ar    1  LIG1        0.2048
      3 N          -0.8210   -0.1250    0.0000 N.am    1  LIG1       -0.1466
      4 C          -1.5710    0.5290    0.0000 C.2     1  LIG1        0.3055
      5 C          -2.5250    0.2000    0.0000 C.ar    1  LIG1        0.2012
      6 O          -2.8130   -0.7540    0.0000 O.2     1  LIG1       -0.4423
      7 C          -3.8080   -0.7710    0.0000 C.ar    1  LIG1        0.1793
      8 C          -4.1330    0.1710    0.0000 C.ar    1  LIG1        0.0478
      9 C          -3.3330    0.7750    0.0000 C.ar    1  LIG1        0.0460
     10 BR         -4.3920   -1.5880    0.0000 Br      1  LIG1       -0.0078
     11 O          -1.3880    1.5080    0.0000 O.2     1  LIG1       -0.2646
     12 S           0.4130    1.1500    0.0000 S.2     1  LIG1        0.0509
     13 N           1.4130    1.1790    0.0000 N.ar    1  LIG1       -0.1916
     14 C           1.7460    0.2290    0.0000 C.ar    1  LIG1        0.1516
     15 C           2.7040   -0.0670    0.0000 C.3     1  LIG1        0.0992
     16 C           3.4290    0.6130    0.0000 C.3     1  LIG1        0.1596
     17 O           4.3880    0.3170    0.0000 O.3     1  LIG1       -0.2227
     18 C           3.2130    1.5920    0.0000 C.3     1  LIG1        0.0360
@<TRIPOS>BOND
     1     1     2   ar
     2     1    14   ar
     3     2     3    1
     4     2    12   ar
     5     3     4   am
     6     4     5    1
     7     4    11    2
     8     5     6   ar
     9     5     9   ar
    10     6     7   ar
    11     7     8   ar
    12     7    10    1
    13     8     9   ar
    14    12    13   ar
    15    13    14   ar
    16    14    15    1
    17    15    16    1
    18    16    17    1
    19    16    18    1
