@<TRIPOS>MOLECULE
32217_ChemDiv_C875-0058
 22 24 0 0 0
SMALL
GASTEIGER
Energy = 0

@<TRIPOS>ATOM
      1 C           0.1170    1.3540    0.0000 C.ar    1  LIG1        0.1906
      2 N          -0.4670    2.1580    0.0000 N.ar    1  LIG1       -0.2196
      3 C          -1.4170    1.8540    0.0000 C.ar    1  LIG1        0.1042
      4 C          -1.4170    0.8540    0.0000 C.ar    1  LIG1        0.1202
      5 N          -0.4670    0.5540    0.0000 N.ar    1  LIG1       -0.2181
      6 C          -2.2790    0.3540    0.0000 C.ar    1  LIG1        0.1195
      7 N          -3.1460    0.8540    0.0000 N.ar    1  LIG1       -0.2406
      8 C          -3.1460    1.8540    0.0000 C.ar    1  LIG1        0.1005
      9 C          -2.2790    2.3540    0.0000 C.ar    1  LIG1        0.0414
     10 S           1.1170    1.3250    0.0000 S.3     1  LIG1       -0.0658
     11 C           1.6250    2.1880    0.0000 C.3     1  LIG1        0.1519
     12 C           2.6380    2.1710    0.0000 C.2     1  LIG1        0.2570
     13 N           3.1380    1.3210    0.0000 N.am    1  LIG1       -0.1784
     14 C           2.6380    0.4420    0.0000 C.ar    1  LIG1        0.0739
     15 C           3.1380   -0.4170    0.0000 C.ar    1  LIG1        0.0227
     16 C           2.6380   -1.2830    0.0000 C.ar    1  LIG1        0.0265
     17 S           3.1420   -2.1630    0.0000 S.3     1  LIG1       -0.1127
     18 C           2.6420   -3.0290    0.0000 C.3     1  LIG1        0.0742
     19 C           1.6380   -1.2830    0.0000 C.ar    1  LIG1        0.0062
     20 C           1.1380   -0.4170    0.0000 C.ar    1  LIG1        0.0018
     21 C           1.6380    0.4420    0.0000 C.ar    1  LIG1        0.0166
     22 O           3.1380    3.0330    0.0000 O.2     1  LIG1       -0.2720
@<TRIPOS>BOND
     1     1     2   ar
     2     1     5   ar
     3     1    10    1
     4     2     3   ar
     5     3     4   ar
     6     3     9   ar
     7     4     5   ar
     8     4     6   ar
     9     6     7   ar
    10     7     8   ar
    11     8     9   ar
    12    10    11    1
    13    11    12    1
    14    12    13   am
    15    12    22    2
    16    13    14    1
    17    14    15   ar
    18    14    21   ar
    19    15    16   ar
    20    16    17    1
    21    16    19   ar
    22    17    18    1
    23    19    20   ar
    24    20    21   ar
