@<TRIPOS>MOLECULE
32210_ChemDiv_6013-1771
 17 18 0 0 0
SMALL
GASTEIGER
Energy = 0

@<TRIPOS>ATOM
      1 N           0.2710    1.1500    0.0000 N.ar    1  LIG1       -0.2062
      2 C          -0.2750    0.3040    0.0000 C.ar    1  LIG1        0.2048
      3 N          -1.2790    0.2460    0.0000 N.am    1  LIG1       -0.1488
      4 C          -1.7210   -0.6500    0.0000 C.2     1  LIG1        0.2768
      5 C          -1.1750   -1.4920    0.0000 C.ar    1  LIG1        0.0849
      6 S          -0.1880   -1.6250    0.0000 S.2     1  LIG1       -0.0818
      7 C           0.0000   -2.6170    0.0000 C.ar    1  LIG1        0.0356
      8 C          -0.8710   -3.0750    0.0000 C.ar    1  LIG1        0.0076
      9 C          -1.6080   -2.3920    0.0000 C.ar    1  LIG1        0.0116
     10 O          -2.7250   -0.7380    0.0000 O.2     1  LIG1       -0.2674
     11 S           0.3830   -0.4630    0.0000 S.2     1  LIG1        0.0509
     12 N           1.2750   -0.0790    0.0000 N.ar    1  LIG1       -0.1916
     13 C           1.2540    0.9000    0.0000 C.ar    1  LIG1        0.1516
     14 C           2.0420    1.5080    0.0000 C.3     1  LIG1        0.0992
     15 C           1.9330    2.5130    0.0000 C.3     1  LIG1        0.1596
     16 O           2.7210    3.0790    0.0000 O.3     1  LIG1       -0.2227
     17 C           0.9790    2.9210    0.0000 C.3     1  LIG1        0.0360
@<TRIPOS>BOND
     1     1     2   ar
     2     1    13   ar
     3     2     3    1
     4     2    11   ar
     5     3     4   am
     6     4     5    1
     7     4    10    2
     8     5     6   ar
     9     5     9   ar
    10     6     7   ar
    11     7     8   ar
    12     8     9   ar
    13    11    12   ar
    14    12    13   ar
    15    13    14    1
    16    14    15    1
    17    15    16    1
    18    15    17    1
