@<TRIPOS>MOLECULE
32216_ChemDiv_C120-0016
 16 17 0 0 0
SMALL
GASTEIGER
Energy = 0

@<TRIPOS>ATOM
      1 N           0.8170   -0.1710    0.0000 N.ar    1  LIG1       -0.2062
      2 C           1.5880   -0.8170    0.0000 C.ar    1  LIG1        0.1564
      3 N           1.2250   -1.7290    0.0000 N.ar    1  LIG1       -0.1913
      4 S           0.2250   -1.6670    0.0000 S.2     1  LIG1        0.0505
      5 C          -0.0250   -0.7130    0.0000 C.ar    1  LIG1        0.1983
      6 N          -0.9920   -0.4420    0.0000 N.pl3   1  LIG1       -0.2053
      7 C          -1.2500    0.5250    0.0000 C.3     1  LIG1        0.1783
      8 C          -2.2170    0.7830    0.0000 C.ar    1  LIG1        0.1448
      9 O          -3.0000    0.1630    0.0000 O.2     1  LIG1       -0.4529
     10 C          -3.8330    0.7210    0.0000 C.ar    1  LIG1        0.1792
     11 C          -3.5670    1.6880    0.0000 C.ar    1  LIG1        0.0435
     12 C          -2.5630    1.7330    0.0000 C.ar    1  LIG1        0.0380
     13 C           2.5580   -0.5790    0.0000 C.3     1  LIG1        0.1307
     14 C           2.8540    0.3750    0.0000 C.2     1  LIG1        0.1587
     15 O           3.8290    0.6040    0.0000 O.2     1  LIG1       -0.2956
     16 C           2.1750    1.1130    0.0000 C.3     1  LIG1        0.0727
@<TRIPOS>BOND
     1     1     2   ar
     2     1     5   ar
     3     2     3   ar
     4     2    13    1
     5     3     4   ar
     6     4     5   ar
     7     5     6    1
     8     6     7    1
     9     7     8    1
    10     8     9   ar
    11     8    12   ar
    12     9    10   ar
    13    10    11   ar
    14    11    12   ar
    15    13    14    1
    16    14    15    2
    17    14    16    1
