@<TRIPOS>MOLECULE
32211_ChemDiv_C875-0049
 22 24 0 0 0
SMALL
GASTEIGER
Energy = 0

@<TRIPOS>ATOM
      1 C          -1.8830   -1.2040    0.0000 C.ar    1  LIG1        0.1906
      2 N          -2.4670   -0.4000    0.0000 N.ar    1  LIG1       -0.2196
      3 C          -3.4210   -0.7040    0.0000 C.ar    1  LIG1        0.1042
      4 C          -3.4210   -1.7080    0.0000 C.ar    1  LIG1        0.1202
      5 N          -2.4670   -2.0080    0.0000 N.ar    1  LIG1       -0.2181
      6 C          -4.2830   -2.2080    0.0000 C.ar    1  LIG1        0.1195
      7 N          -5.1500   -1.7080    0.0000 N.ar    1  LIG1       -0.2406
      8 C          -5.1500   -0.7040    0.0000 C.ar    1  LIG1        0.1005
      9 C          -4.2830   -0.2040    0.0000 C.ar    1  LIG1        0.0414
     10 S          -0.8830   -1.2330    0.0000 S.3     1  LIG1       -0.0658
     11 C          -0.3750   -0.3710    0.0000 C.3     1  LIG1        0.1519
     12 C           0.6380   -0.3880    0.0000 C.2     1  LIG1        0.2570
     13 N           1.1380    0.4750    0.0000 N.am    1  LIG1       -0.1788
     14 C           2.1420    0.4750    0.0000 C.ar    1  LIG1        0.0694
     15 C           2.6420    1.3420    0.0000 C.ar    1  LIG1       -0.0068
     16 C           3.6330    1.3420    0.0000 C.ar    1  LIG1       -0.0072
     17 C           4.1330    0.4750    0.0000 C.ar    1  LIG1       -0.0221
     18 C           3.6330   -0.3880    0.0000 C.ar    1  LIG1       -0.0029
     19 C           2.6420   -0.3880    0.0000 C.ar    1  LIG1        0.0160
     20 C           5.1460    0.4920    0.0000 C.3     1  LIG1        0.0310
     21 C           2.1290    2.2130    0.0000 C.3     1  LIG1        0.0324
     22 O           1.1380   -1.2380    0.0000 O.2     1  LIG1       -0.2720
@<TRIPOS>BOND
     1     1     2   ar
     2     1     5   ar
     3     1    10    1
     4     2     3   ar
     5     3     4   ar
     6     3     9   ar
     7     4     5   ar
     8     4     6   ar
     9     6     7   ar
    10     7     8   ar
    11     8     9   ar
    12    10    11    1
    13    11    12    1
    14    12    13   am
    15    12    22    2
    16    13    14    1
    17    14    15   ar
    18    14    19   ar
    19    15    16   ar
    20    15    21    1
    21    16    17   ar
    22    17    18   ar
    23    17    20    1
    24    18    19   ar
