@<TRIPOS>MOLECULE
32224_ChemDiv_C353-0021
 18 19 0 0 0
SMALL
GASTEIGER
Energy = 0

@<TRIPOS>ATOM
      1 N           0.9000   -0.4250    0.0000 N.ar    1  LIG1       -0.2058
      2 C           0.0960    0.1670    0.0000 C.ar    1  LIG1        0.2049
      3 N          -0.8580   -0.1250    0.0000 N.am    1  LIG1       -0.1466
      4 C          -1.5880    0.5580    0.0000 C.2     1  LIG1        0.3055
      5 C          -2.5460    0.2710    0.0000 C.ar    1  LIG1        0.2012
      6 O          -2.8750   -0.6830    0.0000 O.2     1  LIG1       -0.4423
      7 C          -3.8710   -0.6630    0.0000 C.ar    1  LIG1        0.1793
      8 C          -4.1630    0.2920    0.0000 C.ar    1  LIG1        0.0478
      9 C          -3.3460    0.8670    0.0000 C.ar    1  LIG1        0.0460
     10 BR         -4.3710   -1.5290    0.0000 Br      1  LIG1       -0.0078
     11 O          -1.3630    1.5330    0.0000 O.2     1  LIG1       -0.2646
     12 S           0.4290    1.1170    0.0000 S.2     1  LIG1        0.0509
     13 N           1.4250    1.1040    0.0000 N.ar    1  LIG1       -0.1913
     14 C           1.7170    0.1500    0.0000 C.ar    1  LIG1        0.1564
     15 C           2.6670   -0.1790    0.0000 C.3     1  LIG1        0.1307
     16 C           3.4130    0.4830    0.0000 C.2     1  LIG1        0.1587
     17 O           3.2250    1.4580    0.0000 O.2     1  LIG1       -0.2956
     18 C           4.3670    0.1540    0.0000 C.3     1  LIG1        0.0727
@<TRIPOS>BOND
     1     1     2   ar
     2     1    14   ar
     3     2     3    1
     4     2    12   ar
     5     3     4   am
     6     4     5    1
     7     4    11    2
     8     5     6   ar
     9     5     9   ar
    10     6     7   ar
    11     7     8   ar
    12     7    10    1
    13     8     9   ar
    14    12    13   ar
    15    13    14   ar
    16    14    15    1
    17    15    16    1
    18    16    17    2
    19    16    18    1
