@<TRIPOS>MOLECULE
32222_ChemDiv_C353-0019
 24 25 0 0 0
SMALL
GASTEIGER
Energy = 0

@<TRIPOS>ATOM
      1 N           1.6710    0.1290    0.0000 N.ar    1  LIG1       -0.2058
      2 C           0.8710    0.7290    0.0000 C.ar    1  LIG1        0.2048
      3 N          -0.0830    0.4420    0.0000 N.am    1  LIG1       -0.1493
      4 C          -0.8170    1.1250    0.0000 C.2     1  LIG1        0.2709
      5 C          -1.7710    0.8250    0.0000 C.ar    1  LIG1        0.0617
      6 C          -2.5080    1.5080    0.0000 C.ar    1  LIG1        0.0448
      7 C          -3.4670    1.2170    0.0000 C.ar    1  LIG1        0.1756
      8 C          -3.6830    0.2460    0.0000 C.ar    1  LIG1        0.2061
      9 C          -2.9500   -0.4380    0.0000 C.ar    1  LIG1        0.1756
     10 C          -1.9920   -0.1460    0.0000 C.ar    1  LIG1        0.0448
     11 O          -3.1670   -1.4080    0.0000 O.3     1  LIG1       -0.4683
     12 C          -2.4330   -2.0920    0.0000 C.3     1  LIG1        0.2526
     13 O          -4.6380   -0.0460    0.0000 O.3     1  LIG1       -0.4654
     14 C          -4.8630   -1.0250    0.0000 C.3     1  LIG1        0.2528
     15 O          -4.1960    1.9000    0.0000 O.3     1  LIG1       -0.4683
     16 C          -5.1460    1.6080    0.0000 C.3     1  LIG1        0.2526
     17 O          -0.6000    2.0960    0.0000 O.2     1  LIG1       -0.2679
     18 S           1.2000    1.6750    0.0000 S.2     1  LIG1        0.0509
     19 N           2.1920    1.6710    0.0000 N.ar    1  LIG1       -0.1913
     20 C           2.4920    0.7040    0.0000 C.ar    1  LIG1        0.1564
     21 C           3.4330    0.3830    0.0000 C.3     1  LIG1        0.1307
     22 C           4.1920    1.0380    0.0000 C.2     1  LIG1        0.1587
     23 O           3.9960    2.0210    0.0000 O.2     1  LIG1       -0.2956
     24 C           5.1420    0.7130    0.0000 C.3     1  LIG1        0.0727
@<TRIPOS>BOND
     1     1     2   ar
     2     1    20   ar
     3     2     3    1
     4     2    18   ar
     5     3     4   am
     6     4     5    1
     7     4    17    2
     8     5     6   ar
     9     5    10   ar
    10     6     7   ar
    11     7     8   ar
    12     7    15    1
    13     8     9   ar
    14     8    13    1
    15     9    10   ar
    16     9    11    1
    17    11    12    1
    18    13    14    1
    19    15    16    1
    20    18    19   ar
    21    19    20   ar
    22    20    21    1
    23    21    22    1
    24    22    23    2
    25    22    24    1
