@<TRIPOS>MOLECULE
32223_ChemDiv_5698-3149
 24 25 0 0 0
SMALL
GASTEIGER
Energy = 0

@<TRIPOS>ATOM
      1 S           0.2130   -1.2580    0.0000 S.O2    1  LIG1        0.0768
      2 C          -0.6500   -0.8170    0.0000 C.ar    1  LIG1        0.1238
      3 C          -1.4710   -1.3420    0.0000 C.ar    1  LIG1        0.0231
      4 C          -2.3460   -0.9040    0.0000 C.ar    1  LIG1        0.0389
      5 C          -2.3830    0.0670    0.0000 C.ar    1  LIG1        0.1455
      6 O          -3.2920    0.4000    0.0000 O.3     1  LIG1       -0.4504
      7 C          -3.4580    1.3670    0.0000 C.ar    1  LIG1        0.1789
      8 C          -2.7080    1.9710    0.0000 C.ar    1  LIG1        0.1730
      9 O          -1.8210    1.6380    0.0000 O.3     1  LIG1       -0.4684
     10 C          -1.0750    2.2580    0.0000 C.3     1  LIG1        0.2526
     11 C          -2.8920    2.9210    0.0000 C.ar    1  LIG1        0.0401
     12 C          -3.8040    3.2460    0.0000 C.ar    1  LIG1        0.0033
     13 C          -4.5250    2.6210    0.0000 C.ar    1  LIG1        0.0033
     14 C          -4.3790    1.6670    0.0000 C.ar    1  LIG1        0.0406
     15 C          -1.5710    0.5920    0.0000 C.ar    1  LIG1        0.0389
     16 C          -0.7080    0.1580    0.0000 C.ar    1  LIG1        0.0231
     17 O          -0.1460   -2.4540    0.0000 O.2     1  LIG1       -0.1516
     18 O           0.5380    0.0170    0.0000 O.2     1  LIG1       -0.1516
     19 N           1.0460   -1.7380    0.0000 N.3     1  LIG1       -0.0774
     20 C           1.9130   -2.2380    0.0000 C.3     1  LIG1        0.1214
     21 C           2.7830   -1.7380    0.0000 C.3     1  LIG1        0.0625
     22 C           3.6460   -2.2380    0.0000 C.2     1  LIG1        0.0518
     23 O           4.5210   -1.7380    0.0000 O.co2   1  LIG1       -0.5491
     24 O           3.6460   -3.2420    0.0000 O.co2   1  LIG1       -0.5491
@<TRIPOS>BOND
     1     1     2    1
     2     1    17    2
     3     1    18    2
     4     1    19    1
     5     2     3   ar
     6     2    16   ar
     7     3     4   ar
     8     4     5   ar
     9     5     6    1
    10     5    15   ar
    11     6     7    1
    12     7     8   ar
    13     7    14   ar
    14     8     9    1
    15     8    11   ar
    16     9    10    1
    17    11    12   ar
    18    12    13   ar
    19    13    14   ar
    20    15    16   ar
    21    19    20    1
    22    20    21    1
    23    21    22    1
    24    22    23   ar
    25    22    24   ar
