@<TRIPOS>MOLECULE
32220_ChemDiv_C353-0010
 20 21 0 0 0
SMALL
GASTEIGER
Energy = 0

@<TRIPOS>ATOM
      1 N           1.4170   -0.8960    0.0000 N.ar    1  LIG1       -0.2058
      2 C           0.6210   -0.2960    0.0000 C.ar    1  LIG1        0.2048
      3 N          -0.3330   -0.5790    0.0000 N.am    1  LIG1       -0.1492
      4 C          -1.0670    0.1000    0.0000 C.2     1  LIG1        0.2716
      5 C          -2.0210   -0.1960    0.0000 C.ar    1  LIG1        0.0660
      6 C          -2.7580    0.4830    0.0000 C.ar    1  LIG1        0.0629
      7 C          -3.7130    0.1920    0.0000 C.ar    1  LIG1        0.0229
      8 C          -3.9290   -0.7750    0.0000 C.ar    1  LIG1        0.0585
      9 C          -3.1960   -1.4580    0.0000 C.ar    1  LIG1        0.0116
     10 C          -2.2420   -1.1670    0.0000 C.ar    1  LIG1        0.0063
     11 CL         -4.8920   -1.0670    0.0000 Cl      1  LIG1       -0.0822
     12 CL         -2.5210    1.4630    0.0000 Cl      1  LIG1       -0.0821
     13 O          -0.8500    1.0710    0.0000 O.2     1  LIG1       -0.2679
     14 S           0.9460    0.6540    0.0000 S.2     1  LIG1        0.0509
     15 N           1.9380    0.6460    0.0000 N.ar    1  LIG1       -0.1913
     16 C           2.2420   -0.3170    0.0000 C.ar    1  LIG1        0.1564
     17 C           3.1830   -0.6420    0.0000 C.3     1  LIG1        0.1307
     18 C           3.9380    0.0130    0.0000 C.2     1  LIG1        0.1587
     19 O           3.7420    0.9960    0.0000 O.2     1  LIG1       -0.2956
     20 C           4.8880   -0.3080    0.0000 C.3     1  LIG1        0.0727
@<TRIPOS>BOND
     1     1     2   ar
     2     1    16   ar
     3     2     3    1
     4     2    14   ar
     5     3     4   am
     6     4     5    1
     7     4    13    2
     8     5     6   ar
     9     5    10   ar
    10     6     7   ar
    11     6    12    1
    12     7     8   ar
    13     8     9   ar
    14     8    11    1
    15     9    10   ar
    16    14    15   ar
    17    15    16   ar
    18    16    17    1
    19    17    18    1
    20    18    19    2
    21    18    20    1
