@<TRIPOS>MOLECULE
32229_ChemDiv_5639-0247
 21 23 0 0 0
SMALL
GASTEIGER
Energy = 0

@<TRIPOS>ATOM
      1 C           1.8130    0.9080    0.0000 C.2     1  LIG1        0.0796
      2 C           2.4210    0.1580    0.0000 C.2     1  LIG1        0.3458
      3 O           1.8960   -0.6920    0.0000 O.3     1  LIG1       -0.4210
      4 C           0.9210   -0.4330    0.0000 C.2     1  LIG1        0.1489
      5 C           0.8580    0.5670    0.0000 C.2     1  LIG1        0.0441
      6 C           0.0460   -0.9420    0.0000 C.ar    1  LIG1        0.0349
      7 C          -0.8040   -0.4330    0.0000 C.ar    1  LIG1        0.0061
      8 C          -1.6790   -0.9420    0.0000 C.ar    1  LIG1        0.0370
      9 C          -1.6790   -1.9580    0.0000 C.ar    1  LIG1        0.1386
     10 C          -0.8040   -2.4420    0.0000 C.ar    1  LIG1        0.0370
     11 C           0.0460   -1.9580    0.0000 C.ar    1  LIG1        0.0061
     12 O          -2.5540   -2.4630    0.0000 O.3     1  LIG1       -0.4755
     13 C          -2.5540   -3.4580    0.0000 C.3     1  LIG1        0.2055
     14 C          -3.4210   -3.9670    0.0000 C.3     1  LIG1        0.0512
     15 O           3.4170    0.2380    0.0000 O.2     1  LIG1       -0.2445
     16 C           2.1000    1.8830    0.0000 C.2     1  LIG1        0.0130
     17 C           1.4040    2.6130    0.0000 C.ar    1  LIG1        0.0297
     18 S           1.5040    3.5920    0.0000 S.2     1  LIG1       -0.0864
     19 C           0.5540    3.9710    0.0000 C.ar    1  LIG1        0.0354
     20 C          -0.0710    3.2420    0.0000 C.ar    1  LIG1        0.0075
     21 C           0.4380    2.3920    0.0000 C.ar    1  LIG1        0.0070
@<TRIPOS>BOND
     1     1     2    1
     2     1     5    1
     3     1    16    2
     4     2     3    1
     5     2    15    2
     6     3     4    1
     7     4     5    2
     8     4     6    1
     9     6     7   ar
    10     6    11   ar
    11     7     8   ar
    12     8     9   ar
    13     9    10   ar
    14     9    12    1
    15    10    11   ar
    16    12    13    1
    17    13    14    1
    18    16    17    1
    19    17    18   ar
    20    17    21   ar
    21    18    19   ar
    22    19    20   ar
    23    20    21   ar
