@<TRIPOS>MOLECULE
32227_ChemDiv_5638-0370
 26 30 0 0 0
SMALL
GASTEIGER
Energy = 0

@<TRIPOS>ATOM
      1 N           0.5540   -1.3630    0.0000 N.ar    1  LIG1       -0.1769
      2 C           0.5540   -0.3580    0.0000 C.ar    1  LIG1        0.1680
      3 C          -0.4080   -0.0710    0.0000 C.ar    1  LIG1        0.0553
      4 C          -0.9830   -0.8790    0.0000 C.ar    1  LIG1        0.1043
      5 N          -0.4080   -1.6750    0.0000 N.ar    1  LIG1       -0.1611
      6 C          -2.0040   -0.8790    0.0000 C.ar    1  LIG1        0.0195
      7 C          -2.5170   -0.0040    0.0000 C.ar    1  LIG1        0.0016
      8 C          -3.5210   -0.0080    0.0000 C.ar    1  LIG1        0.0000
      9 C          -4.0080   -0.8790    0.0000 C.ar    1  LIG1        0.0000
     10 C          -3.5040   -1.7500    0.0000 C.ar    1  LIG1        0.0000
     11 C          -2.5000   -1.7500    0.0000 C.ar    1  LIG1        0.0016
     12 C          -0.6250    0.9290    0.0000 C.ar    1  LIG1        0.0045
     13 C           0.1080    1.5960    0.0000 C.ar    1  LIG1        0.0001
     14 C          -0.1080    2.5540    0.0000 C.ar    1  LIG1        0.0000
     15 C          -1.0500    2.8670    0.0000 C.ar    1  LIG1        0.0000
     16 C          -1.7880    2.2000    0.0000 C.ar    1  LIG1        0.0000
     17 C          -1.5790    1.2290    0.0000 C.ar    1  LIG1        0.0001
     18 N           1.4080    0.1290    0.0000 N.ar    1  LIG1       -0.2309
     19 C           2.2790   -0.3580    0.0000 C.ar    1  LIG1        0.0613
     20 C           2.2790   -1.3630    0.0000 C.ar    1  LIG1        0.0493
     21 C           1.4080   -1.8750    0.0000 C.ar    1  LIG1        0.2787
     22 O           1.3960   -2.8630    0.0000 O.2     1  LIG1       -0.2654
     23 C           3.1380   -1.8580    0.0000 C.3     1  LIG1        0.0325
     24 C           4.0040   -1.3630    0.0000 C.3     1  LIG1        0.0053
     25 C           4.0040   -0.3580    0.0000 C.3     1  LIG1        0.0066
     26 C           3.1380    0.1460    0.0000 C.3     1  LIG1        0.0457
@<TRIPOS>BOND
     1     1     2   ar
     2     1     5   ar
     3     1    21   ar
     4     2     3   ar
     5     2    18   ar
     6     3     4   ar
     7     3    12    1
     8     4     5   ar
     9     4     6    1
    10     6     7   ar
    11     6    11   ar
    12     7     8   ar
    13     8     9   ar
    14     9    10   ar
    15    10    11   ar
    16    12    13   ar
    17    12    17   ar
    18    13    14   ar
    19    14    15   ar
    20    15    16   ar
    21    16    17   ar
    22    18    19   ar
    23    19    20   ar
    24    19    26    1
    25    20    21   ar
    26    20    23    1
    27    21    22    2
    28    23    24    1
    29    24    25    1
    30    25    26    1
