@<TRIPOS>MOLECULE
32226_ChemDiv_5954-2773
 27 30 0 0 0
SMALL
GASTEIGER
Energy = 0

@<TRIPOS>ATOM
      1 S          -1.2630    0.2540    0.0000 S.O2    1  LIG1        0.0665
      2 N          -0.3790   -0.2420    0.0000 N.3     1  LIG1       -0.1287
      3 C          -0.3790   -1.2380    0.0000 C.3     1  LIG1        0.1940
      4 N          -1.2630   -1.7830    0.0000 N.pl3   1  LIG1       -0.2156
      5 C          -2.1500   -1.2580    0.0000 C.ar    1  LIG1        0.0857
      6 C          -2.1330   -0.2420    0.0000 C.ar    1  LIG1        0.1370
      7 C          -3.0290    0.2540    0.0000 C.ar    1  LIG1        0.0212
      8 C          -3.9080   -0.2580    0.0000 C.ar    1  LIG1        0.0015
      9 C          -3.9080   -1.2750    0.0000 C.ar    1  LIG1        0.0014
     10 C          -3.0290   -1.7830    0.0000 C.ar    1  LIG1        0.0175
     11 C           0.4830   -1.7210    0.0000 C.ar    1  LIG1        0.0141
     12 C           0.4960   -2.7210    0.0000 C.ar    1  LIG1       -0.0007
     13 C           1.3380   -3.1960    0.0000 C.ar    1  LIG1        0.0059
     14 C           2.1920   -2.6960    0.0000 C.ar    1  LIG1        0.0252
     15 S           3.0540   -3.1710    0.0000 S.3     1  LIG1       -0.1127
     16 C           3.9040   -2.6630    0.0000 C.3     1  LIG1        0.0742
     17 C           2.1750   -1.7040    0.0000 C.ar    1  LIG1        0.0059
     18 C           1.3330   -1.2250    0.0000 C.ar    1  LIG1       -0.0007
     19 C           0.5000    0.2500    0.0000 C.3     1  LIG1        0.1243
     20 C           0.5000    1.2380    0.0000 C.ar    1  LIG1       -0.0044
     21 C           1.3540    1.7330    0.0000 C.ar    1  LIG1       -0.0029
     22 C           1.3540    2.7080    0.0000 C.ar    1  LIG1       -0.0003
     23 C           0.5000    3.2000    0.0000 C.ar    1  LIG1       -0.0000
     24 C          -0.3420    2.7040    0.0000 C.ar    1  LIG1       -0.0003
     25 C          -0.3420    1.7330    0.0000 C.ar    1  LIG1       -0.0029
     26 O          -0.5460    0.9880    0.0000 O.2     1  LIG1       -0.1527
     27 O          -1.9960    0.9880    0.0000 O.2     1  LIG1       -0.1527
@<TRIPOS>BOND
     1     1     2    1
     2     1     6    1
     3     1    26    2
     4     1    27    2
     5     2     3    1
     6     2    19    1
     7     3     4    1
     8     3    11    1
     9     4     5    1
    10     5     6   ar
    11     5    10   ar
    12     6     7   ar
    13     7     8   ar
    14     8     9   ar
    15     9    10   ar
    16    11    12   ar
    17    11    18   ar
    18    12    13   ar
    19    13    14   ar
    20    14    15    1
    21    14    17   ar
    22    15    16    1
    23    17    18   ar
    24    19    20    1
    25    20    21   ar
    26    20    25   ar
    27    21    22   ar
    28    22    23   ar
    29    23    24   ar
    30    24    25   ar
