@<TRIPOS>MOLECULE
32228_ChemDiv_5954-4573
 26 29 0 0 0
SMALL
GASTEIGER
Energy = 0

@<TRIPOS>ATOM
      1 S          -0.4130    0.2630    0.0000 S.O2    1  LIG1        0.0665
      2 N           0.4670   -0.2330    0.0000 N.3     1  LIG1       -0.1287
      3 C           0.4670   -1.2290    0.0000 C.3     1  LIG1        0.1945
      4 N          -0.4130   -1.7710    0.0000 N.pl3   1  LIG1       -0.2155
      5 C          -1.2960   -1.2500    0.0000 C.ar    1  LIG1        0.0857
      6 C          -1.2830   -0.2330    0.0000 C.ar    1  LIG1        0.1370
      7 C          -2.1710    0.2630    0.0000 C.ar    1  LIG1        0.0212
      8 C          -3.0540   -0.2500    0.0000 C.ar    1  LIG1        0.0015
      9 C          -3.0540   -1.2630    0.0000 C.ar    1  LIG1        0.0014
     10 C          -2.1710   -1.7710    0.0000 C.ar    1  LIG1        0.0175
     11 C           1.3290   -1.7130    0.0000 C.ar    1  LIG1        0.0203
     12 C           2.1790   -1.2130    0.0000 C.ar    1  LIG1        0.0335
     13 BR          2.1790   -0.2130    0.0000 Br      1  LIG1       -0.0492
     14 C           3.0330   -1.6920    0.0000 C.ar    1  LIG1        0.0065
     15 C           3.0500   -2.6790    0.0000 C.ar    1  LIG1        0.0005
     16 C           2.1830   -3.2000    0.0000 C.ar    1  LIG1       -0.0002
     17 C           1.3420   -2.7040    0.0000 C.ar    1  LIG1       -0.0007
     18 C           1.3500    0.2580    0.0000 C.3     1  LIG1        0.1243
     19 C           1.3500    1.2420    0.0000 C.ar    1  LIG1       -0.0044
     20 C           0.5080    1.7330    0.0000 C.ar    1  LIG1       -0.0029
     21 C           0.5080    2.7040    0.0000 C.ar    1  LIG1       -0.0003
     22 C           1.3500    3.2040    0.0000 C.ar    1  LIG1       -0.0000
     23 C           2.2000    2.7080    0.0000 C.ar    1  LIG1       -0.0003
     24 C           2.2000    1.7330    0.0000 C.ar    1  LIG1       -0.0029
     25 O          -1.1420    0.9960    0.0000 O.2     1  LIG1       -0.1527
     26 O           0.3040    0.9960    0.0000 O.2     1  LIG1       -0.1527
@<TRIPOS>BOND
     1     1     2    1
     2     1     6    1
     3     1    25    2
     4     1    26    2
     5     2     3    1
     6     2    18    1
     7     3     4    1
     8     3    11    1
     9     4     5    1
    10     5     6   ar
    11     5    10   ar
    12     6     7   ar
    13     7     8   ar
    14     8     9   ar
    15     9    10   ar
    16    11    12   ar
    17    11    17   ar
    18    12    13    1
    19    12    14   ar
    20    14    15   ar
    21    15    16   ar
    22    16    17   ar
    23    18    19    1
    24    19    20   ar
    25    19    24   ar
    26    20    21   ar
    27    21    22   ar
    28    22    23   ar
    29    23    24   ar
