@<TRIPOS>MOLECULE
32233_ChemDiv_5641-2160
 27 30 0 0 0
SMALL
GASTEIGER
Energy = 0

@<TRIPOS>ATOM
      1 C          -2.5040   -1.2420    0.0000 C.2     1  LIG1        0.2490
      2 N          -1.6420   -0.7420    0.0000 N.am    1  LIG1       -0.2761
      3 C          -1.6420    0.2670    0.0000 C.3     1  LIG1        0.0942
      4 C          -0.7880    0.7540    0.0000 C.3     1  LIG1        0.0307
      5 C           0.0750    0.2670    0.0000 C.3     1  LIG1        0.0820
      6 C           0.9420    0.7540    0.0000 C.2     1  LIG1        0.2452
      7 N           1.8170    0.2500    0.0000 N.am    1  LIG1       -0.1791
      8 C           2.6790    0.7500    0.0000 C.ar    1  LIG1        0.0766
      9 C           3.5290    0.2500    0.0000 C.ar    1  LIG1        0.0568
     10 C           4.4080    0.7380    0.0000 C.ar    1  LIG1        0.1777
     11 C           4.4080    1.7500    0.0000 C.ar    1  LIG1        0.1765
     12 O           5.3630    2.0670    0.0000 O.3     1  LIG1       -0.4346
     13 C           5.9670    1.2420    0.0000 C.3     1  LIG1        0.4294
     14 O           5.3630    0.4330    0.0000 O.3     1  LIG1       -0.4346
     15 C           3.5290    2.2500    0.0000 C.ar    1  LIG1        0.0415
     16 C           2.6790    1.7420    0.0000 C.ar    1  LIG1        0.0199
     17 O           0.9420    1.7500    0.0000 O.2     1  LIG1       -0.2730
     18 C           0.0750   -0.7420    0.0000 C.3     1  LIG1        0.0307
     19 C          -0.7880   -1.2420    0.0000 C.3     1  LIG1        0.0942
     20 C          -3.3750   -0.7420    0.0000 C.ar    1  LIG1        0.0537
     21 C          -3.3750    0.2500    0.0000 C.ar    1  LIG1        0.0068
     22 C          -4.2380    0.7500    0.0000 C.ar    1  LIG1        0.0298
     23 C          -5.1080    0.2500    0.0000 C.ar    1  LIG1        0.1401
     24 C          -5.0920   -0.7580    0.0000 C.ar    1  LIG1        0.0298
     25 C          -4.2380   -1.2460    0.0000 C.ar    1  LIG1        0.0068
     26 F          -5.9710    0.7540    0.0000 F       1  LIG1       -0.2042
     27 O          -2.5040   -2.2460    0.0000 O.2     1  LIG1       -0.2699
@<TRIPOS>BOND
     1     1     2   am
     2     1    20    1
     3     1    27    2
     4     2     3    1
     5     2    19    1
     6     3     4    1
     7     4     5    1
     8     5     6    1
     9     5    18    1
    10     6     7   am
    11     6    17    2
    12     7     8    1
    13     8     9   ar
    14     8    16   ar
    15     9    10   ar
    16    10    11   ar
    17    10    14    1
    18    11    12    1
    19    11    15   ar
    20    12    13    1
    21    13    14    1
    22    15    16   ar
    23    18    19    1
    24    20    21   ar
    25    20    25   ar
    26    21    22   ar
    27    22    23   ar
    28    23    24   ar
    29    23    26    1
    30    24    25   ar
