@<TRIPOS>MOLECULE
32236_ChemDiv_6028-4112
 26 29 0 0 0
SMALL
GASTEIGER
Energy = 0

@<TRIPOS>ATOM
      1 S          -0.4130    0.2580    0.0000 S.O2    1  LIG1        0.0665
      2 N           0.4630   -0.2460    0.0000 N.3     1  LIG1       -0.1287
      3 C           0.4630   -1.2330    0.0000 C.3     1  LIG1        0.1949
      4 N          -0.4130   -1.7750    0.0000 N.pl3   1  LIG1       -0.2155
      5 C          -1.3040   -1.2630    0.0000 C.ar    1  LIG1        0.0857
      6 C          -1.2960   -0.2460    0.0000 C.ar    1  LIG1        0.1370
      7 C          -2.1710    0.2580    0.0000 C.ar    1  LIG1        0.0212
      8 C          -3.0460   -0.2580    0.0000 C.ar    1  LIG1        0.0015
      9 C          -3.0460   -1.2670    0.0000 C.ar    1  LIG1        0.0014
     10 C          -2.1710   -1.7750    0.0000 C.ar    1  LIG1        0.0175
     11 C           1.3170   -1.7170    0.0000 C.ar    1  LIG1        0.0247
     12 C           2.1630   -1.2080    0.0000 C.ar    1  LIG1        0.0566
     13 CL          2.1540   -0.2170    0.0000 Cl      1  LIG1       -0.0825
     14 C           3.0250   -1.6920    0.0000 C.ar    1  LIG1        0.0112
     15 C           3.0420   -2.6830    0.0000 C.ar    1  LIG1        0.0008
     16 C           2.1920   -3.1920    0.0000 C.ar    1  LIG1       -0.0002
     17 C           1.3290   -2.7040    0.0000 C.ar    1  LIG1       -0.0004
     18 C           1.3420    0.2500    0.0000 C.3     1  LIG1        0.1243
     19 C           1.3420    1.2330    0.0000 C.ar    1  LIG1       -0.0044
     20 C           0.4920    1.7210    0.0000 C.ar    1  LIG1       -0.0029
     21 C           0.4920    2.7000    0.0000 C.ar    1  LIG1       -0.0003
     22 C           1.3460    3.1960    0.0000 C.ar    1  LIG1       -0.0000
     23 C           2.1960    2.7080    0.0000 C.ar    1  LIG1       -0.0003
     24 C           2.1960    1.7210    0.0000 C.ar    1  LIG1       -0.0029
     25 O          -1.1380    0.9880    0.0000 O.2     1  LIG1       -0.1527
     26 O           0.3000    0.9880    0.0000 O.2     1  LIG1       -0.1527
@<TRIPOS>BOND
     1     1     2    1
     2     1     6    1
     3     1    25    2
     4     1    26    2
     5     2     3    1
     6     2    18    1
     7     3     4    1
     8     3    11    1
     9     4     5    1
    10     5     6   ar
    11     5    10   ar
    12     6     7   ar
    13     7     8   ar
    14     8     9   ar
    15     9    10   ar
    16    11    12   ar
    17    11    17   ar
    18    12    13    1
    19    12    14   ar
    20    14    15   ar
    21    15    16   ar
    22    16    17   ar
    23    18    19    1
    24    19    20   ar
    25    19    24   ar
    26    20    21   ar
    27    21    22   ar
    28    22    23   ar
    29    23    24   ar
