@<TRIPOS>MOLECULE
32238_ChemDiv_6028-6669
 29 33 0 0 0
SMALL
GASTEIGER
Energy = 0

@<TRIPOS>ATOM
      1 S          -0.8210    0.2580    0.0000 S.O2    1  LIG1        0.0665
      2 N           0.0540   -0.2500    0.0000 N.3     1  LIG1       -0.1287
      3 C           0.0540   -1.2380    0.0000 C.3     1  LIG1        0.1940
      4 N          -0.8210   -1.7830    0.0000 N.pl3   1  LIG1       -0.2156
      5 C          -1.7130   -1.2630    0.0000 C.ar    1  LIG1        0.0857
      6 C          -1.7040   -0.2500    0.0000 C.ar    1  LIG1        0.1370
      7 C          -2.5880    0.2580    0.0000 C.ar    1  LIG1        0.0212
      8 C          -3.4670   -0.2580    0.0000 C.ar    1  LIG1        0.0015
      9 C          -3.4670   -1.2790    0.0000 C.ar    1  LIG1        0.0014
     10 C          -2.5880   -1.7830    0.0000 C.ar    1  LIG1        0.0175
     11 C           0.9170   -1.7250    0.0000 C.ar    1  LIG1        0.0141
     12 C           1.7540   -1.2210    0.0000 C.ar    1  LIG1       -0.0010
     13 C           2.6170   -1.7080    0.0000 C.ar    1  LIG1       -0.0002
     14 C           2.6330   -2.7040    0.0000 C.ar    1  LIG1       -0.0000
     15 C           1.7750   -3.2080    0.0000 C.ar    1  LIG1       -0.0002
     16 C           0.9250   -2.7170    0.0000 C.ar    1  LIG1       -0.0012
     17 C           3.4630   -1.2040    0.0000 C.ar    1  LIG1       -0.0000
     18 C           3.4580   -0.2290    0.0000 C.ar    1  LIG1       -0.0000
     19 C           2.5960    0.2580    0.0000 C.ar    1  LIG1       -0.0000
     20 C           1.7500   -0.2500    0.0000 C.ar    1  LIG1       -0.0002
     21 C           0.9420    0.2500    0.0000 C.3     1  LIG1        0.1243
     22 C           0.9420    1.2380    0.0000 C.ar    1  LIG1       -0.0044
     23 C           1.8000    1.7290    0.0000 C.ar    1  LIG1       -0.0029
     24 C           1.8000    2.7170    0.0000 C.ar    1  LIG1       -0.0003
     25 C           0.9500    3.2130    0.0000 C.ar    1  LIG1       -0.0000
     26 C           0.0880    2.7130    0.0000 C.ar    1  LIG1       -0.0003
     27 C           0.0880    1.7290    0.0000 C.ar    1  LIG1       -0.0029
     28 O          -1.5540    0.9920    0.0000 O.2     1  LIG1       -0.1527
     29 O          -0.1130    0.9920    0.0000 O.2     1  LIG1       -0.1527
@<TRIPOS>BOND
     1     1     2    1
     2     1     6    1
     3     1    28    2
     4     1    29    2
     5     2     3    1
     6     2    21    1
     7     3     4    1
     8     3    11    1
     9     4     5    1
    10     5     6   ar
    11     5    10   ar
    12     6     7   ar
    13     7     8   ar
    14     8     9   ar
    15     9    10   ar
    16    11    12   ar
    17    11    16   ar
    18    12    13   ar
    19    12    20   ar
    20    13    14   ar
    21    13    17   ar
    22    14    15   ar
    23    15    16   ar
    24    17    18   ar
    25    18    19   ar
    26    19    20   ar
    27    21    22    1
    28    22    23   ar
    29    22    27   ar
    30    23    24   ar
    31    24    25   ar
    32    25    26   ar
    33    26    27   ar
