@<TRIPOS>MOLECULE
32232_ChemDiv_6028-2315
 26 29 0 0 0
SMALL
GASTEIGER
Energy = 0

@<TRIPOS>ATOM
      1 S          -0.8380    0.2580    0.0000 S.O2    1  LIG1        0.0665
      2 N           0.0460   -0.2500    0.0000 N.3     1  LIG1       -0.1287
      3 C           0.0460   -1.2290    0.0000 C.3     1  LIG1        0.1941
      4 N          -0.8380   -1.7750    0.0000 N.pl3   1  LIG1       -0.2156
      5 C          -1.7210   -1.2630    0.0000 C.ar    1  LIG1        0.0857
      6 C          -1.7130   -0.2500    0.0000 C.ar    1  LIG1        0.1370
      7 C          -2.5920    0.2580    0.0000 C.ar    1  LIG1        0.0212
      8 C          -3.4670   -0.2580    0.0000 C.ar    1  LIG1        0.0015
      9 C          -3.4670   -1.2710    0.0000 C.ar    1  LIG1        0.0014
     10 C          -2.5920   -1.7750    0.0000 C.ar    1  LIG1        0.0175
     11 C           0.8960   -1.7170    0.0000 C.ar    1  LIG1        0.0146
     12 C           1.7500   -1.2170    0.0000 C.ar    1  LIG1        0.0055
     13 C           2.6130   -1.6920    0.0000 C.ar    1  LIG1        0.0344
     14 BR          3.4630   -1.1960    0.0000 Br      1  LIG1       -0.0490
     15 C           2.6250   -2.6920    0.0000 C.ar    1  LIG1        0.0067
     16 C           1.7670   -3.1960    0.0000 C.ar    1  LIG1        0.0003
     17 C           0.9130   -2.7080    0.0000 C.ar    1  LIG1       -0.0012
     18 C           0.9210    0.2500    0.0000 C.3     1  LIG1        0.1243
     19 C           0.9210    1.2330    0.0000 C.ar    1  LIG1       -0.0044
     20 C           0.0750    1.7210    0.0000 C.ar    1  LIG1       -0.0029
     21 C           0.0750    2.7000    0.0000 C.ar    1  LIG1       -0.0003
     22 C           0.9290    3.2000    0.0000 C.ar    1  LIG1       -0.0000
     23 C           1.7790    2.7040    0.0000 C.ar    1  LIG1       -0.0003
     24 C           1.7790    1.7210    0.0000 C.ar    1  LIG1       -0.0029
     25 O          -1.5580    0.9880    0.0000 O.2     1  LIG1       -0.1527
     26 O          -0.1210    0.9880    0.0000 O.2     1  LIG1       -0.1527
@<TRIPOS>BOND
     1     1     2    1
     2     1     6    1
     3     1    25    2
     4     1    26    2
     5     2     3    1
     6     2    18    1
     7     3     4    1
     8     3    11    1
     9     4     5    1
    10     5     6   ar
    11     5    10   ar
    12     6     7   ar
    13     7     8   ar
    14     8     9   ar
    15     9    10   ar
    16    11    12   ar
    17    11    17   ar
    18    12    13   ar
    19    13    14    1
    20    13    15   ar
    21    15    16   ar
    22    16    17   ar
    23    18    19    1
    24    19    20   ar
    25    19    24   ar
    26    20    21   ar
    27    21    22   ar
    28    22    23   ar
    29    23    24   ar
