@<TRIPOS>MOLECULE
32231_ChemDiv_5641-1812
 27 28 0 0 0
SMALL
GASTEIGER
Energy = 0

@<TRIPOS>ATOM
      1 S          -2.5960    0.2580    0.0000 S.O2    1  LIG1        0.0634
      2 N          -1.7290    0.7500    0.0000 N.3     1  LIG1       -0.1555
      3 C          -1.7460    1.7460    0.0000 C.3     1  LIG1        0.0963
      4 C          -0.8790    2.2630    0.0000 C.3     1  LIG1        0.0283
      5 C          -0.0080    1.7630    0.0000 C.3     1  LIG1        0.0811
      6 C           0.8710    2.2710    0.0000 C.2     1  LIG1        0.2410
      7 O           0.8580    3.2670    0.0000 O.2     1  LIG1       -0.2734
      8 N           1.7380    1.7790    0.0000 N.am    1  LIG1       -0.2053
      9 C           2.5920    2.2710    0.0000 C.3     1  LIG1        0.1177
     10 C           3.4580    1.7790    0.0000 C.3     1  LIG1        0.0555
     11 C           4.3330    2.2830    0.0000 C.3     1  LIG1        0.1441
     12 O           5.2000    1.7830    0.0000 O.3     1  LIG1       -0.3510
     13 C           6.0580    2.2830    0.0000 C.3     1  LIG1        0.1741
     14 C          -0.0080    0.7630    0.0000 C.3     1  LIG1        0.0283
     15 C          -0.8580    0.2630    0.0000 C.3     1  LIG1        0.0963
     16 C          -3.4710   -0.2580    0.0000 C.ar    1  LIG1        0.1254
     17 C          -3.4710   -1.2630    0.0000 C.ar    1  LIG1        0.0599
     18 C          -4.3380   -1.7630    0.0000 C.ar    1  LIG1        0.1737
     19 C          -5.1960   -1.2630    0.0000 C.ar    1  LIG1        0.1725
     20 C          -5.1960   -0.2580    0.0000 C.ar    1  LIG1        0.0414
     21 C          -4.3380    0.2420    0.0000 C.ar    1  LIG1        0.0232
     22 O          -6.0580   -1.7630    0.0000 O.3     1  LIG1       -0.4684
     23 C          -6.0580   -2.7750    0.0000 C.3     1  LIG1        0.2526
     24 O          -4.3380   -2.7630    0.0000 O.3     1  LIG1       -0.4683
     25 C          -3.4710   -3.2630    0.0000 C.3     1  LIG1        0.2526
     26 O          -3.1080    1.1130    0.0000 O.2     1  LIG1       -0.1528
     27 O          -2.1080   -0.6080    0.0000 O.2     1  LIG1       -0.1528
@<TRIPOS>BOND
     1     1     2    1
     2     1    16    1
     3     1    26    2
     4     1    27    2
     5     2     3    1
     6     2    15    1
     7     3     4    1
     8     4     5    1
     9     5     6    1
    10     5    14    1
    11     6     7    2
    12     6     8   am
    13     8     9    1
    14     9    10    1
    15    10    11    1
    16    11    12    1
    17    12    13    1
    18    14    15    1
    19    16    17   ar
    20    16    21   ar
    21    17    18   ar
    22    18    19   ar
    23    18    24    1
    24    19    20   ar
    25    19    22    1
    26    20    21   ar
    27    22    23    1
    28    24    25    1
