@<TRIPOS>MOLECULE
32239_ChemDiv_5646-1612
 16 18 0 0 0
SMALL
GASTEIGER
Energy = 0

@<TRIPOS>ATOM
      1 C          -2.4790    1.0920    0.0000 C.ar    1  LIG1        0.3688
      2 N          -1.6670    1.6790    0.0000 N.ar    1  LIG1       -0.1893
      3 C          -0.8630    1.0920    0.0000 C.ar    1  LIG1        0.1054
      4 C          -1.1830    0.1460    0.0000 C.ar    1  LIG1        0.1054
      5 N          -2.1580    0.1460    0.0000 N.ar    1  LIG1       -0.1893
      6 C          -0.5130   -0.5920    0.0000 C.ar    1  LIG1        0.0414
      7 C           0.4580   -0.3830    0.0000 C.ar    1  LIG1        0.1001
      8 N           1.1420   -1.1380    0.0000 N.ar    1  LIG1       -0.2469
      9 C           2.1130   -0.9170    0.0000 C.ar    1  LIG1        0.0728
     10 C           2.4420    0.0420    0.0000 C.ar    1  LIG1        0.0728
     11 N           1.7670    0.7710    0.0000 N.ar    1  LIG1       -0.2469
     12 C           0.7790    0.5630    0.0000 C.ar    1  LIG1        0.1001
     13 C           0.1080    1.3000    0.0000 C.ar    1  LIG1        0.0414
     14 C           3.4290    0.2210    0.0000 C.3     1  LIG1        0.0534
     15 C           2.7830   -1.6750    0.0000 C.3     1  LIG1        0.0534
     16 O          -3.4330    1.3960    0.0000 O.2     1  LIG1       -0.2426
@<TRIPOS>BOND
     1     1     2   ar
     2     1     5   ar
     3     1    16    2
     4     2     3   ar
     5     3     4   ar
     6     3    13   ar
     7     4     5   ar
     8     4     6   ar
     9     6     7   ar
    10     7     8   ar
    11     7    12   ar
    12     8     9   ar
    13     9    10   ar
    14     9    15    1
    15    10    11   ar
    16    10    14    1
    17    11    12   ar
    18    12    13   ar
