@<TRIPOS>MOLECULE
32237_ChemDiv_5645-0067
 22 24 0 0 0
SMALL
GASTEIGER
Energy = 0

@<TRIPOS>ATOM
      1 C          -1.3130    1.8080    0.0000 C.ar    1  LIG1        0.1497
      2 N          -1.8210    0.9790    0.0000 N.ar    1  LIG1       -0.2160
      3 N          -1.2380    0.2170    0.0000 N.ar    1  LIG1       -0.1511
      4 C          -0.2710    0.6250    0.0000 C.ar    1  LIG1        0.1587
      5 S          -0.3210    1.5750    0.0000 S.2     1  LIG1       -0.0340
      6 S           0.6380    0.0500    0.0000 S.3     1  LIG1       -0.0768
      7 C           1.4960    0.5210    0.0000 C.3     1  LIG1        0.1510
      8 C           2.3920    0.0130    0.0000 C.2     1  LIG1        0.2587
      9 N           2.3920   -0.9750    0.0000 N.am    1  LIG1       -0.1535
     10 C           3.2830   -1.4830    0.0000 C.ar    1  LIG1        0.1859
     11 N           4.2170   -1.1580    0.0000 N.ar    1  LIG1       -0.2209
     12 C           4.7670   -1.9500    0.0000 C.ar    1  LIG1        0.1079
     13 C           4.2170   -2.7710    0.0000 C.ar    1  LIG1        0.0588
     14 S           3.2830   -2.4460    0.0000 S.2     1  LIG1       -0.0491
     15 O           3.2420    0.5210    0.0000 O.2     1  LIG1       -0.2720
     16 C          -2.8380    0.8630    0.0000 C.ar    1  LIG1        0.0840
     17 C          -3.4210    1.6790    0.0000 C.ar    1  LIG1        0.0192
     18 C          -4.4460    1.5750    0.0000 C.ar    1  LIG1        0.0015
     19 C          -4.7710    0.6380    0.0000 C.ar    1  LIG1        0.0001
     20 C          -4.2130   -0.1540    0.0000 C.ar    1  LIG1        0.0015
     21 C          -3.2290   -0.0670    0.0000 C.ar    1  LIG1        0.0192
     22 S          -1.7540    2.7750    0.0000 S.2     1  LIG1       -0.0229
@<TRIPOS>BOND
     1     1     2   ar
     2     1     5   ar
     3     1    22    2
     4     2     3   ar
     5     2    16    1
     6     3     4   ar
     7     4     5   ar
     8     4     6    1
     9     6     7    1
    10     7     8    1
    11     8     9   am
    12     8    15    2
    13     9    10    1
    14    10    11   ar
    15    10    14   ar
    16    11    12   ar
    17    12    13   ar
    18    13    14   ar
    19    16    17   ar
    20    16    21   ar
    21    17    18   ar
    22    18    19   ar
    23    19    20   ar
    24    20    21   ar
