@<TRIPOS>MOLECULE
32235_ChemDiv_5641-2464
 23 24 0 0 0
SMALL
GASTEIGER
Energy = 0

@<TRIPOS>ATOM
      1 C          -0.0210   -1.2380    0.0000 C.2     1  LIG1        0.2492
      2 C          -0.8710   -0.7420    0.0000 C.ar    1  LIG1        0.0598
      3 C          -0.8710    0.2580    0.0000 C.ar    1  LIG1        0.0448
      4 C          -1.7420    0.7540    0.0000 C.ar    1  LIG1        0.1756
      5 C          -2.6170    0.2580    0.0000 C.ar    1  LIG1        0.2061
      6 C          -2.6000   -0.7540    0.0000 C.ar    1  LIG1        0.1756
      7 C          -1.7420   -1.2540    0.0000 C.ar    1  LIG1        0.0448
      8 O          -3.4630   -1.2540    0.0000 O.3     1  LIG1       -0.4683
      9 C          -3.4630   -2.2460    0.0000 C.3     1  LIG1        0.2526
     10 O          -3.4670    0.7540    0.0000 O.3     1  LIG1       -0.4654
     11 C          -4.3290    0.2460    0.0000 C.3     1  LIG1        0.2528
     12 O          -1.7420    1.7420    0.0000 O.3     1  LIG1       -0.4683
     13 C          -2.6170    2.2500    0.0000 C.3     1  LIG1        0.2526
     14 N           0.8540   -0.7420    0.0000 N.am    1  LIG1       -0.2761
     15 C           1.7250   -1.2380    0.0000 C.3     1  LIG1        0.0941
     16 C           2.5790   -0.7420    0.0000 C.3     1  LIG1        0.0271
     17 C           2.5790    0.2710    0.0000 C.3     1  LIG1        0.0399
     18 C           3.4540    0.7540    0.0000 C.2     1  LIG1        0.0501
     19 O           3.4630    1.7540    0.0000 O.co2   1  LIG1       -0.5492
     20 O           4.3250    0.2580    0.0000 O.co2   1  LIG1       -0.5492
     21 C           1.7250    0.7710    0.0000 C.3     1  LIG1        0.0271
     22 C           0.8540    0.2710    0.0000 C.3     1  LIG1        0.0941
     23 O          -0.0210   -2.2460    0.0000 O.2     1  LIG1       -0.2699
@<TRIPOS>BOND
     1     1     2    1
     2     1    14   am
     3     1    23    2
     4     2     3   ar
     5     2     7   ar
     6     3     4   ar
     7     4     5   ar
     8     4    12    1
     9     5     6   ar
    10     5    10    1
    11     6     7   ar
    12     6     8    1
    13     8     9    1
    14    10    11    1
    15    12    13    1
    16    14    15    1
    17    14    22    1
    18    15    16    1
    19    16    17    1
    20    17    18    1
    21    17    21    1
    22    18    19   ar
    23    18    20   ar
    24    21    22    1
