@<TRIPOS>MOLECULE
32249_ChemDiv_6352-0039
 27 29 0 0 0
SMALL
GASTEIGER
Energy = 0

@<TRIPOS>ATOM
      1 S           2.1630    0.0080    0.0000 S.O2    1  LIG1        0.0634
      2 C           3.0290   -0.4960    0.0000 C.ar    1  LIG1        0.1179
      3 C           3.8920    0.0080    0.0000 C.ar    1  LIG1       -0.0075
      4 C           4.7580   -0.4960    0.0000 C.ar    1  LIG1       -0.0284
      5 C           4.7580   -1.4960    0.0000 C.ar    1  LIG1       -0.0260
      6 C           3.8920   -1.9960    0.0000 C.ar    1  LIG1       -0.0032
      7 C           3.0290   -1.4960    0.0000 C.ar    1  LIG1        0.0192
      8 C           5.6250   -1.9960    0.0000 C.3     1  LIG1        0.0307
      9 C           5.6250    0.0080    0.0000 C.3     1  LIG1        0.0304
     10 C           3.8920    1.0080    0.0000 C.3     1  LIG1        0.0321
     11 N           1.2960    0.5000    0.0000 N.3     1  LIG1       -0.1433
     12 C           1.2960    1.5000    0.0000 C.3     1  LIG1        0.1585
     13 C           0.4290    2.0000    0.0000 C.3     1  LIG1        0.1586
     14 N          -0.4330    1.5000    0.0000 N.4     1  LIG1        0.3830
     15 C          -0.4330    0.5000    0.0000 C.3     1  LIG1        0.1586
     16 C           0.4290    0.0080    0.0000 C.3     1  LIG1        0.1585
     17 C          -1.3000    2.0000    0.0000 C.3     1  LIG1        0.1662
     18 C          -2.1670    1.5000    0.0000 C.2     1  LIG1        0.0359
     19 C          -3.0330    2.0000    0.0000 C.2     1  LIG1        0.0013
     20 C          -3.8960    1.5000    0.0000 C.ar    1  LIG1       -0.0001
     21 C          -4.7630    2.0000    0.0000 C.ar    1  LIG1       -0.0000
     22 C          -5.6290    1.5000    0.0000 C.ar    1  LIG1       -0.0000
     23 C          -5.6290    0.5000    0.0000 C.ar    1  LIG1       -0.0000
     24 C          -4.7630    0.0080    0.0000 C.ar    1  LIG1       -0.0000
     25 C          -3.8960    0.5000    0.0000 C.ar    1  LIG1       -0.0000
     26 O           1.6630   -0.8670    0.0000 O.2     1  LIG1       -0.1528
     27 O           2.6630    0.8710    0.0000 O.2     1  LIG1       -0.1528
@<TRIPOS>BOND
     1     1     2    1
     2     1    11    1
     3     1    26    2
     4     1    27    2
     5     2     3   ar
     6     2     7   ar
     7     3     4   ar
     8     3    10    1
     9     4     5   ar
    10     4     9    1
    11     5     6   ar
    12     5     8    1
    13     6     7   ar
    14    11    12    1
    15    11    16    1
    16    12    13    1
    17    13    14    1
    18    14    15    1
    19    14    17    1
    20    15    16    1
    21    17    18    1
    22    18    19    2
    23    19    20    1
    24    20    21   ar
    25    20    25   ar
    26    21    22   ar
    27    22    23   ar
    28    23    24   ar
    29    24    25   ar
