@<TRIPOS>MOLECULE
32248_ChemDiv_5800-0214
 24 27 0 0 0
SMALL
GASTEIGER
Energy = 0

@<TRIPOS>ATOM
      1 N           2.7750    0.5040    0.0000 N.am    1  LIG1       -0.2180
      2 C           2.7290    1.4710    0.0000 C.2     1  LIG1        0.2437
      3 O           1.7920    1.7500    0.0000 O.3     1  LIG1       -0.4290
      4 C           1.2500    0.9170    0.0000 C.2     1  LIG1        0.2010
      5 C           1.8670    0.1330    0.0000 C.2     1  LIG1        0.2900
      6 O           1.6210   -0.8170    0.0000 O.2     1  LIG1       -0.2661
      7 C           0.2500    0.7580    0.0000 C.2     1  LIG1        0.0423
      8 C          -0.0960   -0.1580    0.0000 C.ar    1  LIG1        0.0033
      9 C          -1.0960   -0.3080    0.0000 C.ar    1  LIG1        0.0033
     10 C          -1.4880   -1.2460    0.0000 C.ar    1  LIG1        0.0390
     11 C          -2.4580   -1.0960    0.0000 C.2     1  LIG1        0.1955
     12 C          -2.7330   -0.1580    0.0000 C.ar    1  LIG1        0.0390
     13 C          -1.8290    0.3630    0.0000 C.ar    1  LIG1        0.0032
     14 C          -1.8710    1.3330    0.0000 C.ar    1  LIG1        0.0001
     15 C          -2.7380    1.8750    0.0000 C.ar    1  LIG1        0.0000
     16 C          -3.5880    1.3540    0.0000 C.ar    1  LIG1        0.0001
     17 C          -3.6210    0.3460    0.0000 C.ar    1  LIG1        0.0032
     18 O          -3.1210   -1.8380    0.0000 O.2     1  LIG1       -0.2866
     19 C          -0.8580   -2.0540    0.0000 C.ar    1  LIG1        0.0032
     20 C           0.1040   -1.9670    0.0000 C.ar    1  LIG1        0.0001
     21 C           0.5250   -0.9920    0.0000 C.ar    1  LIG1        0.0001
     22 S           3.5420    2.0580    0.0000 S.2     1  LIG1        0.0068
     23 C           3.6170   -0.0080    0.0000 C.3     1  LIG1        0.1021
     24 C           3.6000   -1.0000    0.0000 C.3     1  LIG1        0.0238
@<TRIPOS>BOND
     1     1     2    1
     2     1     5   am
     3     1    23    1
     4     2     3    1
     5     2    22    2
     6     3     4    1
     7     4     5    1
     8     4     7    2
     9     5     6    2
    10     7     8    1
    11     8     9   ar
    12     8    21   ar
    13     9    10   ar
    14     9    13    1
    15    10    11    1
    16    10    19   ar
    17    11    12    1
    18    11    18    2
    19    12    13   ar
    20    12    17   ar
    21    13    14   ar
    22    14    15   ar
    23    15    16   ar
    24    16    17   ar
    25    19    20   ar
    26    20    21   ar
    27    23    24    1
