@<TRIPOS>MOLECULE
32241_ChemDiv_5698-3181
 25 27 0 0 0
SMALL
GASTEIGER
Energy = 0

@<TRIPOS>ATOM
      1 S          -0.0710   -1.8170    0.0000 S.O2    1  LIG1        0.0772
      2 N           0.6540   -2.4540    0.0000 N.3     1  LIG1       -0.0724
      3 C           1.3960   -3.1210    0.0000 C.3     1  LIG1        0.1482
      4 C           2.3500   -2.8130    0.0000 C.ar    1  LIG1        0.0267
      5 S           3.1670   -3.4040    0.0000 S.2     1  LIG1       -0.0893
      6 C           3.9670   -2.8040    0.0000 C.ar    1  LIG1        0.0352
      7 C           3.6500   -1.8460    0.0000 C.ar    1  LIG1        0.0072
      8 C           2.6500   -1.8630    0.0000 C.ar    1  LIG1        0.0042
      9 C          -0.8250   -1.2130    0.0000 C.ar    1  LIG1        0.1238
     10 C          -1.7330   -1.5630    0.0000 C.ar    1  LIG1        0.0231
     11 C          -2.4920   -0.9420    0.0000 C.ar    1  LIG1        0.0389
     12 C          -2.3380    0.0080    0.0000 C.ar    1  LIG1        0.1455
     13 O          -3.1630    0.5250    0.0000 O.3     1  LIG1       -0.4504
     14 C          -3.1420    1.4830    0.0000 C.ar    1  LIG1        0.1789
     15 C          -2.2790    1.9330    0.0000 C.ar    1  LIG1        0.1730
     16 O          -1.4670    1.4380    0.0000 O.3     1  LIG1       -0.4684
     17 C          -0.6130    1.8790    0.0000 C.3     1  LIG1        0.2526
     18 C          -2.2500    2.9040    0.0000 C.ar    1  LIG1        0.0401
     19 C          -3.0790    3.4080    0.0000 C.ar    1  LIG1        0.0033
     20 C          -3.9250    2.9380    0.0000 C.ar    1  LIG1        0.0033
     21 C          -3.9710    1.9880    0.0000 C.ar    1  LIG1        0.0406
     22 C          -1.4380    0.3580    0.0000 C.ar    1  LIG1        0.0389
     23 C          -0.6750   -0.2420    0.0000 C.ar    1  LIG1        0.0231
     24 O          -0.6580   -2.9210    0.0000 O.2     1  LIG1       -0.1516
     25 O           0.5170   -0.6380    0.0000 O.2     1  LIG1       -0.1516
@<TRIPOS>BOND
     1     1     2    1
     2     1     9    1
     3     1    24    2
     4     1    25    2
     5     2     3    1
     6     3     4    1
     7     4     5   ar
     8     4     8   ar
     9     5     6   ar
    10     6     7   ar
    11     7     8   ar
    12     9    10   ar
    13     9    23   ar
    14    10    11   ar
    15    11    12   ar
    16    12    13    1
    17    12    22   ar
    18    13    14    1
    19    14    15   ar
    20    14    21   ar
    21    15    16    1
    22    15    18   ar
    23    16    17    1
    24    18    19   ar
    25    19    20   ar
    26    20    21   ar
    27    22    23   ar
