@<TRIPOS>MOLECULE
32247_ChemDiv_5706-0365
 25 27 0 0 0
SMALL
GASTEIGER
Energy = 0

@<TRIPOS>ATOM
      1 S          -2.1670    0.0040    0.0000 S.O2    1  LIG1        0.0637
      2 N          -1.3080   -0.4960    0.0000 N.3     1  LIG1       -0.1433
      3 C          -0.4460    0.0040    0.0000 C.3     1  LIG1        0.1585
      4 C           0.4290   -0.4960    0.0000 C.3     1  LIG1        0.1586
      5 N           0.4290   -1.4960    0.0000 N.4     1  LIG1        0.3830
      6 C          -0.4460   -1.9960    0.0000 C.3     1  LIG1        0.1586
      7 C          -1.3080   -1.4960    0.0000 C.3     1  LIG1        0.1585
      8 C           1.2920   -1.9960    0.0000 C.3     1  LIG1        0.1662
      9 C           2.1630   -1.4960    0.0000 C.2     1  LIG1        0.0359
     10 C           3.0210   -1.9960    0.0000 C.2     1  LIG1        0.0013
     11 C           3.8960   -1.4960    0.0000 C.ar    1  LIG1       -0.0001
     12 C           3.8960   -0.4960    0.0000 C.ar    1  LIG1       -0.0000
     13 C           4.7580    0.0040    0.0000 C.ar    1  LIG1       -0.0000
     14 C           5.6290   -0.4960    0.0000 C.ar    1  LIG1       -0.0000
     15 C           5.6290   -1.4960    0.0000 C.ar    1  LIG1       -0.0000
     16 C           4.7580   -1.9960    0.0000 C.ar    1  LIG1       -0.0000
     17 C          -3.0380    0.5040    0.0000 C.ar    1  LIG1        0.1222
     18 C          -3.9040    0.0040    0.0000 C.ar    1  LIG1        0.0204
     19 C          -4.7750    0.5040    0.0000 C.ar    1  LIG1        0.0081
     20 C          -4.7750    1.5040    0.0000 C.ar    1  LIG1        0.0346
     21 C          -3.9040    2.0000    0.0000 C.ar    1  LIG1        0.0081
     22 C          -3.0380    1.5040    0.0000 C.ar    1  LIG1        0.0204
     23 BR         -5.6330    2.0000    0.0000 Br      1  LIG1       -0.0490
     24 O          -2.6670   -0.8540    0.0000 O.2     1  LIG1       -0.1528
     25 O          -1.6670    0.8670    0.0000 O.2     1  LIG1       -0.1528
@<TRIPOS>BOND
     1     1     2    1
     2     1    17    1
     3     1    24    2
     4     1    25    2
     5     2     3    1
     6     2     7    1
     7     3     4    1
     8     4     5    1
     9     5     6    1
    10     5     8    1
    11     6     7    1
    12     8     9    1
    13     9    10    2
    14    10    11    1
    15    11    12   ar
    16    11    16   ar
    17    12    13   ar
    18    13    14   ar
    19    14    15   ar
    20    15    16   ar
    21    17    18   ar
    22    17    22   ar
    23    18    19   ar
    24    19    20   ar
    25    20    21   ar
    26    20    23    1
    27    21    22   ar
