@<TRIPOS>MOLECULE
32243_ChemDiv_K691-0061
 33 36 0 0 0
SMALL
GASTEIGER
Energy = 0

@<TRIPOS>ATOM
      1 S          -0.0670   -4.2500    0.0000 S.O2    1  LIG1        0.0772
      2 N          -0.8830   -4.8380    0.0000 N.3     1  LIG1       -0.0696
      3 C          -1.7960   -4.4330    0.0000 C.3     1  LIG1        0.1795
      4 C          -2.6080   -5.0170    0.0000 C.ar    1  LIG1        0.1425
      5 O          -2.7250   -6.0040    0.0000 O.2     1  LIG1       -0.4532
      6 C          -3.7040   -6.2040    0.0000 C.ar    1  LIG1        0.1792
      7 C          -4.1880   -5.3500    0.0000 C.ar    1  LIG1        0.0435
      8 C          -3.5210   -4.6040    0.0000 C.ar    1  LIG1        0.0377
      9 C           0.7500   -3.6580    0.0000 C.ar    1  LIG1        0.1238
     10 C           1.6540   -4.0670    0.0000 C.ar    1  LIG1        0.0231
     11 C           2.4710   -3.4830    0.0000 C.ar    1  LIG1        0.0389
     12 C           2.3710   -2.4920    0.0000 C.ar    1  LIG1        0.1454
     13 O           3.1790   -1.9040    0.0000 O.3     1  LIG1       -0.4535
     14 C           3.0670   -0.9040    0.0000 C.ar    1  LIG1        0.1454
     15 C           2.1630   -0.4880    0.0000 C.ar    1  LIG1        0.0389
     16 C           2.0630    0.5080    0.0000 C.ar    1  LIG1        0.0231
     17 C           2.8670    1.0920    0.0000 C.ar    1  LIG1        0.1238
     18 S           2.7670    2.0920    0.0000 S.O2    1  LIG1        0.0772
     19 N           2.6710    3.0880    0.0000 N.3     1  LIG1       -0.0696
     20 C           3.4790    3.6710    0.0000 C.3     1  LIG1        0.1795
     21 C           3.3790    4.6670    0.0000 C.ar    1  LIG1        0.1425
     22 O           2.5710    5.2580    0.0000 O.2     1  LIG1       -0.4532
     23 C           2.8830    6.2040    0.0000 C.ar    1  LIG1        0.1792
     24 C           3.8830    6.1960    0.0000 C.ar    1  LIG1        0.0435
     25 C           4.1830    5.2500    0.0000 C.ar    1  LIG1        0.0377
     26 O           1.7710    1.9920    0.0000 O.2     1  LIG1       -0.1516
     27 O           3.7670    2.1920    0.0000 O.2     1  LIG1       -0.1516
     28 C           3.7790    0.6880    0.0000 C.ar    1  LIG1        0.0231
     29 C           3.8790   -0.3130    0.0000 C.ar    1  LIG1        0.0389
     30 C           1.4540   -2.0750    0.0000 C.ar    1  LIG1        0.0389
     31 C           0.6500   -2.6580    0.0000 C.ar    1  LIG1        0.0231
     32 O           0.5210   -5.0670    0.0000 O.2     1  LIG1       -0.1516
     33 O          -0.6580   -3.4330    0.0000 O.2     1  LIG1       -0.1516
@<TRIPOS>BOND
     1     1     2    1
     2     1     9    1
     3     1    32    2
     4     1    33    2
     5     2     3    1
     6     3     4    1
     7     4     5   ar
     8     4     8   ar
     9     5     6   ar
    10     6     7   ar
    11     7     8   ar
    12     9    10   ar
    13     9    31   ar
    14    10    11   ar
    15    11    12   ar
    16    12    13    1
    17    12    30   ar
    18    13    14    1
    19    14    15   ar
    20    14    29   ar
    21    15    16   ar
    22    16    17   ar
    23    17    18    1
    24    17    28   ar
    25    18    19    1
    26    18    26    2
    27    18    27    2
    28    19    20    1
    29    20    21    1
    30    21    22   ar
    31    21    25   ar
    32    22    23   ar
    33    23    24   ar
    34    24    25   ar
    35    28    29   ar
    36    30    31   ar
