@<TRIPOS>MOLECULE
32253_ChemDiv_6612-0187
 28 30 0 0 0
SMALL
GASTEIGER
Energy = 0

@<TRIPOS>ATOM
      1 S          -1.2540    1.2290    0.0000 S.O2    1  LIG1        0.0637
      2 N          -0.2580    1.2290    0.0000 N.3     1  LIG1       -0.1433
      3 C           0.2420    0.3630    0.0000 C.3     1  LIG1        0.1585
      4 C           1.2460    0.3630    0.0000 C.3     1  LIG1        0.1586
      5 N           1.7460    1.2290    0.0000 N.4     1  LIG1        0.3830
      6 C           1.2460    2.0920    0.0000 C.3     1  LIG1        0.1586
      7 C           0.2420    2.0920    0.0000 C.3     1  LIG1        0.1585
      8 C           2.7460    1.2290    0.0000 C.3     1  LIG1        0.1662
      9 C           3.2460    0.3670    0.0000 C.2     1  LIG1        0.0359
     10 C           4.2500    0.3670    0.0000 C.2     1  LIG1        0.0013
     11 C           4.7460   -0.4960    0.0000 C.ar    1  LIG1       -0.0001
     12 C           4.2500   -1.3580    0.0000 C.ar    1  LIG1       -0.0000
     13 C           4.7460   -2.2250    0.0000 C.ar    1  LIG1       -0.0000
     14 C           5.7500   -2.2250    0.0000 C.ar    1  LIG1       -0.0000
     15 C           6.2500   -1.3580    0.0000 C.ar    1  LIG1       -0.0000
     16 C           5.7500   -0.4960    0.0000 C.ar    1  LIG1       -0.0000
     17 C          -2.2540    1.2290    0.0000 C.ar    1  LIG1        0.1223
     18 C          -2.7540    2.1000    0.0000 C.ar    1  LIG1        0.0213
     19 C          -3.7580    2.1000    0.0000 C.ar    1  LIG1        0.0214
     20 C          -4.2580    1.2290    0.0000 C.ar    1  LIG1        0.1251
     21 S          -5.2580    1.2290    0.0000 S.O2    1  LIG1        0.0935
     22 O          -5.2580    0.2330    0.0000 O.2     1  LIG1       -0.1503
     23 O          -5.2580    2.2290    0.0000 O.2     1  LIG1       -0.1503
     24 N          -6.2500    1.2290    0.0000 N.3     1  LIG1        0.0392
     25 C          -3.7580    0.3670    0.0000 C.ar    1  LIG1        0.0214
     26 C          -2.7540    0.3670    0.0000 C.ar    1  LIG1        0.0213
     27 O          -1.2540    2.2290    0.0000 O.2     1  LIG1       -0.1528
     28 O          -1.2540    0.2330    0.0000 O.2     1  LIG1       -0.1528
@<TRIPOS>BOND
     1     1     2    1
     2     1    17    1
     3     1    27    2
     4     1    28    2
     5     2     3    1
     6     2     7    1
     7     3     4    1
     8     4     5    1
     9     5     6    1
    10     5     8    1
    11     6     7    1
    12     8     9    1
    13     9    10    2
    14    10    11    1
    15    11    12   ar
    16    11    16   ar
    17    12    13   ar
    18    13    14   ar
    19    14    15   ar
    20    15    16   ar
    21    17    18   ar
    22    17    26   ar
    23    18    19   ar
    24    19    20   ar
    25    20    21    1
    26    20    25   ar
    27    21    22    2
    28    21    23    2
    29    21    24    1
    30    25    26   ar
