@<TRIPOS>MOLECULE
32251_ChemDiv_6352-0043
 31 34 0 0 0
SMALL
GASTEIGER
Energy = 0

@<TRIPOS>ATOM
      1 S           1.7210    0.7580    0.0000 S.O2    1  LIG1        0.0637
      2 C           2.5880    0.2580    0.0000 C.ar    1  LIG1        0.1224
      3 C           2.5880   -0.7460    0.0000 C.ar    1  LIG1        0.0215
      4 C           3.4630   -1.2460    0.0000 C.ar    1  LIG1        0.0353
      5 C           4.3170   -0.7460    0.0000 C.ar    1  LIG1        0.1385
      6 C           4.3170    0.2580    0.0000 C.ar    1  LIG1        0.0383
      7 C           3.4540    0.7580    0.0000 C.ar    1  LIG1        0.0230
      8 O           5.1830   -1.2460    0.0000 O.3     1  LIG1       -0.4755
      9 C           5.1920   -2.2460    0.0000 C.3     1  LIG1        0.2055
     10 C           6.0580   -2.7460    0.0000 C.3     1  LIG1        0.0512
     11 C           3.4670   -2.2460    0.0000 C.ar    1  LIG1        0.0031
     12 C           2.6040   -2.7460    0.0000 C.ar    1  LIG1        0.0001
     13 C           1.7210   -2.2580    0.0000 C.ar    1  LIG1        0.0000
     14 C           1.7210   -1.2460    0.0000 C.ar    1  LIG1        0.0014
     15 N           0.8580    1.2500    0.0000 N.3     1  LIG1       -0.1433
     16 C           0.8580    2.2500    0.0000 C.3     1  LIG1        0.1585
     17 C          -0.0080    2.7500    0.0000 C.3     1  LIG1        0.1586
     18 N          -0.8710    2.2500    0.0000 N.4     1  LIG1        0.3830
     19 C          -0.8710    1.2500    0.0000 C.3     1  LIG1        0.1586
     20 C          -0.0080    0.7580    0.0000 C.3     1  LIG1        0.1585
     21 C          -1.7380    2.7500    0.0000 C.3     1  LIG1        0.1662
     22 C          -2.6000    2.2500    0.0000 C.2     1  LIG1        0.0359
     23 C          -3.4670    2.7500    0.0000 C.2     1  LIG1        0.0013
     24 C          -4.3330    2.2500    0.0000 C.ar    1  LIG1       -0.0001
     25 C          -4.3330    1.2500    0.0000 C.ar    1  LIG1       -0.0000
     26 C          -5.1960    0.7580    0.0000 C.ar    1  LIG1       -0.0000
     27 C          -6.0580    1.2500    0.0000 C.ar    1  LIG1       -0.0000
     28 C          -6.0580    2.2500    0.0000 C.ar    1  LIG1       -0.0000
     29 C          -5.1960    2.7500    0.0000 C.ar    1  LIG1       -0.0000
     30 O           1.2210   -0.1170    0.0000 O.2     1  LIG1       -0.1528
     31 O           2.2250    1.6250    0.0000 O.2     1  LIG1       -0.1528
@<TRIPOS>BOND
     1     1     2    1
     2     1    15    1
     3     1    30    2
     4     1    31    2
     5     2     3   ar
     6     2     7   ar
     7     3     4   ar
     8     3    14   ar
     9     4     5   ar
    10     4    11   ar
    11     5     6   ar
    12     5     8    1
    13     6     7   ar
    14     8     9    1
    15     9    10    1
    16    11    12   ar
    17    12    13   ar
    18    13    14   ar
    19    15    16    1
    20    15    20    1
    21    16    17    1
    22    17    18    1
    23    18    19    1
    24    18    21    1
    25    19    20    1
    26    21    22    1
    27    22    23    2
    28    23    24    1
    29    24    25   ar
    30    24    29   ar
    31    25    26   ar
    32    26    27   ar
    33    27    28   ar
    34    28    29   ar
