@<TRIPOS>MOLECULE
32255_ChemDiv_K940-0297
 27 29 0 0 0
SMALL
GASTEIGER
Energy = 0

@<TRIPOS>ATOM
      1 S           0.0000    2.2500    0.0000 S.O2    1  LIG1        0.0634
      2 N          -0.8790    1.7540    0.0000 N.3     1  LIG1       -0.1520
      3 C          -1.7420    2.2630    0.0000 C.3     1  LIG1        0.1173
      4 C          -2.6040    1.7540    0.0000 C.3     1  LIG1        0.1129
      5 N          -2.6170    0.7540    0.0000 N.am    1  LIG1       -0.2731
      6 C          -3.4790    0.2630    0.0000 C.2     1  LIG1        0.2492
      7 C          -3.4790   -0.7250    0.0000 C.2     1  LIG1        0.0579
      8 C          -2.6040   -1.2330    0.0000 C.2     1  LIG1        0.0047
      9 C          -2.6040   -2.2380    0.0000 C.ar    1  LIG1        0.0001
     10 C          -3.4540   -2.7330    0.0000 C.ar    1  LIG1        0.0000
     11 C          -3.4670   -3.7380    0.0000 C.ar    1  LIG1        0.0000
     12 C          -2.5920   -4.2460    0.0000 C.ar    1  LIG1        0.0000
     13 C          -1.7250   -3.7380    0.0000 C.ar    1  LIG1        0.0000
     14 C          -1.7250   -2.7460    0.0000 C.ar    1  LIG1        0.0000
     15 O          -4.3420    0.7540    0.0000 O.2     1  LIG1       -0.2699
     16 C          -1.7420    0.2750    0.0000 C.3     1  LIG1        0.1129
     17 C          -0.8790    0.7540    0.0000 C.3     1  LIG1        0.1173
     18 C           0.8630    2.7500    0.0000 C.ar    1  LIG1        0.1224
     19 C           1.7380    2.2500    0.0000 C.ar    1  LIG1        0.0230
     20 C           2.6040    2.7500    0.0000 C.ar    1  LIG1        0.0383
     21 C           2.6040    3.7580    0.0000 C.ar    1  LIG1        0.1388
     22 C           1.7420    4.2460    0.0000 C.ar    1  LIG1        0.0383
     23 C           0.8750    3.7500    0.0000 C.ar    1  LIG1        0.0230
     24 O           3.4750    4.2460    0.0000 O.3     1  LIG1       -0.4714
     25 C           4.3380    3.7580    0.0000 C.3     1  LIG1        0.2525
     26 O          -0.5000    3.1290    0.0000 O.2     1  LIG1       -0.1528
     27 O           0.5000    1.3880    0.0000 O.2     1  LIG1       -0.1528
@<TRIPOS>BOND
     1     1     2    1
     2     1    18    1
     3     1    26    2
     4     1    27    2
     5     2     3    1
     6     2    17    1
     7     3     4    1
     8     4     5    1
     9     5     6   am
    10     5    16    1
    11     6     7    1
    12     6    15    2
    13     7     8    2
    14     8     9    1
    15     9    10   ar
    16     9    14   ar
    17    10    11   ar
    18    11    12   ar
    19    12    13   ar
    20    13    14   ar
    21    16    17    1
    22    18    19   ar
    23    18    23   ar
    24    19    20   ar
    25    20    21   ar
    26    21    22   ar
    27    21    24    1
    28    22    23   ar
    29    24    25    1
