@<TRIPOS>MOLECULE
32254_ChemDiv_5816-0019
 22 25 0 0 0
SMALL
GASTEIGER
Energy = 0

@<TRIPOS>ATOM
      1 N           0.8420    0.2420    0.0000 N.ar    1  LIG1       -0.1651
      2 N          -0.0040   -0.2420    0.0000 N.ar    1  LIG1       -0.2297
      3 C          -0.8540    0.2420    0.0000 C.ar    1  LIG1        0.0845
      4 C          -0.8460    1.2170    0.0000 C.ar    1  LIG1        0.0402
      5 C           0.8420    1.2170    0.0000 C.ar    1  LIG1        0.1028
      6 C           1.6920    1.7040    0.0000 C.ar    1  LIG1        0.0194
      7 C           2.5380    1.2290    0.0000 C.ar    1  LIG1        0.0016
      8 C           3.3630    1.7210    0.0000 C.ar    1  LIG1        0.0000
      9 C           3.3630    2.6920    0.0000 C.ar    1  LIG1        0.0000
     10 C           2.5170    3.1790    0.0000 C.ar    1  LIG1        0.0000
     11 C           1.6670    2.6670    0.0000 C.ar    1  LIG1        0.0016
     12 C          -1.6960    1.7040    0.0000 C.ar    1  LIG1        0.0451
     13 C          -2.5380    1.2170    0.0000 C.ar    1  LIG1        0.1959
     14 C          -2.5380    0.2460    0.0000 C.ar    1  LIG1        0.0436
     15 C          -1.6960   -0.2290    0.0000 C.ar    1  LIG1        0.0225
     16 O          -3.3670    1.7040    0.0000 O.3     1  LIG1       -0.2866
     17 C          -0.0040   -1.2250    0.0000 C.ar    1  LIG1        0.0828
     18 C          -0.8460   -1.7000    0.0000 C.ar    1  LIG1        0.0191
     19 C          -0.8460   -2.6630    0.0000 C.ar    1  LIG1        0.0015
     20 C          -0.0040   -3.1750    0.0000 C.ar    1  LIG1        0.0001
     21 C           0.8250   -2.6630    0.0000 C.ar    1  LIG1        0.0015
     22 C           0.8250   -1.7000    0.0000 C.ar    1  LIG1        0.0191
@<TRIPOS>BOND
     1     1     2   ar
     2     1     5   ar
     3     2     3   ar
     4     2    17    1
     5     3     4   ar
     6     3    15   ar
     7     4     5   ar
     8     4    12   ar
     9     5     6    1
    10     6     7   ar
    11     6    11   ar
    12     7     8   ar
    13     8     9   ar
    14     9    10   ar
    15    10    11   ar
    16    12    13   ar
    17    13    14   ar
    18    13    16    1
    19    14    15   ar
    20    17    18   ar
    21    17    22   ar
    22    18    19   ar
    23    19    20   ar
    24    20    21   ar
    25    21    22   ar
