@<TRIPOS>MOLECULE
32252_ChemDiv_5807-1420
 26 28 0 0 0
SMALL
GASTEIGER
Energy = 0

@<TRIPOS>ATOM
      1 N           2.3170   -1.0580    0.0000 N.ar    1  LIG1       -0.1768
      2 C           2.8790   -1.8790    0.0000 C.ar    1  LIG1        0.4306
      3 O           2.3170   -2.6580    0.0000 O.2     1  LIG1       -0.4064
      4 C           1.3580   -2.3580    0.0000 C.ar    1  LIG1        0.1666
      5 C           1.3580   -1.3580    0.0000 C.ar    1  LIG1        0.1115
      6 C           0.4960   -0.8580    0.0000 C.ar    1  LIG1        0.0409
      7 C          -0.3670   -1.3580    0.0000 C.ar    1  LIG1        0.1238
      8 S          -1.2420   -0.8580    0.0000 S.O2    1  LIG1        0.0633
      9 N          -2.1420   -0.3580    0.0000 N.3     1  LIG1       -0.1555
     10 C          -2.1420    0.6420    0.0000 C.3     1  LIG1        0.0958
     11 C          -3.0040    1.1420    0.0000 C.3     1  LIG1        0.0192
     12 C          -3.8830    0.6420    0.0000 C.3     1  LIG1        0.0030
     13 C          -3.8830   -0.3580    0.0000 C.3     1  LIG1        0.0192
     14 C          -3.0040   -0.8580    0.0000 C.3     1  LIG1        0.0958
     15 O          -1.7670   -1.7420    0.0000 O.2     1  LIG1       -0.1528
     16 O          -0.7420    0.0210    0.0000 O.2     1  LIG1       -0.1528
     17 C          -0.3670   -2.3580    0.0000 C.ar    1  LIG1        0.0231
     18 C           0.4960   -2.8580    0.0000 C.ar    1  LIG1        0.0405
     19 O           3.8790   -1.8790    0.0000 O.2     1  LIG1       -0.2221
     20 C           2.6330   -0.0960    0.0000 C.2     1  LIG1        0.4260
     21 O           3.6170    0.1040    0.0000 O.2     1  LIG1       -0.2225
     22 O           1.9790    0.6580    0.0000 O.3     1  LIG1       -0.4324
     23 C           2.2790    1.6040    0.0000 C.3     1  LIG1        0.2103
     24 C           1.6170    2.3420    0.0000 C.3     1  LIG1        0.0475
     25 C           0.6460    2.1420    0.0000 C.3     1  LIG1        0.0038
     26 C          -0.0040    2.8630    0.0000 C.3     1  LIG1        0.0001
@<TRIPOS>BOND
     1     1     2   ar
     2     1     5   ar
     3     1    20   am
     4     2     3   ar
     5     2    19    2
     6     3     4   ar
     7     4     5   ar
     8     4    18   ar
     9     5     6   ar
    10     6     7   ar
    11     7     8    1
    12     7    17   ar
    13     8     9    1
    14     8    15    2
    15     8    16    2
    16     9    10    1
    17     9    14    1
    18    10    11    1
    19    11    12    1
    20    12    13    1
    21    13    14    1
    22    17    18   ar
    23    20    21    2
    24    20    22    1
    25    22    23    1
    26    23    24    1
    27    24    25    1
    28    25    26    1
