@<TRIPOS>MOLECULE
32256_ChemDiv_5816-0031
 18 20 0 0 0
SMALL
GASTEIGER
Energy = 0

@<TRIPOS>ATOM
      1 C           1.2290   -0.5630    0.0000 C.ar    1  LIG1        0.1960
      2 C           0.6670    0.2460    0.0000 C.ar    1  LIG1        0.0204
      3 C          -0.2830   -0.0500    0.0000 C.ar    1  LIG1        0.0387
      4 C          -0.2830   -1.0540    0.0000 C.ar    1  LIG1        0.1461
      5 O           0.6670   -1.3670    0.0000 O.2     1  LIG1       -0.4491
      6 C          -1.1420   -1.5630    0.0000 C.ar    1  LIG1        0.0430
      7 C          -1.9920   -1.0540    0.0000 C.ar    1  LIG1        0.0226
      8 C          -1.9920   -0.0500    0.0000 C.ar    1  LIG1       -0.0783
      9 C          -1.1420    0.4630    0.0000 C.ar    1  LIG1        0.0223
     10 BR         -1.1630    1.4630    0.0000 Br      1  LIG1       -0.0501
     11 O          -2.8920    0.4630    0.0000 O.co2   1  LIG1       -0.8722
     12 BR         -2.8670   -1.5830    0.0000 Br      1  LIG1       -0.0501
     13 C           0.9330    1.1960    0.0000 C.3     1  LIG1        0.0315
     14 C           1.8630    1.5880    0.0000 C.3     1  LIG1        0.0282
     15 C           2.7330    1.0960    0.0000 C.3     1  LIG1        0.1159
     16 N           2.8880    0.1250    0.0000 N.am    1  LIG1       -0.1991
     17 C           2.2290   -0.6380    0.0000 C.2     1  LIG1        0.2992
     18 O           2.6170   -1.5630    0.0000 O.2     1  LIG1       -0.2650
@<TRIPOS>BOND
     1     1     2   ar
     2     1     5   ar
     3     1    17    1
     4     2     3   ar
     5     2    13    1
     6     3     4   ar
     7     3     9   ar
     8     4     5   ar
     9     4     6   ar
    10     6     7   ar
    11     7     8   ar
    12     7    12    1
    13     8     9   ar
    14     8    11    1
    15     9    10    1
    16    13    14    1
    17    14    15    1
    18    15    16    1
    19    16    17   am
    20    17    18    2
