@<TRIPOS>MOLECULE
32263_ChemDiv_8014-2546
 21 23 0 0 0
SMALL
GASTEIGER
Energy = 0

@<TRIPOS>ATOM
      1 C           4.1130   -0.4250    0.0000 C.2     1  LIG1        0.3413
      2 C           3.1420   -0.4250    0.0000 C.ar    1  LIG1        0.0753
      3 C           2.6580    0.4130    0.0000 C.ar    1  LIG1        0.0288
      4 C           4.1130    1.2630    0.0000 C.3     1  LIG1        0.2356
      5 O           4.6080    0.4130    0.0000 O.3     1  LIG1       -0.4404
      6 C           1.6920    0.4130    0.0000 C.ar    1  LIG1        0.0161
      7 C           1.2040   -0.4250    0.0000 C.ar    1  LIG1        0.0735
      8 N           0.2330   -0.4250    0.0000 N.am    1  LIG1       -0.1755
      9 C          -0.2540    0.4130    0.0000 C.2     1  LIG1        0.2691
     10 C          -1.2210    0.4130    0.0000 C.2     1  LIG1        0.0598
     11 C          -1.7080   -0.4250    0.0000 C.2     1  LIG1        0.0047
     12 C          -2.6750   -0.4250    0.0000 C.ar    1  LIG1        0.0001
     13 C          -3.1580   -1.2580    0.0000 C.ar    1  LIG1        0.0000
     14 C          -4.1330   -1.2580    0.0000 C.ar    1  LIG1        0.0000
     15 C          -4.6130   -0.4250    0.0000 C.ar    1  LIG1        0.0000
     16 C          -4.1330    0.4130    0.0000 C.ar    1  LIG1        0.0000
     17 C          -3.1580    0.4130    0.0000 C.ar    1  LIG1        0.0000
     18 O           0.2330    1.2540    0.0000 O.2     1  LIG1       -0.2680
     19 C           1.6920   -1.2580    0.0000 C.ar    1  LIG1        0.0168
     20 C           2.6580   -1.2580    0.0000 C.ar    1  LIG1        0.0076
     21 O           4.6080   -1.2580    0.0000 O.2     1  LIG1       -0.2449
@<TRIPOS>BOND
     1     1     2    1
     2     1     5    1
     3     1    21    2
     4     2     3   ar
     5     2    20   ar
     6     3     4    1
     7     3     6   ar
     8     4     5    1
     9     6     7   ar
    10     7     8    1
    11     7    19   ar
    12     8     9   am
    13     9    10    1
    14     9    18    2
    15    10    11    2
    16    11    12    1
    17    12    13   ar
    18    12    17   ar
    19    13    14   ar
    20    14    15   ar
    21    15    16   ar
    22    16    17   ar
    23    19    20   ar
