@<TRIPOS>MOLECULE
32265_ChemDiv_8014-2644
 23 27 0 0 0
SMALL
GASTEIGER
Energy = 0

@<TRIPOS>ATOM
      1 C          -2.2330   -0.5130    0.0000 C.3     1  LIG1        0.0708
      2 C          -1.3790   -0.0210    0.0000 C.2     1  LIG1        0.2446
      3 N          -0.5290   -0.5130    0.0000 N.am    1  LIG1       -0.1792
      4 C           0.3250   -0.0210    0.0000 C.ar    1  LIG1        0.0732
      5 C           1.1750   -0.5130    0.0000 C.ar    1  LIG1        0.0161
      6 C           2.0290   -0.0210    0.0000 C.ar    1  LIG1        0.0288
      7 C           2.0290    0.9630    0.0000 C.ar    1  LIG1        0.0753
      8 C           3.7330    0.9630    0.0000 C.2     1  LIG1        0.3413
      9 O           3.7330   -0.0210    0.0000 O.3     1  LIG1       -0.4404
     10 C           2.8790   -0.5130    0.0000 C.3     1  LIG1        0.2356
     11 O           4.2250    1.8170    0.0000 O.2     1  LIG1       -0.2449
     12 C           1.1750    1.4580    0.0000 C.ar    1  LIG1        0.0076
     13 C           0.3250    0.9630    0.0000 C.ar    1  LIG1        0.0168
     14 O          -1.3790    0.9630    0.0000 O.2     1  LIG1       -0.2730
     15 C          -2.5630   -1.3500    0.0000 C.3     1  LIG1        0.0087
     16 C          -3.4040   -1.3130    0.0000 C.3     1  LIG1        0.0005
     17 C          -4.2290   -1.8130    0.0000 C.3     1  LIG1        0.0000
     18 C          -3.8580   -1.0290    0.0000 C.3     1  LIG1        0.0005
     19 C          -2.6790   -1.0420    0.0000 C.3     1  LIG1        0.0087
     20 C          -4.1380   -0.0250    0.0000 C.3     1  LIG1        0.0000
     21 C          -3.4540    0.6790    0.0000 C.3     1  LIG1        0.0005
     22 C          -2.4960    0.4380    0.0000 C.3     1  LIG1        0.0087
     23 C          -3.6960   -0.2710    0.0000 C.3     1  LIG1        0.0000
@<TRIPOS>BOND
     1     1     2    1
     2     1    15    1
     3     1    19    1
     4     1    22    1
     5     2     3   am
     6     2    14    2
     7     3     4    1
     8     4     5   ar
     9     4    13   ar
    10     5     6   ar
    11     6     7   ar
    12     6    10    1
    13     7     8    1
    14     7    12   ar
    15     8     9    1
    16     8    11    2
    17     9    10    1
    18    12    13   ar
    19    15    16    1
    20    16    17    1
    21    16    23    1
    22    17    18    1
    23    18    19    1
    24    18    20    1
    25    20    21    1
    26    21    22    1
    27    21    23    1
