@<TRIPOS>MOLECULE
32267_ChemDiv_8017-3869
 31 36 0 0 0
SMALL
GASTEIGER
Energy = 0

@<TRIPOS>ATOM
      1 C           1.1710   -2.9250    0.0000 C.3     1  LIG1        0.0189
      2 C           1.4790   -1.9750    0.0000 C.ar    1  LIG1       -0.0226
      3 C           2.4580   -1.7540    0.0000 C.ar    1  LIG1       -0.0012
      4 C           2.7580   -0.8040    0.0000 C.ar    1  LIG1        0.0366
      5 C           2.0920   -0.0750    0.0000 C.ar    1  LIG1        0.1393
      6 O           2.3960    0.8880    0.0000 O.3     1  LIG1       -0.4656
      7 C           2.7080    1.8380    0.0000 C.3     1  LIG1        0.2915
      8 C           2.0330    2.5880    0.0000 C.2     1  LIG1        0.2901
      9 N           1.0540    2.3750    0.0000 N.am    1  LIG1       -0.1761
     10 C           0.3880    3.1170    0.0000 C.ar    1  LIG1        0.0737
     11 C          -0.5960    2.9130    0.0000 C.ar    1  LIG1        0.0228
     12 C          -1.2580    3.6630    0.0000 C.ar    1  LIG1        0.0765
     13 C          -2.2580    3.6630    0.0000 C.2     1  LIG1        0.3414
     14 O          -2.5580    4.6040    0.0000 O.3     1  LIG1       -0.4404
     15 C          -1.7500    5.1880    0.0000 C.3     1  LIG1        0.2356
     16 C          -0.9460    4.5920    0.0000 C.ar    1  LIG1        0.0276
     17 C           0.0250    4.8040    0.0000 C.ar    1  LIG1        0.0009
     18 C           0.6960    4.0630    0.0000 C.ar    1  LIG1        0.0164
     19 O          -2.7630    2.8040    0.0000 O.2     1  LIG1       -0.2449
     20 O           2.3460    3.5380    0.0000 O.2     1  LIG1       -0.2689
     21 C           1.1170   -0.2790    0.0000 C.ar    1  LIG1        0.0366
     22 C           0.8080   -1.2290    0.0000 C.ar    1  LIG1       -0.0012
     23 C           0.5790   -3.7920    0.0000 C.3     1  LIG1        0.0040
     24 C           0.6830   -4.8170    0.0000 C.3     1  LIG1        0.0003
     25 C           1.6330   -5.0920    0.0000 C.3     1  LIG1        0.0000
     26 C           2.2080   -4.1960    0.0000 C.3     1  LIG1        0.0003
     27 C           2.1210   -3.2040    0.0000 C.3     1  LIG1        0.0040
     28 C           1.3210   -4.5080    0.0000 C.3     1  LIG1        0.0000
     29 C           0.4330   -4.2790    0.0000 C.3     1  LIG1        0.0003
     30 C           0.3330   -3.3170    0.0000 C.3     1  LIG1        0.0040
     31 C          -0.2670   -5.1880    0.0000 C.3     1  LIG1        0.0000
@<TRIPOS>BOND
     1     1     2    1
     2     1    23    1
     3     1    27    1
     4     1    30    1
     5     2     3   ar
     6     2    22   ar
     7     3     4   ar
     8     4     5   ar
     9     5     6    1
    10     5    21   ar
    11     6     7    1
    12     7     8    1
    13     8     9   am
    14     8    20    2
    15     9    10    1
    16    10    11   ar
    17    10    18   ar
    18    11    12   ar
    19    12    13    1
    20    12    16   ar
    21    13    14    1
    22    13    19    2
    23    14    15    1
    24    15    16    1
    25    16    17   ar
    26    17    18   ar
    27    21    22   ar
    28    23    24    1
    29    24    25    1
    30    24    31    1
    31    25    26    1
    32    26    27    1
    33    26    28    1
    34    28    29    1
    35    29    30    1
    36    29    31    1
