@<TRIPOS>MOLECULE
32261_ChemDiv_5785-0770
 22 24 0 0 0
SMALL
GASTEIGER
Energy = 0

@<TRIPOS>ATOM
      1 C          -1.2630   -2.9500    0.0000 C.2     1  LIG1        0.3414
      2 C          -1.7880   -2.1210    0.0000 C.ar    1  LIG1        0.0765
      3 C          -2.7540   -2.3670    0.0000 C.ar    1  LIG1        0.0276
      4 C          -2.8130   -3.3670    0.0000 C.3     1  LIG1        0.2356
      5 O          -1.9000   -3.7290    0.0000 O.3     1  LIG1       -0.4404
      6 C          -3.4580   -1.6630    0.0000 C.ar    1  LIG1        0.0009
      7 C          -3.2040   -0.7000    0.0000 C.ar    1  LIG1        0.0164
      8 C          -2.2250   -0.4330    0.0000 C.ar    1  LIG1        0.0752
      9 N          -1.9580    0.5330    0.0000 N.am    1  LIG1       -0.1607
     10 C          -0.9790    0.8000    0.0000 C.2     1  LIG1        0.3477
     11 N          -0.7080    1.7630    0.0000 N.am    1  LIG1       -0.1607
     12 C           0.2540    2.0040    0.0000 C.ar    1  LIG1        0.0752
     13 C           0.9580    1.3080    0.0000 C.ar    1  LIG1        0.0198
     14 C           1.9040    1.5540    0.0000 C.ar    1  LIG1        0.0382
     15 C           2.1880    2.5170    0.0000 C.ar    1  LIG1        0.1388
     16 C           1.4830    3.2170    0.0000 C.ar    1  LIG1        0.0382
     17 C           0.5210    2.9750    0.0000 C.ar    1  LIG1        0.0198
     18 O           3.1710    2.7630    0.0000 O.3     1  LIG1       -0.4714
     19 C           3.4540    3.7330    0.0000 C.3     1  LIG1        0.2525
     20 O          -0.2710    0.0750    0.0000 O.2     1  LIG1       -0.2484
     21 C          -1.5210   -1.1540    0.0000 C.ar    1  LIG1        0.0229
     22 O          -0.2580   -3.0130    0.0000 O.2     1  LIG1       -0.2449
@<TRIPOS>BOND
     1     1     2    1
     2     1     5    1
     3     1    22    2
     4     2     3   ar
     5     2    21   ar
     6     3     4    1
     7     3     6   ar
     8     4     5    1
     9     6     7   ar
    10     7     8   ar
    11     8     9    1
    12     8    21   ar
    13     9    10   am
    14    10    11   am
    15    10    20    2
    16    11    12    1
    17    12    13   ar
    18    12    17   ar
    19    13    14   ar
    20    14    15   ar
    21    15    16   ar
    22    15    18    1
    23    16    17   ar
    24    18    19    1
