@<TRIPOS>MOLECULE
32269_ChemDiv_8017-5695
 23 25 0 0 0
SMALL
GASTEIGER
Energy = 0

@<TRIPOS>ATOM
      1 C           4.5170   -1.9170    0.0000 C.2     1  LIG1        0.3413
      2 C           3.5670   -1.6170    0.0000 C.ar    1  LIG1        0.0753
      3 C           3.5630   -0.6170    0.0000 C.ar    1  LIG1        0.0288
      4 C           4.5130   -0.3040    0.0000 C.3     1  LIG1        0.2356
      5 O           5.1040   -1.1130    0.0000 O.3     1  LIG1       -0.4404
      6 C           2.7000   -0.1250    0.0000 C.ar    1  LIG1        0.0161
      7 C           1.8420   -0.6250    0.0000 C.ar    1  LIG1        0.0732
      8 N           0.9750   -0.1290    0.0000 N.am    1  LIG1       -0.1792
      9 C           0.1040   -0.6290    0.0000 C.2     1  LIG1        0.2459
     10 O           0.1040   -1.6290    0.0000 O.2     1  LIG1       -0.2730
     11 C          -0.7710   -0.1290    0.0000 C.3     1  LIG1        0.0918
     12 C          -0.7710    0.8710    0.0000 C.3     1  LIG1        0.0360
     13 C          -1.6330    1.3710    0.0000 C.ar    1  LIG1       -0.0215
     14 C          -1.6380    2.3830    0.0000 C.ar    1  LIG1       -0.0011
     15 C          -2.5080    2.8710    0.0000 C.ar    1  LIG1        0.0366
     16 C          -3.3710    2.3750    0.0000 C.ar    1  LIG1        0.1387
     17 C          -3.3710    1.3710    0.0000 C.ar    1  LIG1        0.0366
     18 C          -2.5080    0.8710    0.0000 C.ar    1  LIG1       -0.0011
     19 O          -4.2460    2.8710    0.0000 O.3     1  LIG1       -0.4714
     20 C          -5.1080    2.3710    0.0000 C.3     1  LIG1        0.2525
     21 C           1.8420   -1.6250    0.0000 C.ar    1  LIG1        0.0168
     22 C           2.7040   -2.1170    0.0000 C.ar    1  LIG1        0.0076
     23 O           4.8290   -2.8670    0.0000 O.2     1  LIG1       -0.2449
@<TRIPOS>BOND
     1     1     2    1
     2     1     5    1
     3     1    23    2
     4     2     3   ar
     5     2    22   ar
     6     3     4    1
     7     3     6   ar
     8     4     5    1
     9     6     7   ar
    10     7     8    1
    11     7    21   ar
    12     8     9   am
    13     9    10    2
    14     9    11    1
    15    11    12    1
    16    12    13    1
    17    13    14   ar
    18    13    18   ar
    19    14    15   ar
    20    15    16   ar
    21    16    17   ar
    22    16    19    1
    23    17    18   ar
    24    19    20    1
    25    21    22   ar
