@<TRIPOS>MOLECULE
32276_ChemDiv_5842-8706
 15 16 0 0 0
SMALL
GASTEIGER
Energy = 0

@<TRIPOS>ATOM
      1 S          -1.5580    1.3710    0.0000 S.O2    1  LIG1        0.0750
      2 N          -1.5580    0.3750    0.0000 N.pl3   1  LIG1       -0.1006
      3 C          -0.6920   -0.1250    0.0000 C.ar    1  LIG1        0.0904
      4 C           0.1750    0.3790    0.0000 C.ar    1  LIG1        0.0176
      5 C           1.0380   -0.1250    0.0000 C.ar    1  LIG1        0.0288
      6 C           1.0380   -1.1210    0.0000 C.ar    1  LIG1        0.0753
      7 C           1.9830   -1.4210    0.0000 C.2     1  LIG1        0.3413
      8 O           2.5670   -0.6170    0.0000 O.3     1  LIG1       -0.4404
      9 C           1.9830    0.1920    0.0000 C.3     1  LIG1        0.2356
     10 O           2.2960   -2.3670    0.0000 O.2     1  LIG1       -0.2449
     11 C           0.1750   -1.6170    0.0000 C.ar    1  LIG1        0.0076
     12 C          -0.6920   -1.1210    0.0000 C.ar    1  LIG1        0.0182
     13 O          -2.5710    1.3380    0.0000 O.2     1  LIG1       -0.1528
     14 O          -0.5330    1.3790    0.0000 O.2     1  LIG1       -0.1528
     15 C          -1.5710    2.3710    0.0000 C.3     1  LIG1        0.2016
@<TRIPOS>BOND
     1     1     2    1
     2     1    13    2
     3     1    14    2
     4     1    15    1
     5     2     3    1
     6     3     4   ar
     7     3    12   ar
     8     4     5   ar
     9     5     6   ar
    10     5     9    1
    11     6     7    1
    12     6    11   ar
    13     7     8    1
    14     7    10    2
    15     8     9    1
    16    11    12   ar
