@<TRIPOS>MOLECULE
32278_ChemDiv_5847-1319
 25 27 0 0 0
SMALL
GASTEIGER
Energy = 0

@<TRIPOS>ATOM
      1 C           3.1250    0.7580    0.0000 C.ar    1  LIG1        0.0726
      2 C           3.1250   -0.2420    0.0000 C.ar    1  LIG1        0.1451
      3 O           4.0830   -0.5460    0.0000 O.3     1  LIG1       -0.4669
      4 C           4.6630    0.2670    0.0000 C.3     1  LIG1        0.2737
      5 C           4.0710    1.0960    0.0000 C.2     1  LIG1        0.2198
      6 O           4.3750    2.0250    0.0000 O.2     1  LIG1       -0.2873
      7 C           2.2500   -0.7420    0.0000 C.ar    1  LIG1        0.0746
      8 C           1.3880   -0.2420    0.0000 C.ar    1  LIG1        0.1518
      9 O           0.5170   -0.7420    0.0000 O.3     1  LIG1       -0.4209
     10 C          -0.3580   -1.2500    0.0000 C.2     1  LIG1        0.3459
     11 C          -1.2210   -0.7420    0.0000 C.ar    1  LIG1        0.0823
     12 C          -1.2080    0.2500    0.0000 C.ar    1  LIG1        0.0467
     13 C          -2.0710    0.7500    0.0000 C.ar    1  LIG1        0.1757
     14 C          -2.9250    0.2500    0.0000 C.ar    1  LIG1        0.2061
     15 C          -2.9250   -0.7540    0.0000 C.ar    1  LIG1        0.1757
     16 C          -2.0580   -1.2500    0.0000 C.ar    1  LIG1        0.0467
     17 O          -3.8000   -1.2670    0.0000 O.3     1  LIG1       -0.4683
     18 C          -4.6670   -0.7670    0.0000 C.3     1  LIG1        0.2526
     19 O          -3.8000    0.7500    0.0000 O.3     1  LIG1       -0.4654
     20 C          -3.8000    1.7460    0.0000 C.3     1  LIG1        0.2528
     21 O          -2.0710    1.7460    0.0000 O.3     1  LIG1       -0.4683
     22 C          -1.2080    2.2460    0.0000 C.3     1  LIG1        0.2526
     23 O          -0.3580   -2.2420    0.0000 O.2     1  LIG1       -0.2445
     24 C           1.3880    0.7580    0.0000 C.ar    1  LIG1        0.0379
     25 C           2.2500    1.2630    0.0000 C.ar    1  LIG1        0.0091
@<TRIPOS>BOND
     1     1     2   ar
     2     1     5    1
     3     1    25   ar
     4     2     3    1
     5     2     7   ar
     6     3     4    1
     7     4     5    1
     8     5     6    2
     9     7     8   ar
    10     8     9    1
    11     8    24   ar
    12     9    10    1
    13    10    11    1
    14    10    23    2
    15    11    12   ar
    16    11    16   ar
    17    12    13   ar
    18    13    14   ar
    19    13    21    1
    20    14    15   ar
    21    14    19    1
    22    15    16   ar
    23    15    17    1
    24    17    18    1
    25    19    20    1
    26    21    22    1
    27    24    25   ar
