@<TRIPOS>MOLECULE
32277_ChemDiv_K940-3677
 27 29 0 0 0
SMALL
GASTEIGER
Energy = 0

@<TRIPOS>ATOM
      1 S           0.8500    1.7500    0.0000 S.O2    1  LIG1        0.0642
      2 C           1.7250    2.2580    0.0000 C.ar    1  LIG1        0.1335
      3 C           1.7380    3.2580    0.0000 C.ar    1  LIG1        0.0322
      4 C           2.5960    3.7540    0.0000 C.ar    1  LIG1        0.0591
      5 C           3.4630    3.2460    0.0000 C.ar    1  LIG1        0.0123
      6 C           3.4580    2.2500    0.0000 C.ar    1  LIG1        0.0136
      7 C           2.5880    1.7500    0.0000 C.ar    1  LIG1        0.0763
      8 CL          2.5830    0.7540    0.0000 Cl      1  LIG1       -0.0809
      9 CL          2.6000    4.7460    0.0000 Cl      1  LIG1       -0.0822
     10 N          -0.0130    1.2380    0.0000 N.3     1  LIG1       -0.1520
     11 C          -0.8750    1.7460    0.0000 C.3     1  LIG1        0.1173
     12 C          -1.7460    1.2540    0.0000 C.3     1  LIG1        0.1129
     13 N          -1.7460    0.2420    0.0000 N.am    1  LIG1       -0.2731
     14 C          -2.6040   -0.2460    0.0000 C.2     1  LIG1        0.2492
     15 C          -2.6040   -1.2330    0.0000 C.2     1  LIG1        0.0579
     16 C          -1.7290   -1.7420    0.0000 C.2     1  LIG1        0.0047
     17 C          -1.7290   -2.7420    0.0000 C.ar    1  LIG1        0.0001
     18 C          -2.5790   -3.2380    0.0000 C.ar    1  LIG1        0.0000
     19 C          -2.5920   -4.2380    0.0000 C.ar    1  LIG1        0.0000
     20 C          -1.7210   -4.7460    0.0000 C.ar    1  LIG1        0.0000
     21 C          -0.8540   -4.2380    0.0000 C.ar    1  LIG1        0.0000
     22 C          -0.8540   -3.2500    0.0000 C.ar    1  LIG1        0.0000
     23 O          -3.4670    0.2420    0.0000 O.2     1  LIG1       -0.2699
     24 C          -0.8750   -0.2500    0.0000 C.3     1  LIG1        0.1129
     25 C          -0.0130    0.2380    0.0000 C.3     1  LIG1        0.1173
     26 O           0.3460    2.6210    0.0000 O.2     1  LIG1       -0.1527
     27 O           1.3630    0.8750    0.0000 O.2     1  LIG1       -0.1527
@<TRIPOS>BOND
     1     1     2    1
     2     1    10    1
     3     1    26    2
     4     1    27    2
     5     2     3   ar
     6     2     7   ar
     7     3     4   ar
     8     4     5   ar
     9     4     9    1
    10     5     6   ar
    11     6     7   ar
    12     7     8    1
    13    10    11    1
    14    10    25    1
    15    11    12    1
    16    12    13    1
    17    13    14   am
    18    13    24    1
    19    14    15    1
    20    14    23    2
    21    15    16    2
    22    16    17    1
    23    17    18   ar
    24    17    22   ar
    25    18    19   ar
    26    19    20   ar
    27    20    21   ar
    28    21    22   ar
    29    24    25    1
