@<TRIPOS>MOLECULE
32286_ChemDiv_5849-2324
 28 32 0 0 0
SMALL
GASTEIGER
Energy = 0

@<TRIPOS>ATOM
      1 N           0.6290   -0.1130    0.0000 N.ar    1  LIG1       -0.2708
      2 C           1.6000   -0.3290    0.0000 C.ar    1  LIG1        0.1733
      3 N           2.1040    0.5210    0.0000 N.ar    1  LIG1       -0.1283
      4 N           1.4540    1.2710    0.0000 N.ar    1  LIG1       -0.1284
      5 C           0.5250    0.8710    0.0000 C.ar    1  LIG1        0.1703
      6 C          -0.3080    1.4330    0.0000 C.ar    1  LIG1        0.0363
      7 C          -0.2460    2.4250    0.0000 C.ar    1  LIG1        0.0031
      8 C          -1.0710    2.9710    0.0000 C.ar    1  LIG1        0.0001
      9 C          -1.9670    2.5420    0.0000 C.ar    1  LIG1        0.0000
     10 C          -2.0290    1.5380    0.0000 C.ar    1  LIG1        0.0001
     11 C          -1.1960    0.9670    0.0000 C.ar    1  LIG1        0.0031
     12 C           2.0420   -1.2250    0.0000 C.ar    1  LIG1        0.0708
     13 C           1.6000   -2.1290    0.0000 C.ar    1  LIG1        0.1482
     14 O           0.6290   -2.3580    0.0000 O.3     1  LIG1       -0.4519
     15 C          -0.1460   -1.7250    0.0000 C.ar    1  LIG1        0.1620
     16 C          -0.1460   -0.7330    0.0000 C.ar    1  LIG1        0.1019
     17 C          -1.0130   -0.2330    0.0000 C.ar    1  LIG1        0.0317
     18 C          -1.8710   -0.7330    0.0000 C.ar    1  LIG1        0.0797
     19 C          -1.8710   -1.7250    0.0000 C.ar    1  LIG1        0.0812
     20 C          -1.0130   -2.2380    0.0000 C.ar    1  LIG1        0.0499
     21 C          -2.7380   -2.2380    0.0000 C.1     1  LIG1        0.1012
     22 N          -3.6080   -2.7380    0.0000 N.1     1  LIG1       -0.1908
     23 C          -2.7540   -0.2330    0.0000 C.1     1  LIG1        0.1011
     24 N          -3.6080    0.2790    0.0000 N.1     1  LIG1       -0.1908
     25 C           2.1670   -2.9670    0.0000 C.ar    1  LIG1        0.0376
     26 C           3.1710   -2.8960    0.0000 C.ar    1  LIG1        0.0031
     27 C           3.6040   -1.9960    0.0000 C.ar    1  LIG1        0.0003
     28 C           3.0330   -1.1580    0.0000 C.ar    1  LIG1        0.0061
@<TRIPOS>BOND
     1     1     2   ar
     2     1     5   ar
     3     1    16    1
     4     2     3   ar
     5     2    12    1
     6     3     4   ar
     7     4     5   ar
     8     5     6    1
     9     6     7   ar
    10     6    11   ar
    11     7     8   ar
    12     8     9   ar
    13     9    10   ar
    14    10    11   ar
    15    12    13   ar
    16    12    28   ar
    17    13    14    1
    18    13    25   ar
    19    14    15    1
    20    15    16   ar
    21    15    20   ar
    22    16    17   ar
    23    17    18   ar
    24    18    19   ar
    25    18    23    1
    26    19    20   ar
    27    19    21    1
    28    21    22    3
    29    23    24    3
    30    25    26   ar
    31    26    27   ar
    32    27    28   ar
