@<TRIPOS>MOLECULE
32289_ChemDiv_C301-0855
 27 31 0 0 0
SMALL
GASTEIGER
Energy = 0

@<TRIPOS>ATOM
      1 C          -4.2210   -1.3670    0.0000 C.2     1  LIG1        0.3413
      2 C          -3.2500   -1.0500    0.0000 C.ar    1  LIG1        0.0753
      3 C          -3.2500   -0.0290    0.0000 C.ar    1  LIG1        0.0288
      4 C          -4.2210    0.2830    0.0000 C.3     1  LIG1        0.2356
      5 O          -4.8210   -0.5380    0.0000 O.3     1  LIG1       -0.4404
      6 C          -2.3710    0.4830    0.0000 C.ar    1  LIG1        0.0161
      7 C          -1.4880   -0.0250    0.0000 C.ar    1  LIG1        0.0732
      8 N          -0.6330    0.4750    0.0000 N.am    1  LIG1       -0.1792
      9 C           0.2290   -0.0170    0.0000 C.2     1  LIG1        0.2456
     10 C           1.0830    0.4830    0.0000 C.3     1  LIG1        0.0871
     11 C           1.9420   -0.0130    0.0000 C.3     1  LIG1        0.0078
     12 C           2.9290   -0.3380    0.0000 C.3     1  LIG1       -0.0035
     13 C           3.8790    0.0500    0.0000 C.3     1  LIG1       -0.0197
     14 C           3.8790    1.0210    0.0000 C.3     1  LIG1       -0.0079
     15 C           2.8750    1.3210    0.0000 C.3     1  LIG1       -0.0197
     16 C           1.9580    0.9670    0.0000 C.3     1  LIG1       -0.0035
     17 C           3.4130    0.5710    0.0000 C.3     1  LIG1       -0.0079
     18 C           3.4380   -0.3380    0.0000 C.3     1  LIG1       -0.0197
     19 C           2.5500   -0.7000    0.0000 C.3     1  LIG1       -0.0035
     20 C           4.4880   -0.7500    0.0000 C.3     1  LIG1       -0.0079
     21 O           0.2330   -1.0080    0.0000 O.2     1  LIG1       -0.2730
     22 C          -1.4790   -1.0500    0.0000 C.ar    1  LIG1        0.0168
     23 C          -2.3670   -1.5630    0.0000 C.ar    1  LIG1        0.0076
     24 O          -4.5290   -2.3040    0.0000 O.2     1  LIG1       -0.2449
     25 H           4.8170    0.3630    0.0000 H       1  LIG1        0.0318
     26 H           2.8380    2.3080    0.0000 H       1  LIG1        0.0318
     27 H           3.4380   -1.3250    0.0000 H       1  LIG1        0.0318
@<TRIPOS>BOND
     1     1     2    1
     2     1     5    1
     3     1    24    2
     4     2     3   ar
     5     2    23   ar
     6     3     4    1
     7     3     6   ar
     8     4     5    1
     9     6     7   ar
    10     7     8    1
    11     7    22   ar
    12     8     9   am
    13     9    10    1
    14     9    21    2
    15    10    11    1
    16    11    12    1
    17    11    16    1
    18    11    19    1
    19    12    13    1
    20    13    14    1
    21    13    20    1
    22    13    25    1
    23    15    14    1
    24    15    16    1
    25    15    17    1
    26    15    26    1
    27    17    18    1
    28    18    19    1
    29    18    20    1
    30    18    27    1
    31    22    23   ar
