@<TRIPOS>MOLECULE
32293_ChemDiv_5650-0060
 32 35 0 0 0
SMALL
GASTEIGER
Energy = 0

@<TRIPOS>ATOM
      1 C           0.8250    1.2290    0.0000 C.2     1  LIG1        0.1512
      2 C           1.6380    1.8420    0.0000 C.2     1  LIG1        0.3503
      3 O           1.6540    2.8500    0.0000 O.3     1  LIG1       -0.4068
      4 C           0.7790    3.3500    0.0000 C.3     1  LIG1        0.3704
      5 O          -0.0830    2.8500    0.0000 O.3     1  LIG1       -0.4068
      6 C          -0.0830    1.8420    0.0000 C.2     1  LIG1        0.3503
      7 O          -0.9670    1.3830    0.0000 O.2     1  LIG1       -0.2446
      8 C           0.7790    4.3210    0.0000 C.ar    1  LIG1        0.0613
      9 C          -0.0830    4.8170    0.0000 C.ar    1  LIG1        0.0030
     10 C          -0.0830    5.8130    0.0000 C.ar    1  LIG1       -0.0001
     11 C           0.7790    6.3170    0.0000 C.ar    1  LIG1       -0.0000
     12 C           1.6380    5.8130    0.0000 C.ar    1  LIG1       -0.0001
     13 C           1.6380    4.8170    0.0000 C.ar    1  LIG1        0.0030
     14 O           2.5210    1.4130    0.0000 O.2     1  LIG1       -0.2446
     15 C           0.8670    0.2460    0.0000 C.2     1  LIG1        0.0130
     16 C           0.0170   -0.2830    0.0000 C.ar    1  LIG1        0.0006
     17 C          -0.8540    0.1880    0.0000 C.ar    1  LIG1        0.0031
     18 C          -1.7000   -0.3380    0.0000 C.ar    1  LIG1        0.0369
     19 C          -1.6790   -1.3290    0.0000 C.ar    1  LIG1        0.1391
     20 O          -2.5250   -1.8500    0.0000 O.3     1  LIG1       -0.4706
     21 C          -2.5040   -2.8420    0.0000 C.3     1  LIG1        0.2320
     22 C          -1.6170   -3.3250    0.0000 C.ar    1  LIG1        0.0212
     23 C          -1.5960   -4.3170    0.0000 C.ar    1  LIG1        0.0004
     24 C          -0.7080   -4.7920    0.0000 C.ar    1  LIG1        0.0138
     25 C          -0.6880   -5.7920    0.0000 C.2     1  LIG1        0.0729
     26 O           0.1830   -6.2710    0.0000 O.co2   1  LIG1       -0.5446
     27 O          -1.5500   -6.3170    0.0000 O.co2   1  LIG1       -0.5446
     28 C           0.1380   -4.2750    0.0000 C.ar    1  LIG1        0.0011
     29 C           0.1130   -3.2790    0.0000 C.ar    1  LIG1       -0.0002
     30 C          -0.7710   -2.7960    0.0000 C.ar    1  LIG1       -0.0007
     31 C          -0.7960   -1.7960    0.0000 C.ar    1  LIG1        0.0369
     32 C           0.0540   -1.2830    0.0000 C.ar    1  LIG1        0.0031
@<TRIPOS>BOND
     1     1     2    1
     2     1     6    1
     3     1    15    2
     4     2     3    1
     5     2    14    2
     6     3     4    1
     7     4     5    1
     8     4     8    1
     9     5     6    1
    10     6     7    2
    11     8     9   ar
    12     8    13   ar
    13     9    10   ar
    14    10    11   ar
    15    11    12   ar
    16    12    13   ar
    17    15    16    1
    18    16    17   ar
    19    16    32   ar
    20    17    18   ar
    21    18    19   ar
    22    19    20    1
    23    19    31   ar
    24    20    21    1
    25    21    22    1
    26    22    23   ar
    27    22    30   ar
    28    23    24   ar
    29    24    25    1
    30    24    28   ar
    31    25    26   ar
    32    25    27   ar
    33    28    29   ar
    34    29    30   ar
    35    31    32   ar
