@<TRIPOS>MOLECULE
32304_ChemDiv_5954-0539
 29 32 0 0 0
SMALL
GASTEIGER
Energy = 0

@<TRIPOS>ATOM
      1 S          -2.1380    0.4670    0.0000 S.O2    1  LIG1        0.0665
      2 N          -1.2580   -0.0330    0.0000 N.3     1  LIG1       -0.1287
      3 C          -1.2580   -1.0290    0.0000 C.3     1  LIG1        0.1940
      4 N          -2.1380   -1.5710    0.0000 N.pl3   1  LIG1       -0.2156
      5 C          -3.0250   -1.0500    0.0000 C.ar    1  LIG1        0.0857
      6 C          -3.0130   -0.0330    0.0000 C.ar    1  LIG1        0.1370
      7 C          -3.9040    0.4670    0.0000 C.ar    1  LIG1        0.0212
      8 C          -4.7830   -0.0500    0.0000 C.ar    1  LIG1        0.0015
      9 C          -4.7830   -1.0630    0.0000 C.ar    1  LIG1        0.0014
     10 C          -3.9040   -1.5710    0.0000 C.ar    1  LIG1        0.0175
     11 C          -0.3960   -1.5130    0.0000 C.ar    1  LIG1        0.0143
     12 C          -0.3790   -2.5080    0.0000 C.ar    1  LIG1        0.0019
     13 C           0.4750   -2.9880    0.0000 C.ar    1  LIG1        0.0367
     14 C           1.3380   -2.4670    0.0000 C.ar    1  LIG1        0.1401
     15 C           1.3130   -1.4920    0.0000 C.ar    1  LIG1        0.0367
     16 C           0.4580   -1.0040    0.0000 C.ar    1  LIG1        0.0019
     17 O           2.1960   -2.9460    0.0000 O.3     1  LIG1       -0.4593
     18 C           3.0330   -2.4380    0.0000 C.3     1  LIG1        0.3090
     19 C           3.9080   -2.9170    0.0000 C.1     1  LIG1        0.1218
     20 N           4.7790   -3.4040    0.0000 N.1     1  LIG1       -0.1920
     21 C          -0.3750    0.4580    0.0000 C.3     1  LIG1        0.1243
     22 C          -0.3750    1.4460    0.0000 C.ar    1  LIG1       -0.0044
     23 C           0.4750    1.9420    0.0000 C.ar    1  LIG1       -0.0029
     24 C           0.4750    2.9170    0.0000 C.ar    1  LIG1       -0.0003
     25 C          -0.3750    3.4080    0.0000 C.ar    1  LIG1       -0.0000
     26 C          -1.2170    2.9130    0.0000 C.ar    1  LIG1       -0.0003
     27 C          -1.2170    1.9420    0.0000 C.ar    1  LIG1       -0.0029
     28 O          -1.4210    1.1960    0.0000 O.2     1  LIG1       -0.1527
     29 O          -2.8710    1.1960    0.0000 O.2     1  LIG1       -0.1527
@<TRIPOS>BOND
     1     1     2    1
     2     1     6    1
     3     1    28    2
     4     1    29    2
     5     2     3    1
     6     2    21    1
     7     3     4    1
     8     3    11    1
     9     4     5    1
    10     5     6   ar
    11     5    10   ar
    12     6     7   ar
    13     7     8   ar
    14     8     9   ar
    15     9    10   ar
    16    11    12   ar
    17    11    16   ar
    18    12    13   ar
    19    13    14   ar
    20    14    15   ar
    21    14    17    1
    22    15    16   ar
    23    17    18    1
    24    18    19    1
    25    19    20    3
    26    21    22    1
    27    22    23   ar
    28    22    27   ar
    29    23    24   ar
    30    24    25   ar
    31    25    26   ar
    32    26    27   ar
