@<TRIPOS>MOLECULE
32308_ChemDiv_5863-2191
 28 31 0 0 0
SMALL
GASTEIGER
Energy = 0

@<TRIPOS>ATOM
      1 N          -2.6080    1.4960    0.0000 N.ar    1  LIG1       -0.1966
      2 N          -2.6080    0.4830    0.0000 N.ar    1  LIG1       -0.1234
      3 C          -3.4670   -0.0250    0.0000 C.ar    1  LIG1        0.2955
      4 C          -4.3290    0.4830    0.0000 C.ar    1  LIG1        0.0689
      5 C          -4.3290    1.4960    0.0000 C.ar    1  LIG1        0.0672
      6 C          -3.4670    1.9830    0.0000 C.ar    1  LIG1        0.2779
      7 O          -3.4670    2.9880    0.0000 O.2     1  LIG1       -0.2655
      8 O          -3.4670   -1.0250    0.0000 O.3     1  LIG1       -0.2637
      9 C          -1.7420    2.0040    0.0000 C.3     1  LIG1        0.2065
     10 N          -0.8630    1.5130    0.0000 N.3     1  LIG1       -0.2415
     11 C          -0.8630    0.5170    0.0000 C.3     1  LIG1        0.1374
     12 C           0.0000    0.0080    0.0000 C.3     1  LIG1        0.1570
     13 N           0.8580    0.5290    0.0000 N.4     1  LIG1        0.3814
     14 C           1.7420    0.0210    0.0000 C.3     1  LIG1        0.1331
     15 C           2.6040    0.5290    0.0000 C.ar    1  LIG1        0.0328
     16 C           3.4670    0.0380    0.0000 C.ar    1  LIG1        0.0016
     17 C           4.3250    0.5460    0.0000 C.ar    1  LIG1       -0.0001
     18 C           4.3250    1.5420    0.0000 C.ar    1  LIG1       -0.0000
     19 C           3.4670    2.0380    0.0000 C.ar    1  LIG1       -0.0001
     20 C           2.6040    1.5290    0.0000 C.ar    1  LIG1        0.0016
     21 C           1.7420   -0.9750    0.0000 C.ar    1  LIG1        0.0328
     22 C           2.6040   -1.4830    0.0000 C.ar    1  LIG1        0.0016
     23 C           2.6040   -2.4750    0.0000 C.ar    1  LIG1       -0.0001
     24 C           1.7420   -2.9830    0.0000 C.ar    1  LIG1       -0.0000
     25 C           0.8790   -2.4750    0.0000 C.ar    1  LIG1       -0.0001
     26 C           0.8790   -1.4830    0.0000 C.ar    1  LIG1        0.0016
     27 C           0.8580    1.5290    0.0000 C.3     1  LIG1        0.1570
     28 C           0.0000    2.0210    0.0000 C.3     1  LIG1        0.1374
@<TRIPOS>BOND
     1     1     2   ar
     2     1     6   ar
     3     1     9    1
     4     2     3   ar
     5     3     4   ar
     6     3     8    1
     7     4     5   ar
     8     5     6   ar
     9     6     7    2
    10     9    10    1
    11    10    11    1
    12    10    28    1
    13    11    12    1
    14    12    13    1
    15    13    14    1
    16    13    27    1
    17    14    15    1
    18    14    21    1
    19    15    16   ar
    20    15    20   ar
    21    16    17   ar
    22    17    18   ar
    23    18    19   ar
    24    19    20   ar
    25    21    22   ar
    26    21    26   ar
    27    22    23   ar
    28    23    24   ar
    29    24    25   ar
    30    25    26   ar
    31    27    28    1
