@<TRIPOS>MOLECULE
32309_ChemDiv_5722-1298
 23 26 0 0 0
SMALL
GASTEIGER
Energy = 0

@<TRIPOS>ATOM
      1 N          -1.5920    1.3630    0.0000 N.ar    1  LIG1       -0.2603
      2 C          -1.0250    2.1500    0.0000 C.ar    1  LIG1        0.1828
      3 N          -1.5500    3.0380    0.0000 N.ar    1  LIG1       -0.2238
      4 C          -2.5210    2.7000    0.0000 C.ar    1  LIG1        0.0989
      5 C          -2.5210    1.6290    0.0000 C.ar    1  LIG1        0.0839
      6 C          -3.4080    1.1460    0.0000 C.ar    1  LIG1        0.0189
      7 C          -4.2830    1.6290    0.0000 C.ar    1  LIG1        0.0016
      8 C          -4.2830    2.7000    0.0000 C.ar    1  LIG1        0.0016
      9 C          -3.4080    3.1670    0.0000 C.ar    1  LIG1        0.0206
     10 C          -1.2960    0.3920    0.0000 C.3     1  LIG1        0.2590
     11 N          -0.3380    0.1960    0.0000 N.4     1  LIG1        0.3956
     12 C           0.0250   -0.7580    0.0000 C.3     1  LIG1        0.1414
     13 C           0.9670   -0.9630    0.0000 C.3     1  LIG1        0.0633
     14 C           1.6420   -0.2080    0.0000 C.3     1  LIG1        0.0162
     15 C           2.6080   -0.3540    0.0000 C.3     1  LIG1        0.0268
     16 C           2.9880   -1.2830    0.0000 C.ar    1  LIG1       -0.0222
     17 C           3.9420   -1.4670    0.0000 C.ar    1  LIG1       -0.0043
     18 C           4.2790   -2.4080    0.0000 C.ar    1  LIG1       -0.0003
     19 C           3.6790   -3.1630    0.0000 C.ar    1  LIG1       -0.0000
     20 C           2.6830   -3.0210    0.0000 C.ar    1  LIG1       -0.0003
     21 C           2.3420   -2.0830    0.0000 C.ar    1  LIG1       -0.0043
     22 C           1.3130    0.6960    0.0000 C.3     1  LIG1        0.0633
     23 C           0.3500    0.8960    0.0000 C.3     1  LIG1        0.1414
@<TRIPOS>BOND
     1     1     2   ar
     2     1     5   ar
     3     1    10    1
     4     2     3   ar
     5     3     4   ar
     6     4     5   ar
     7     4     9   ar
     8     5     6   ar
     9     6     7   ar
    10     7     8   ar
    11     8     9   ar
    12    10    11    1
    13    11    12    1
    14    11    23    1
    15    12    13    1
    16    13    14    1
    17    14    15    1
    18    14    22    1
    19    15    16    1
    20    16    17   ar
    21    16    21   ar
    22    17    18   ar
    23    18    19   ar
    24    19    20   ar
    25    20    21   ar
    26    22    23    1
