@<TRIPOS>MOLECULE
32306_ChemDiv_5862-0005
 20 22 0 0 0
SMALL
GASTEIGER
Energy = 0

@<TRIPOS>ATOM
      1 C           1.9420   -0.4960    0.0000 C.ar    1  LIG1        0.1107
      2 S           2.8880   -0.8000    0.0000 S.2     1  LIG1       -0.0669
      3 C           3.4790    0.0170    0.0000 C.ar    1  LIG1        0.0449
      4 C           2.8880    0.8210    0.0000 C.ar    1  LIG1        0.0097
      5 C           1.9290    0.5170    0.0000 C.ar    1  LIG1        0.0244
      6 C           1.0670    1.0040    0.0000 C.ar    1  LIG1        0.0035
      7 C           0.2040    0.5000    0.0000 C.ar    1  LIG1        0.0174
      8 C           0.2040   -0.4960    0.0000 C.ar    1  LIG1        0.0818
      9 N           1.0670   -0.9960    0.0000 N.ar    1  LIG1       -0.2388
     10 C          -0.6630   -1.0000    0.0000 C.ar    1  LIG1        0.0188
     11 C          -1.5290   -0.5130    0.0000 C.ar    1  LIG1       -0.0027
     12 C          -1.5290    0.5000    0.0000 C.ar    1  LIG1       -0.0221
     13 C          -0.6630    1.0000    0.0000 C.ar    1  LIG1       -0.0028
     14 C          -2.4000    1.0000    0.0000 C.3     1  LIG1        0.0264
     15 C          -3.2630    0.5000    0.0000 C.3     1  LIG1        0.0047
     16 C          -4.1170    1.0000    0.0000 C.3     1  LIG1        0.0003
     17 C          -4.9830    0.5000    0.0000 C.3     1  LIG1        0.0000
     18 C           4.4710    0.0170    0.0000 C.2     1  LIG1        0.0789
     19 O           4.9790   -0.8500    0.0000 O.co2   1  LIG1       -0.5441
     20 O           4.9710    0.8830    0.0000 O.co2   1  LIG1       -0.5441
@<TRIPOS>BOND
     1     1     2   ar
     2     1     5   ar
     3     1     9   ar
     4     2     3   ar
     5     3     4   ar
     6     3    18    1
     7     4     5   ar
     8     5     6   ar
     9     6     7   ar
    10     7     8   ar
    11     7    13   ar
    12     8     9   ar
    13     8    10   ar
    14    10    11   ar
    15    11    12   ar
    16    12    13   ar
    17    12    14    1
    18    14    15    1
    19    15    16    1
    20    16    17    1
    21    18    19   ar
    22    18    20   ar
