@<TRIPOS>MOLECULE
32301_ChemDiv_5927-0223
 24 26 0 0 0
SMALL
GASTEIGER
Energy = 0

@<TRIPOS>ATOM
      1 N          -1.8080   -0.0710    0.0000 N.ar    1  LIG1       -0.1893
      2 C          -2.5170    0.7000    0.0000 C.ar    1  LIG1        0.2033
      3 N          -1.9830    1.6040    0.0000 N.ar    1  LIG1       -0.0560
      4 O          -0.9670    1.3920    0.0000 O.2     1  LIG1       -0.3352
      5 C          -0.8790    0.3420    0.0000 C.ar    1  LIG1        0.2586
      6 C           0.0250   -0.1830    0.0000 C.3     1  LIG1        0.1996
      7 N           0.9250    0.3380    0.0000 N.pl3   1  LIG1       -0.2275
      8 C           1.7330   -0.1330    0.0000 C.ar    1  LIG1        0.0659
      9 C           1.7330   -1.0790    0.0000 C.ar    1  LIG1        0.0158
     10 C           2.5330   -1.5630    0.0000 C.ar    1  LIG1       -0.0029
     11 C           3.3630   -1.0960    0.0000 C.ar    1  LIG1       -0.0221
     12 C           3.3710   -0.1500    0.0000 C.ar    1  LIG1       -0.0029
     13 C           2.5500    0.3290    0.0000 C.ar    1  LIG1        0.0158
     14 C           4.1710   -1.5790    0.0000 C.3     1  LIG1        0.0264
     15 C           5.0080   -1.1080    0.0000 C.3     1  LIG1        0.0047
     16 C           5.8210   -1.6000    0.0000 C.3     1  LIG1        0.0003
     17 C           6.6420   -1.1250    0.0000 C.3     1  LIG1        0.0000
     18 C          -3.5460    0.5920    0.0000 C.ar    1  LIG1        0.0391
     19 C          -4.1630    1.4250    0.0000 C.ar    1  LIG1        0.0028
     20 C          -5.1960    1.3130    0.0000 C.ar    1  LIG1       -0.0042
     21 C          -5.6210    0.3710    0.0000 C.ar    1  LIG1       -0.0218
     22 C          -5.0040   -0.4750    0.0000 C.ar    1  LIG1       -0.0042
     23 C          -3.9670   -0.3670    0.0000 C.ar    1  LIG1        0.0028
     24 C          -6.6420    0.2580    0.0000 C.3     1  LIG1        0.0310
@<TRIPOS>BOND
     1     1     2   ar
     2     1     5   ar
     3     2     3   ar
     4     2    18    1
     5     3     4   ar
     6     4     5   ar
     7     5     6    1
     8     6     7    1
     9     7     8    1
    10     8     9   ar
    11     8    13   ar
    12     9    10   ar
    13    10    11   ar
    14    11    12   ar
    15    11    14    1
    16    12    13   ar
    17    14    15    1
    18    15    16    1
    19    16    17    1
    20    18    19   ar
    21    18    23   ar
    22    19    20   ar
    23    20    21   ar
    24    21    22   ar
    25    21    24    1
    26    22    23   ar
