@<TRIPOS>MOLECULE
32303_ChemDiv_5927-0237
 37 41 0 0 0
SMALL
GASTEIGER
Energy = 0

@<TRIPOS>ATOM
      1 N           1.4960    1.9290    0.0000 N.ar    1  LIG1       -0.1858
      2 C           2.3580    2.4420    0.0000 C.ar    1  LIG1        0.2035
      3 N           2.1330    3.4210    0.0000 N.ar    1  LIG1       -0.0558
      4 O           1.1290    3.5080    0.0000 O.2     1  LIG1       -0.3308
      5 C           0.7420    2.5880    0.0000 C.ar    1  LIG1        0.2944
      6 C          -0.2460    2.3630    0.0000 C.3     1  LIG1        0.2284
      7 N          -0.5420    1.4000    0.0000 N.4     1  LIG1        0.3922
      8 C          -1.5210    1.1750    0.0000 C.3     1  LIG1        0.2284
      9 C          -1.8130    0.2130    0.0000 C.ar    1  LIG1        0.2944
     10 N          -2.7210   -0.2130    0.0000 N.ar    1  LIG1       -0.1858
     11 C          -2.5880   -1.2170    0.0000 C.ar    1  LIG1        0.2035
     12 N          -1.6170   -1.3880    0.0000 N.ar    1  LIG1       -0.0558
     13 O          -1.1290   -0.5130    0.0000 O.2     1  LIG1       -0.3308
     14 C          -3.3420   -1.8710    0.0000 C.ar    1  LIG1        0.0391
     15 C          -4.2880   -1.5380    0.0000 C.ar    1  LIG1        0.0032
     16 C          -5.0500   -2.1920    0.0000 C.ar    1  LIG1        0.0001
     17 C          -4.8630   -3.1750    0.0000 C.ar    1  LIG1        0.0000
     18 C          -3.9170   -3.5040    0.0000 C.ar    1  LIG1        0.0001
     19 C          -3.1500   -2.8500    0.0000 C.ar    1  LIG1        0.0032
     20 C           0.1460    0.6710    0.0000 C.3     1  LIG1        0.1447
     21 C           1.1210    0.9040    0.0000 C.3     1  LIG1        0.0892
     22 C           1.8000    0.1630    0.0000 C.ar    1  LIG1       -0.0130
     23 C           1.5040   -0.7920    0.0000 C.ar    1  LIG1        0.0360
     24 C           2.1750   -1.5210    0.0000 C.ar    1  LIG1        0.1721
     25 C           3.1540   -1.3000    0.0000 C.ar    1  LIG1        0.1724
     26 C           3.4540   -0.3500    0.0000 C.ar    1  LIG1        0.0397
     27 C           2.7710    0.3830    0.0000 C.ar    1  LIG1       -0.0007
     28 O           3.8250   -2.0380    0.0000 O.3     1  LIG1       -0.4684
     29 C           3.5250   -2.9920    0.0000 C.3     1  LIG1        0.2526
     30 O           1.8790   -2.4790    0.0000 O.3     1  LIG1       -0.4684
     31 C           0.9040   -2.6960    0.0000 C.3     1  LIG1        0.2526
     32 C           3.2500    2.0210    0.0000 C.ar    1  LIG1        0.0391
     33 C           4.0750    2.5830    0.0000 C.ar    1  LIG1        0.0032
     34 C           4.9630    2.1540    0.0000 C.ar    1  LIG1        0.0001
     35 C           5.0460    1.1580    0.0000 C.ar    1  LIG1        0.0000
     36 C           4.2460    0.6000    0.0000 C.ar    1  LIG1        0.0001
     37 C           3.3330    1.0290    0.0000 C.ar    1  LIG1        0.0032
@<TRIPOS>BOND
     1     1     2   ar
     2     1     5   ar
     3     2     3   ar
     4     2    32    1
     5     3     4   ar
     6     4     5   ar
     7     5     6    1
     8     6     7    1
     9     7     8    1
    10     7    20    1
    11     8     9    1
    12     9    10   ar
    13     9    13   ar
    14    10    11   ar
    15    11    12   ar
    16    11    14    1
    17    12    13   ar
    18    14    15   ar
    19    14    19   ar
    20    15    16   ar
    21    16    17   ar
    22    17    18   ar
    23    18    19   ar
    24    20    21    1
    25    21    22    1
    26    22    23   ar
    27    22    27   ar
    28    23    24   ar
    29    24    25   ar
    30    24    30    1
    31    25    26   ar
    32    25    28    1
    33    26    27   ar
    34    28    29    1
    35    30    31    1
    36    32    33   ar
    37    32    37   ar
    38    33    34   ar
    39    34    35   ar
    40    35    36   ar
    41    36    37   ar
