@<TRIPOS>MOLECULE
32302_ChemDiv_5954-0206
 31 34 0 0 0
SMALL
GASTEIGER
Energy = 0

@<TRIPOS>ATOM
      1 S          -2.1380    0.9630    0.0000 S.O2    1  LIG1        0.0665
      2 N          -1.2540    0.4630    0.0000 N.3     1  LIG1       -0.1287
      3 C          -1.2540   -0.5330    0.0000 C.3     1  LIG1        0.1940
      4 N          -2.1380   -1.0790    0.0000 N.pl3   1  LIG1       -0.2156
      5 C          -3.0250   -0.5540    0.0000 C.ar    1  LIG1        0.0857
      6 C          -3.0080    0.4630    0.0000 C.ar    1  LIG1        0.1370
      7 C          -3.9040    0.9630    0.0000 C.ar    1  LIG1        0.0212
      8 C          -4.7880    0.4500    0.0000 C.ar    1  LIG1        0.0015
      9 C          -4.7880   -0.5710    0.0000 C.ar    1  LIG1        0.0014
     10 C          -3.9040   -1.0790    0.0000 C.ar    1  LIG1        0.0175
     11 C          -0.3880   -1.0210    0.0000 C.ar    1  LIG1        0.0143
     12 C          -0.3750   -2.0170    0.0000 C.ar    1  LIG1        0.0019
     13 C           0.4830   -2.4960    0.0000 C.ar    1  LIG1        0.0367
     14 C           1.3250   -1.9790    0.0000 C.ar    1  LIG1        0.1394
     15 O           2.2000   -2.4580    0.0000 O.3     1  LIG1       -0.4638
     16 C           3.0460   -1.9580    0.0000 C.3     1  LIG1        0.3141
     17 C           3.9000   -2.4500    0.0000 C.2     1  LIG1        0.3621
     18 O           4.7540   -1.9330    0.0000 O.2     1  LIG1       -0.2459
     19 O           3.9250   -3.4290    0.0000 O.3     1  LIG1       -0.4418
     20 C           4.7830   -3.9080    0.0000 C.3     1  LIG1        0.2557
     21 C           1.3250   -1.0000    0.0000 C.ar    1  LIG1        0.0367
     22 C           0.4630   -0.5210    0.0000 C.ar    1  LIG1        0.0019
     23 C          -0.3710    0.9580    0.0000 C.3     1  LIG1        0.1243
     24 C          -0.3710    1.9460    0.0000 C.ar    1  LIG1       -0.0044
     25 C          -1.2130    2.4420    0.0000 C.ar    1  LIG1       -0.0029
     26 C          -1.2130    3.4130    0.0000 C.ar    1  LIG1       -0.0003
     27 C          -0.3710    3.9130    0.0000 C.ar    1  LIG1       -0.0000
     28 C           0.4830    3.4210    0.0000 C.ar    1  LIG1       -0.0003
     29 C           0.4830    2.4420    0.0000 C.ar    1  LIG1       -0.0029
     30 O          -1.4170    1.6960    0.0000 O.2     1  LIG1       -0.1527
     31 O          -2.8710    1.6960    0.0000 O.2     1  LIG1       -0.1527
@<TRIPOS>BOND
     1     1     2    1
     2     1     6    1
     3     1    30    2
     4     1    31    2
     5     2     3    1
     6     2    23    1
     7     3     4    1
     8     3    11    1
     9     4     5    1
    10     5     6   ar
    11     5    10   ar
    12     6     7   ar
    13     7     8   ar
    14     8     9   ar
    15     9    10   ar
    16    11    12   ar
    17    11    22   ar
    18    12    13   ar
    19    13    14   ar
    20    14    15    1
    21    14    21   ar
    22    15    16    1
    23    16    17    1
    24    17    18    2
    25    17    19    1
    26    19    20    1
    27    21    22   ar
    28    23    24    1
    29    24    25   ar
    30    24    29   ar
    31    25    26   ar
    32    26    27   ar
    33    27    28   ar
    34    28    29   ar
