@<TRIPOS>MOLECULE
32312_ChemDiv_5867-1991
 31 34 0 0 0
SMALL
GASTEIGER
Energy = 0

@<TRIPOS>ATOM
      1 C          -1.2710    0.5500    0.0000 C.ar    1  LIG1        0.0920
      2 C          -0.4630   -0.0330    0.0000 C.ar    1  LIG1        0.0155
      3 C           0.4500    0.3580    0.0000 C.ar    1  LIG1        0.0490
      4 C           0.5670    1.3670    0.0000 C.ar    1  LIG1        0.0623
      5 N          -0.2420    1.9500    0.0000 N.ar    1  LIG1       -0.2427
      6 C          -1.1540    1.5460    0.0000 C.ar    1  LIG1        0.1162
      7 S          -1.9630    2.1460    0.0000 S.3     1  LIG1       -0.0878
      8 C          -1.8500    3.1330    0.0000 C.3     1  LIG1        0.1097
      9 C          -0.9290    3.5380    0.0000 C.ar    1  LIG1        0.0769
     10 N          -0.0790    3.0460    0.0000 N.ar    1  LIG1       -0.2461
     11 C           0.6580    3.7130    0.0000 C.ar    1  LIG1        0.0883
     12 S           0.2540    4.6040    0.0000 S.2     1  LIG1       -0.0705
     13 C          -0.7210    4.5000    0.0000 C.ar    1  LIG1        0.0521
     14 C           1.6290    3.5330    0.0000 C.3     1  LIG1        0.0594
     15 C           1.4880    1.7710    0.0000 C.3     1  LIG1        0.0463
     16 C           2.3000    1.1750    0.0000 C.3     1  LIG1        0.0128
     17 C           2.1920    0.1630    0.0000 C.3     1  LIG1        0.0695
     18 C           1.2630   -0.2290    0.0000 C.2     1  LIG1        0.1742
     19 O           1.1500   -1.2290    0.0000 O.2     1  LIG1       -0.2913
     20 C           2.6750    2.1000    0.0000 C.3     1  LIG1        0.0008
     21 C           3.1000    0.5670    0.0000 C.3     1  LIG1        0.0008
     22 C          -0.5670   -1.0380    0.0000 C.ar    1  LIG1        0.0010
     23 C           0.2330   -1.6170    0.0000 C.ar    1  LIG1        0.0031
     24 C           0.1290   -2.6170    0.0000 C.ar    1  LIG1        0.0369
     25 C          -0.7920   -3.0210    0.0000 C.ar    1  LIG1        0.1387
     26 C          -1.5960   -2.4250    0.0000 C.ar    1  LIG1        0.0369
     27 C          -1.4920   -1.4330    0.0000 C.ar    1  LIG1        0.0031
     28 O          -0.9130   -4.0170    0.0000 O.3     1  LIG1       -0.4714
     29 C          -0.0960   -4.6040    0.0000 C.3     1  LIG1        0.2525
     30 C          -2.1830    0.1500    0.0000 C.1     1  LIG1        0.1025
     31 N          -3.1040   -0.2460    0.0000 N.1     1  LIG1       -0.1908
@<TRIPOS>BOND
     1     1     2   ar
     2     1     6   ar
     3     1    30    1
     4     2     3   ar
     5     2    22    1
     6     3     4   ar
     7     3    18    1
     8     4     5   ar
     9     4    15    1
    10     5     6   ar
    11     6     7    1
    12     7     8    1
    13     8     9    1
    14     9    10   ar
    15     9    13   ar
    16    10    11   ar
    17    11    12   ar
    18    11    14    1
    19    12    13   ar
    20    15    16    1
    21    16    17    1
    22    16    20    1
    23    16    21    1
    24    17    18    1
    25    18    19    2
    26    22    23   ar
    27    22    27   ar
    28    23    24   ar
    29    24    25   ar
    30    25    26   ar
    31    25    28    1
    32    26    27   ar
    33    28    29    1
    34    30    31    3
