@<TRIPOS>MOLECULE
32317_ChemDiv_5731-0259
 21 23 0 0 0
SMALL
GASTEIGER
Energy = 0

@<TRIPOS>ATOM
      1 N          -1.2880   -1.7500    0.0000 N.ar    1  LIG1       -0.2117
      2 C          -0.4250   -1.2540    0.0000 C.ar    1  LIG1        0.2247
      3 C          -0.4330   -0.2460    0.0000 C.ar    1  LIG1        0.0535
      4 C          -1.2880    0.2500    0.0000 C.ar    1  LIG1       -0.0158
      5 C          -2.1540   -0.2580    0.0000 C.ar    1  LIG1        0.0140
      6 C          -2.1540   -1.2540    0.0000 C.ar    1  LIG1        0.0841
      7 C          -3.0250   -1.7630    0.0000 C.ar    1  LIG1        0.0192
      8 C          -3.8920   -1.2710    0.0000 C.ar    1  LIG1        0.0015
      9 C          -3.8920   -0.2580    0.0000 C.ar    1  LIG1        0.0001
     10 C          -3.0250    0.2380    0.0000 C.ar    1  LIG1        0.0012
     11 C          -1.3040    1.2500    0.0000 C.3     1  LIG1        0.0312
     12 O           0.4420   -1.7500    0.0000 O.3     1  LIG1       -0.4537
     13 C           1.3170   -1.2460    0.0000 C.3     1  LIG1        0.2675
     14 C           1.3040   -0.2460    0.0000 C.3     1  LIG1        0.1569
     15 N           2.1580    0.2630    0.0000 N.4     1  LIG1        0.3044
     16 C           1.4540    0.9750    0.0000 C.3     1  LIG1        0.1706
     17 C           3.0290   -0.2330    0.0000 C.3     1  LIG1        0.1088
     18 C           3.8880    0.2750    0.0000 C.3     1  LIG1        0.0612
     19 C           3.8880    1.2750    0.0000 C.3     1  LIG1        0.0122
     20 C           3.0080    1.7670    0.0000 C.3     1  LIG1        0.0612
     21 C           2.1540    1.2580    0.0000 C.3     1  LIG1        0.1088
@<TRIPOS>BOND
     1     1     2   ar
     2     1     6   ar
     3     2     3   ar
     4     2    12    1
     5     3     4   ar
     6     4     5   ar
     7     4    11    1
     8     5     6   ar
     9     5    10   ar
    10     6     7   ar
    11     7     8   ar
    12     8     9   ar
    13     9    10   ar
    14    12    13    1
    15    13    14    1
    16    14    15    1
    17    15    16    1
    18    15    17    1
    19    15    21    1
    20    17    18    1
    21    18    19    1
    22    19    20    1
    23    20    21    1
