@<TRIPOS>MOLECULE
32313_ChemDiv_5728-0465
 26 29 0 0 0
SMALL
GASTEIGER
Energy = 0

@<TRIPOS>ATOM
      1 N          -0.8880   -0.7790    0.0000 N.ar    1  LIG1       -0.2474
      2 C          -0.8880    0.2330    0.0000 C.ar    1  LIG1        0.2401
      3 N          -0.0330    0.7250    0.0000 N.ar    1  LIG1       -0.1943
      4 C           0.8420    0.2330    0.0000 C.ar    1  LIG1        0.1560
      5 C           0.8420   -0.7790    0.0000 C.ar    1  LIG1        0.0494
      6 C          -0.0330   -1.2710    0.0000 C.ar    1  LIG1        0.0502
      7 C          -0.0130   -2.2920    0.0000 C.3     1  LIG1        0.0507
      8 N           1.7170    0.7580    0.0000 N.pl3   1  LIG1       -0.1940
      9 C           2.5920    0.2630    0.0000 C.ar    1  LIG1        0.0732
     10 C           3.4460    0.7710    0.0000 C.ar    1  LIG1        0.0293
     11 C           3.4460    1.7580    0.0000 C.2     1  LIG1        0.0741
     12 O           2.5920    2.2580    0.0000 O.co2   1  LIG1       -0.5446
     13 O           4.2710    2.2960    0.0000 O.co2   1  LIG1       -0.5446
     14 C           4.3210    0.2830    0.0000 C.ar    1  LIG1        0.0024
     15 C           4.3330   -0.7080    0.0000 C.ar    1  LIG1        0.0001
     16 C           3.4880   -1.2170    0.0000 C.ar    1  LIG1        0.0013
     17 C           2.6040   -0.7290    0.0000 C.ar    1  LIG1        0.0166
     18 N          -1.7420    0.7250    0.0000 N.ar    1  LIG1       -0.2109
     19 C          -2.6000    0.2330    0.0000 C.ar    1  LIG1        0.0890
     20 C          -2.6000   -0.7790    0.0000 C.ar    1  LIG1        0.0743
     21 C          -1.7420   -1.2710    0.0000 C.ar    1  LIG1        0.2681
     22 O          -1.7420   -2.2670    0.0000 O.2     1  LIG1       -0.2665
     23 C          -3.4500   -1.2880    0.0000 C.ar    1  LIG1        0.0063
     24 C          -4.3380   -0.7960    0.0000 C.ar    1  LIG1        0.0003
     25 C          -4.3380    0.2500    0.0000 C.ar    1  LIG1        0.0015
     26 C          -3.4500    0.7380    0.0000 C.ar    1  LIG1        0.0194
@<TRIPOS>BOND
     1     1     2   ar
     2     1     6   ar
     3     1    21   ar
     4     2     3   ar
     5     2    18   ar
     6     3     4   ar
     7     4     5   ar
     8     4     8    1
     9     5     6   ar
    10     6     7    1
    11     8     9    1
    12     9    10   ar
    13     9    17   ar
    14    10    11    1
    15    10    14   ar
    16    11    12   ar
    17    11    13   ar
    18    14    15   ar
    19    15    16   ar
    20    16    17   ar
    21    18    19   ar
    22    19    20   ar
    23    19    26   ar
    24    20    21   ar
    25    20    23   ar
    26    21    22    2
    27    23    24   ar
    28    24    25   ar
    29    25    26   ar
