@<TRIPOS>MOLECULE
32314_ChemDiv_8001-8216
 25 27 0 0 0
SMALL
GASTEIGER
Energy = 0

@<TRIPOS>ATOM
      1 C          -0.8830   -1.2790    0.0000 C.ar    1  LIG1        0.1163
      2 C          -0.8830   -0.2790    0.0000 C.ar    1  LIG1        0.0920
      3 C          -1.7540    0.2130    0.0000 C.ar    1  LIG1        0.0148
      4 C          -2.6330   -0.2790    0.0000 C.ar    1  LIG1       -0.0074
      5 C          -2.6330   -1.2790    0.0000 C.ar    1  LIG1        0.0556
      6 N          -1.7540   -1.7790    0.0000 N.ar    1  LIG1       -0.2431
      7 C          -3.5080   -1.7790    0.0000 C.3     1  LIG1        0.0455
      8 C          -4.3880   -1.2790    0.0000 C.3     1  LIG1        0.0066
      9 C          -4.3880   -0.2790    0.0000 C.3     1  LIG1        0.0051
     10 C          -3.5080    0.2130    0.0000 C.3     1  LIG1        0.0276
     11 C          -1.7540    1.2040    0.0000 C.ar    1  LIG1        0.0299
     12 S          -0.9500    1.8330    0.0000 S.2     1  LIG1       -0.0864
     13 C          -1.2880    2.7170    0.0000 C.ar    1  LIG1        0.0354
     14 C          -2.2500    2.7170    0.0000 C.ar    1  LIG1        0.0075
     15 C          -2.5920    1.8330    0.0000 C.ar    1  LIG1        0.0070
     16 C          -0.0170    0.2000    0.0000 C.1     1  LIG1        0.1025
     17 N           0.8500    0.6920    0.0000 N.1     1  LIG1       -0.1908
     18 S          -0.0330   -1.7790    0.0000 S.3     1  LIG1       -0.0838
     19 C           0.8250   -1.2670    0.0000 C.3     1  LIG1        0.1519
     20 C           1.6920   -1.8040    0.0000 C.2     1  LIG1        0.3271
     21 O           1.6920   -2.7130    0.0000 O.2     1  LIG1       -0.2492
     22 O           2.5920   -1.2790    0.0000 O.3     1  LIG1       -0.4479
     23 C           3.4880   -1.8210    0.0000 C.3     1  LIG1        0.2086
     24 C           4.3830   -1.2580    0.0000 C.3     1  LIG1        0.0513
     25 C           0.8330   -0.2790    0.0000 C.3     1  LIG1        0.0239
@<TRIPOS>BOND
     1     1     2   ar
     2     1     6   ar
     3     1    18    1
     4     2     3   ar
     5     2    16    1
     6     3     4   ar
     7     3    11    1
     8     4     5   ar
     9     4    10    1
    10     5     6   ar
    11     5     7    1
    12     7     8    1
    13     8     9    1
    14     9    10    1
    15    11    12   ar
    16    11    15   ar
    17    12    13   ar
    18    13    14   ar
    19    14    15   ar
    20    16    17    3
    21    18    19    1
    22    19    20    1
    23    19    25    1
    24    20    21    2
    25    20    22    1
    26    22    23    1
    27    23    24    1
