@<TRIPOS>MOLECULE
32310_ChemDiv_5867-1982
 39 43 0 0 0
SMALL
GASTEIGER
Energy = 0

@<TRIPOS>ATOM
      1 C           2.1210    0.4750    0.0000 C.ar    1  LIG1        0.0919
      2 C           2.9790   -0.0250    0.0000 C.ar    1  LIG1        0.0155
      3 C           3.8420    0.4750    0.0000 C.ar    1  LIG1        0.0490
      4 C           3.8420    1.4750    0.0000 C.ar    1  LIG1        0.0623
      5 N           2.9790    1.9710    0.0000 N.ar    1  LIG1       -0.2427
      6 C           2.1210    1.4750    0.0000 C.ar    1  LIG1        0.1158
      7 S           1.2420    1.9710    0.0000 S.3     1  LIG1       -0.0938
      8 C           0.3790    1.4670    0.0000 C.3     1  LIG1        0.0733
      9 C          -0.4880    1.9670    0.0000 C.3     1  LIG1        0.0988
     10 C          -1.3580    1.4540    0.0000 C.2     1  LIG1        0.2426
     11 N          -2.2250    1.9540    0.0000 N.am    1  LIG1       -0.2005
     12 C          -3.0960    1.4380    0.0000 C.3     1  LIG1        0.1416
     13 C          -3.9630    1.9380    0.0000 C.ar    1  LIG1        0.0027
     14 C          -3.9710    2.9330    0.0000 C.ar    1  LIG1        0.0376
     15 C          -4.8330    3.4330    0.0000 C.ar    1  LIG1        0.1762
     16 C          -5.7000    2.9330    0.0000 C.ar    1  LIG1        0.1764
     17 O          -6.4420    3.6170    0.0000 O.3     1  LIG1       -0.4346
     18 C          -6.0420    4.5170    0.0000 C.3     1  LIG1        0.4294
     19 O          -5.0460    4.4130    0.0000 O.3     1  LIG1       -0.4346
     20 C          -5.6960    1.9380    0.0000 C.ar    1  LIG1        0.0399
     21 C          -4.8330    1.4380    0.0000 C.ar    1  LIG1        0.0008
     22 O          -1.3420    0.4540    0.0000 O.2     1  LIG1       -0.2733
     23 C           4.7040    1.9710    0.0000 C.3     1  LIG1        0.0463
     24 C           5.5750    1.4750    0.0000 C.3     1  LIG1        0.0128
     25 C           5.5750    0.4750    0.0000 C.3     1  LIG1        0.0695
     26 C           4.7040   -0.0250    0.0000 C.2     1  LIG1        0.1742
     27 O           4.7040   -1.0210    0.0000 O.2     1  LIG1       -0.2913
     28 C           5.9130    2.4210    0.0000 C.3     1  LIG1        0.0008
     29 C           6.4420    0.9830    0.0000 C.3     1  LIG1        0.0008
     30 C           2.9790   -1.0250    0.0000 C.ar    1  LIG1        0.0010
     31 C           3.8420   -1.5250    0.0000 C.ar    1  LIG1        0.0031
     32 C           3.8420   -2.5210    0.0000 C.ar    1  LIG1        0.0369
     33 C           2.9790   -3.0210    0.0000 C.ar    1  LIG1        0.1387
     34 C           2.1210   -2.5210    0.0000 C.ar    1  LIG1        0.0369
     35 C           2.1210   -1.5250    0.0000 C.ar    1  LIG1        0.0031
     36 O           2.9790   -4.0210    0.0000 O.3     1  LIG1       -0.4714
     37 C           3.8420   -4.5170    0.0000 C.3     1  LIG1        0.2525
     38 C           1.2420   -0.0290    0.0000 C.1     1  LIG1        0.1025
     39 N           0.3750   -0.5420    0.0000 N.1     1  LIG1       -0.1908
@<TRIPOS>BOND
     1     1     2   ar
     2     1     6   ar
     3     1    38    1
     4     2     3   ar
     5     2    30    1
     6     3     4   ar
     7     3    26    1
     8     4     5   ar
     9     4    23    1
    10     5     6   ar
    11     6     7    1
    12     7     8    1
    13     8     9    1
    14     9    10    1
    15    10    11   am
    16    10    22    2
    17    11    12    1
    18    12    13    1
    19    13    14   ar
    20    13    21   ar
    21    14    15   ar
    22    15    16   ar
    23    15    19    1
    24    16    17    1
    25    16    20   ar
    26    17    18    1
    27    18    19    1
    28    20    21   ar
    29    23    24    1
    30    24    25    1
    31    24    28    1
    32    24    29    1
    33    25    26    1
    34    26    27    2
    35    30    31   ar
    36    30    35   ar
    37    31    32   ar
    38    32    33   ar
    39    33    34   ar
    40    33    36    1
    41    34    35   ar
    42    36    37    1
    43    38    39    3
