@<TRIPOS>MOLECULE
32319_ChemDiv_8016-4407
 23 25 0 0 0
SMALL
GASTEIGER
Energy = 0

@<TRIPOS>ATOM
      1 N          -2.0130   -0.4670    0.0000 N.am    1  LIG1       -0.2765
      2 C          -1.9040   -1.5040    0.0000 C.2     1  LIG1        0.2702
      3 C          -0.9750   -1.8750    0.0000 C.3     1  LIG1        0.2896
      4 O          -0.1710   -1.3130    0.0000 O.3     1  LIG1       -0.4641
      5 C           0.7540   -1.6920    0.0000 C.ar    1  LIG1        0.1567
      6 C           1.5420   -1.1500    0.0000 C.ar    1  LIG1        0.1151
      7 N           1.4290   -0.1580    0.0000 N.ar    1  LIG1       -0.2408
      8 C           2.1630    0.4580    0.0000 C.ar    1  LIG1        0.0989
      9 C           3.1250    0.1210    0.0000 C.ar    1  LIG1        0.0207
     10 C           3.2420   -0.8920    0.0000 C.ar    1  LIG1        0.0032
     11 C           2.4670   -1.5040    0.0000 C.ar    1  LIG1        0.0207
     12 C           2.6000   -2.4920    0.0000 C.ar    1  LIG1        0.0017
     13 C           1.7920   -3.1040    0.0000 C.ar    1  LIG1        0.0032
     14 C           0.8670   -2.7290    0.0000 C.ar    1  LIG1        0.0385
     15 O          -2.7080   -2.0670    0.0000 O.2     1  LIG1       -0.2708
     16 C          -2.9380   -0.0290    0.0000 C.3     1  LIG1        0.0940
     17 C          -3.0710    0.8960    0.0000 C.3     1  LIG1        0.0307
     18 C          -2.2580    1.5710    0.0000 C.3     1  LIG1        0.0833
     19 C          -2.4000    2.5460    0.0000 C.2     1  LIG1        0.2604
     20 O          -1.5250    3.1080    0.0000 O.2     1  LIG1       -0.2717
     21 N          -3.2460    2.9960    0.0000 N.am    1  LIG1       -0.0878
     22 C          -1.3330    1.1460    0.0000 C.3     1  LIG1        0.0307
     23 C          -1.2210    0.1460    0.0000 C.3     1  LIG1        0.0940
@<TRIPOS>BOND
     1     1     2   am
     2     1    16    1
     3     1    23    1
     4     2     3    1
     5     2    15    2
     6     3     4    1
     7     4     5    1
     8     5     6   ar
     9     5    14   ar
    10     6     7   ar
    11     6    11   ar
    12     7     8   ar
    13     8     9   ar
    14     9    10   ar
    15    10    11   ar
    16    11    12   ar
    17    12    13   ar
    18    13    14   ar
    19    16    17    1
    20    17    18    1
    21    18    19    1
    22    18    22    1
    23    19    20    2
    24    19    21   am
    25    22    23    1
