@<TRIPOS>MOLECULE
32316_ChemDiv_8003-4606
 28 30 0 0 0
SMALL
GASTEIGER
Energy = 0

@<TRIPOS>ATOM
      1 C          -1.7630   -0.1750    0.0000 C.ar    1  LIG1        0.0920
      2 C          -1.7630   -1.1830    0.0000 C.ar    1  LIG1        0.1162
      3 N          -2.6210   -1.6830    0.0000 N.ar    1  LIG1       -0.2431
      4 C          -3.5080   -1.1830    0.0000 C.ar    1  LIG1        0.0556
      5 C          -3.5080   -0.1750    0.0000 C.ar    1  LIG1       -0.0074
      6 C          -2.6210    0.3170    0.0000 C.ar    1  LIG1        0.0148
      7 C          -2.6210    1.1790    0.0000 C.ar    1  LIG1        0.0299
      8 S          -1.8250    1.7920    0.0000 S.2     1  LIG1       -0.0864
      9 C          -2.1380    2.7330    0.0000 C.ar    1  LIG1        0.0354
     10 C          -3.1000    2.7330    0.0000 C.ar    1  LIG1        0.0075
     11 C          -3.4500    1.7750    0.0000 C.ar    1  LIG1        0.0070
     12 C          -4.3790    0.3250    0.0000 C.3     1  LIG1        0.0276
     13 C          -5.2460   -0.1750    0.0000 C.3     1  LIG1        0.0051
     14 C          -5.2460   -1.1830    0.0000 C.3     1  LIG1        0.0066
     15 C          -4.3790   -1.6830    0.0000 C.3     1  LIG1        0.0455
     16 S          -0.8880   -1.6830    0.0000 S.3     1  LIG1       -0.0863
     17 C           0.0040   -1.1500    0.0000 C.3     1  LIG1        0.1284
     18 C           0.9420   -1.7330    0.0000 C.2     1  LIG1        0.1731
     19 C           1.8080   -1.2130    0.0000 C.3     1  LIG1        0.1746
     20 C           2.6420   -1.7250    0.0000 C.2     1  LIG1        0.3245
     21 O           2.6290   -2.7290    0.0000 O.2     1  LIG1       -0.2496
     22 O           3.5330   -1.2210    0.0000 O.3     1  LIG1       -0.4520
     23 C           4.3790   -1.7540    0.0000 C.3     1  LIG1        0.1691
     24 C           4.3580   -2.7080    0.0000 C.3     1  LIG1        0.0473
     25 C           5.2420   -1.2750    0.0000 C.3     1  LIG1        0.0473
     26 O           0.9500   -2.7290    0.0000 O.2     1  LIG1       -0.2945
     27 C          -0.9080    0.3170    0.0000 C.1     1  LIG1        0.1025
     28 N          -0.0420    0.8210    0.0000 N.1     1  LIG1       -0.1908
@<TRIPOS>BOND
     1     1     2   ar
     2     1     6   ar
     3     1    27    1
     4     2     3   ar
     5     2    16    1
     6     3     4   ar
     7     4     5   ar
     8     4    15    1
     9     5     6   ar
    10     5    12    1
    11     6     7    1
    12     7     8   ar
    13     7    11   ar
    14     8     9   ar
    15     9    10   ar
    16    10    11   ar
    17    12    13    1
    18    13    14    1
    19    14    15    1
    20    16    17    1
    21    17    18    1
    22    18    19    1
    23    18    26    2
    24    19    20    1
    25    20    21    2
    26    20    22    1
    27    22    23    1
    28    23    24    1
    29    23    25    1
    30    27    28    3
