@<TRIPOS>MOLECULE
32318_ChemDiv_8003-4612
 26 28 0 0 0
SMALL
GASTEIGER
Energy = 0

@<TRIPOS>ATOM
      1 C          -0.9540   -0.1750    0.0000 C.ar    1  LIG1        0.0920
      2 C          -0.9540   -1.1790    0.0000 C.ar    1  LIG1        0.1163
      3 N          -1.8040   -1.6790    0.0000 N.ar    1  LIG1       -0.2431
      4 C          -2.6920   -1.1790    0.0000 C.ar    1  LIG1        0.0556
      5 C          -2.6920   -0.1750    0.0000 C.ar    1  LIG1       -0.0074
      6 C          -1.8040    0.3170    0.0000 C.ar    1  LIG1        0.0148
      7 C          -1.8040    1.1750    0.0000 C.ar    1  LIG1        0.0299
      8 S          -1.0040    1.7880    0.0000 S.2     1  LIG1       -0.0864
      9 C          -1.3210    2.7210    0.0000 C.ar    1  LIG1        0.0354
     10 C          -2.2960    2.7210    0.0000 C.ar    1  LIG1        0.0075
     11 C          -2.6460    1.7630    0.0000 C.ar    1  LIG1        0.0070
     12 C          -3.5580    0.3290    0.0000 C.3     1  LIG1        0.0276
     13 C          -4.4250   -0.1750    0.0000 C.3     1  LIG1        0.0051
     14 C          -4.4250   -1.1790    0.0000 C.3     1  LIG1        0.0066
     15 C          -3.5580   -1.6790    0.0000 C.3     1  LIG1        0.0455
     16 S          -0.0830   -1.6790    0.0000 S.3     1  LIG1       -0.0844
     17 C           0.8130   -1.1460    0.0000 C.3     1  LIG1        0.1501
     18 C           1.7380   -1.7210    0.0000 C.2     1  LIG1        0.2527
     19 N           2.6000   -1.2080    0.0000 N.am    1  LIG1       -0.2081
     20 C           3.5710   -1.6880    0.0000 C.3     1  LIG1        0.0788
     21 C           3.0580   -2.4960    0.0000 C.3     1  LIG1        0.0217
     22 C           4.4210   -2.1380    0.0000 C.3     1  LIG1        0.0217
     23 C           4.0830   -0.8380    0.0000 C.3     1  LIG1        0.0217
     24 O           1.7500   -2.7170    0.0000 O.2     1  LIG1       -0.2724
     25 C          -0.0960    0.3170    0.0000 C.1     1  LIG1        0.1025
     26 N           0.7540    0.8210    0.0000 N.1     1  LIG1       -0.1908
@<TRIPOS>BOND
     1     1     2   ar
     2     1     6   ar
     3     1    25    1
     4     2     3   ar
     5     2    16    1
     6     3     4   ar
     7     4     5   ar
     8     4    15    1
     9     5     6   ar
    10     5    12    1
    11     6     7    1
    12     7     8   ar
    13     7    11   ar
    14     8     9   ar
    15     9    10   ar
    16    10    11   ar
    17    12    13    1
    18    13    14    1
    19    14    15    1
    20    16    17    1
    21    17    18    1
    22    18    19   am
    23    18    24    2
    24    19    20    1
    25    20    21    1
    26    20    22    1
    27    20    23    1
    28    25    26    3
