@<TRIPOS>MOLECULE
32329_ChemDiv_5954-2432
 29 32 0 0 0
SMALL
GASTEIGER
Energy = 0

@<TRIPOS>ATOM
      1 S          -1.7040    0.2630    0.0000 S.O2    1  LIG1        0.0665
      2 N          -0.8210   -0.2330    0.0000 N.3     1  LIG1       -0.1287
      3 C          -0.8210   -1.2290    0.0000 C.3     1  LIG1        0.1940
      4 N          -1.7040   -1.7750    0.0000 N.pl3   1  LIG1       -0.2156
      5 C          -2.5920   -1.2500    0.0000 C.ar    1  LIG1        0.0857
      6 C          -2.5750   -0.2330    0.0000 C.ar    1  LIG1        0.1370
      7 C          -3.4670    0.2630    0.0000 C.ar    1  LIG1        0.0212
      8 C          -4.3500   -0.2500    0.0000 C.ar    1  LIG1        0.0015
      9 C          -4.3500   -1.2670    0.0000 C.ar    1  LIG1        0.0014
     10 C          -3.4670   -1.7750    0.0000 C.ar    1  LIG1        0.0175
     11 C           0.0420   -1.7130    0.0000 C.ar    1  LIG1        0.0143
     12 C           0.0540   -2.7080    0.0000 C.ar    1  LIG1        0.0019
     13 C           0.9130   -3.2040    0.0000 C.ar    1  LIG1        0.0367
     14 C           1.7630   -2.6830    0.0000 C.ar    1  LIG1        0.1384
     15 O           2.6250   -3.1630    0.0000 O.3     1  LIG1       -0.4792
     16 C           3.4670   -2.6540    0.0000 C.3     1  LIG1        0.1661
     17 C           4.3460   -3.1500    0.0000 C.3     1  LIG1        0.0472
     18 C           3.4670   -1.6710    0.0000 C.3     1  LIG1        0.0472
     19 C           1.7500   -1.7080    0.0000 C.ar    1  LIG1        0.0367
     20 C           0.8960   -1.2170    0.0000 C.ar    1  LIG1        0.0019
     21 C           0.0580    0.2580    0.0000 C.3     1  LIG1        0.1243
     22 C           0.0580    1.2460    0.0000 C.ar    1  LIG1       -0.0044
     23 C           0.9130    1.7380    0.0000 C.ar    1  LIG1       -0.0029
     24 C           0.9130    2.7130    0.0000 C.ar    1  LIG1       -0.0003
     25 C           0.0580    3.2080    0.0000 C.ar    1  LIG1       -0.0000
     26 C          -0.7830    2.7080    0.0000 C.ar    1  LIG1       -0.0003
     27 C          -0.7830    1.7380    0.0000 C.ar    1  LIG1       -0.0029
     28 O          -0.9880    0.9960    0.0000 O.2     1  LIG1       -0.1527
     29 O          -2.4330    0.9960    0.0000 O.2     1  LIG1       -0.1527
@<TRIPOS>BOND
     1     1     2    1
     2     1     6    1
     3     1    28    2
     4     1    29    2
     5     2     3    1
     6     2    21    1
     7     3     4    1
     8     3    11    1
     9     4     5    1
    10     5     6   ar
    11     5    10   ar
    12     6     7   ar
    13     7     8   ar
    14     8     9   ar
    15     9    10   ar
    16    11    12   ar
    17    11    20   ar
    18    12    13   ar
    19    13    14   ar
    20    14    15    1
    21    14    19   ar
    22    15    16    1
    23    16    17    1
    24    16    18    1
    25    19    20   ar
    26    21    22    1
    27    22    23   ar
    28    22    27   ar
    29    23    24   ar
    30    24    25   ar
    31    25    26   ar
    32    26    27   ar
