@<TRIPOS>MOLECULE
32328_ChemDiv_C095-0331
 33 37 0 0 0
SMALL
GASTEIGER
Energy = 0

@<TRIPOS>ATOM
      1 C          -0.0170    3.0540    0.0000 C.ar    1  LIG1        0.1316
      2 N           0.8580    2.5500    0.0000 N.ar    1  LIG1       -0.2307
      3 C           0.8580    1.5500    0.0000 C.ar    1  LIG1        0.0825
      4 C          -0.0170    1.0420    0.0000 C.ar    1  LIG1        0.0151
      5 C          -0.8750    1.5580    0.0000 C.ar    1  LIG1       -0.0176
      6 C          -0.8750    2.5540    0.0000 C.ar    1  LIG1        0.0301
      7 C          -1.7380    1.0580    0.0000 C.3     1  LIG1        0.0312
      8 C          -0.0170    0.0580    0.0000 C.ar    1  LIG1        0.0178
      9 C           0.8460   -0.4380    0.0000 C.ar    1  LIG1        0.0738
     10 N           0.8460   -1.4460    0.0000 N.am    1  LIG1       -0.1754
     11 C          -0.0170   -1.9460    0.0000 C.2     1  LIG1        0.2691
     12 C          -0.0170   -2.9420    0.0000 C.2     1  LIG1        0.0598
     13 C           0.8580   -3.4420    0.0000 C.2     1  LIG1        0.0048
     14 C           0.8630   -4.4540    0.0000 C.ar    1  LIG1        0.0034
     15 C          -0.0170   -4.9540    0.0000 C.ar    1  LIG1        0.0402
     16 C           0.0000   -5.9540    0.0000 C.ar    1  LIG1        0.1764
     17 C           0.8630   -6.4500    0.0000 C.ar    1  LIG1        0.1764
     18 O           0.6500   -7.4330    0.0000 O.3     1  LIG1       -0.4346
     19 C          -0.3330   -7.5380    0.0000 C.3     1  LIG1        0.4294
     20 O          -0.7460   -6.6290    0.0000 O.3     1  LIG1       -0.4346
     21 C           1.7330   -5.9540    0.0000 C.ar    1  LIG1        0.0402
     22 C           1.7330   -4.9540    0.0000 C.ar    1  LIG1        0.0033
     23 O          -0.8750   -1.4330    0.0000 O.2     1  LIG1       -0.2680
     24 C           1.7170    0.0540    0.0000 C.ar    1  LIG1        0.0182
     25 C           1.7170    1.0580    0.0000 C.ar    1  LIG1        0.0205
     26 N          -0.0170    4.0420    0.0000 N.pl3   1  LIG1       -0.2824
     27 C           0.8630    4.5460    0.0000 C.3     1  LIG1        0.1555
     28 C           0.8630    5.5380    0.0000 C.3     1  LIG1        0.1605
     29 N           0.0000    6.0420    0.0000 N.4     1  LIG1        0.3799
     30 C          -0.8670    5.5460    0.0000 C.3     1  LIG1        0.1605
     31 C          -0.8750    4.5460    0.0000 C.3     1  LIG1        0.1555
     32 C           0.0000    7.0420    0.0000 C.3     1  LIG1        0.1389
     33 C           0.8630    7.5380    0.0000 C.3     1  LIG1        0.0688
@<TRIPOS>BOND
     1     1     2   ar
     2     1     6   ar
     3     1    26    1
     4     2     3   ar
     5     3     4   ar
     6     3    25   ar
     7     4     5   ar
     8     4     8   ar
     9     5     6   ar
    10     5     7    1
    11     8     9   ar
    12     9    10    1
    13     9    24   ar
    14    10    11   am
    15    11    12    1
    16    11    23    2
    17    12    13    2
    18    13    14    1
    19    14    15   ar
    20    14    22   ar
    21    15    16   ar
    22    16    17   ar
    23    16    20    1
    24    17    18    1
    25    17    21   ar
    26    18    19    1
    27    19    20    1
    28    21    22   ar
    29    24    25   ar
    30    26    27    1
    31    26    31    1
    32    27    28    1
    33    28    29    1
    34    29    30    1
    35    29    32    1
    36    30    31    1
    37    32    33    1
