@<TRIPOS>MOLECULE
32320_ChemDiv_5867-2186
 26 28 0 0 0
SMALL
GASTEIGER
Energy = 0

@<TRIPOS>ATOM
      1 N           1.1880   -1.1290    0.0000 N.ar    1  LIG1       -0.2036
      2 C           0.4130   -0.5000    0.0000 C.ar    1  LIG1        0.2503
      3 N          -0.4170   -1.0290    0.0000 N.ar    1  LIG1       -0.1728
      4 S          -0.1670   -1.9960    0.0000 S.2     1  LIG1        0.0355
      5 C           0.8250   -2.0540    0.0000 C.ar    1  LIG1        0.1312
      6 C           1.3250   -2.9250    0.0000 C.ar    1  LIG1        0.0253
      7 C           2.3210   -2.9250    0.0000 C.ar    1  LIG1        0.0021
      8 C           2.8210   -3.7960    0.0000 C.ar    1  LIG1        0.0001
      9 C           2.3330   -4.6580    0.0000 C.ar    1  LIG1        0.0000
     10 C           1.3330   -4.6580    0.0000 C.ar    1  LIG1        0.0001
     11 C           0.8250   -3.7880    0.0000 C.ar    1  LIG1        0.0021
     12 N           0.4710    0.5170    0.0000 N.am    1  LIG1       -0.1420
     13 C           1.3540    0.9710    0.0000 C.2     1  LIG1        0.2595
     14 O           2.1880    0.4250    0.0000 O.2     1  LIG1       -0.2719
     15 C           1.4080    1.9670    0.0000 C.3     1  LIG1        0.1505
     16 S           0.5670    2.5130    0.0000 S.3     1  LIG1       -0.0844
     17 C          -0.3290    2.0580    0.0000 C.ar    1  LIG1        0.1160
     18 C          -1.1040    2.6790    0.0000 C.ar    1  LIG1        0.0879
     19 C          -2.0380    2.3170    0.0000 C.ar    1  LIG1       -0.0091
     20 C          -2.1920    1.3170    0.0000 C.ar    1  LIG1        0.0112
     21 C          -1.4040    0.6960    0.0000 C.ar    1  LIG1        0.0596
     22 N          -0.4790    1.0670    0.0000 N.ar    1  LIG1       -0.2428
     23 C          -1.5460   -0.2880    0.0000 C.3     1  LIG1        0.0521
     24 C          -2.8250    2.9380    0.0000 C.3     1  LIG1        0.0318
     25 C          -0.9630    3.6710    0.0000 C.1     1  LIG1        0.1021
     26 N          -0.8170    4.6580    0.0000 N.1     1  LIG1       -0.1908
@<TRIPOS>BOND
     1     1     2   ar
     2     1     5   ar
     3     2     3   ar
     4     2    12    1
     5     3     4   ar
     6     4     5   ar
     7     5     6    1
     8     6     7   ar
     9     6    11   ar
    10     7     8   ar
    11     8     9   ar
    12     9    10   ar
    13    10    11   ar
    14    12    13   am
    15    13    14    2
    16    13    15    1
    17    15    16    1
    18    16    17    1
    19    17    18   ar
    20    17    22   ar
    21    18    19   ar
    22    18    25    1
    23    19    20   ar
    24    19    24    1
    25    20    21   ar
    26    21    22   ar
    27    21    23    1
    28    25    26    3
