@<TRIPOS>MOLECULE
32321_ChemDiv_5954-1551
 28 31 0 0 0
SMALL
GASTEIGER
Energy = 0

@<TRIPOS>ATOM
      1 S          -0.7080    0.4250    0.0000 S.O2    1  LIG1        0.0665
      2 N           0.1500   -0.0630    0.0000 N.3     1  LIG1       -0.1286
      3 C           0.1500   -1.0330    0.0000 C.3     1  LIG1        0.1969
      4 N          -0.7080   -1.5630    0.0000 N.pl3   1  LIG1       -0.2155
      5 C          -1.5750   -1.0540    0.0000 C.ar    1  LIG1        0.0858
      6 C          -1.5630   -0.0630    0.0000 C.ar    1  LIG1        0.1370
      7 C          -2.4330    0.4250    0.0000 C.ar    1  LIG1        0.0212
      8 C          -3.2920   -0.0750    0.0000 C.ar    1  LIG1        0.0015
      9 C          -3.2920   -1.0670    0.0000 C.ar    1  LIG1        0.0014
     10 C          -2.4330   -1.5630    0.0000 C.ar    1  LIG1        0.0175
     11 C           1.5960   -1.8500    0.0000 C.ar    1  LIG1        0.0481
     12 C           2.4290   -1.3460    0.0000 C.ar    1  LIG1        0.1375
     13 O           2.4130   -0.3920    0.0000 O.3     1  LIG1       -0.4757
     14 C           1.5750    0.0750    0.0000 C.3     1  LIG1        0.2055
     15 C           1.5500    1.0460    0.0000 C.3     1  LIG1        0.0512
     16 C           3.2830   -1.8250    0.0000 C.ar    1  LIG1        0.0367
     17 C           3.2880   -2.7920    0.0000 C.ar    1  LIG1        0.0031
     18 C           2.4540   -3.2960    0.0000 C.ar    1  LIG1       -0.0000
     19 C           1.6130   -2.8210    0.0000 C.ar    1  LIG1        0.0018
     20 C           1.0130    0.4210    0.0000 C.3     1  LIG1        0.1243
     21 C           1.0130    1.3830    0.0000 C.ar    1  LIG1       -0.0044
     22 C           1.8460    1.8670    0.0000 C.ar    1  LIG1       -0.0029
     23 C           1.8460    2.8170    0.0000 C.ar    1  LIG1       -0.0003
     24 C           1.0130    3.3000    0.0000 C.ar    1  LIG1       -0.0000
     25 C           0.1920    2.8130    0.0000 C.ar    1  LIG1       -0.0003
     26 C           0.1920    1.8670    0.0000 C.ar    1  LIG1       -0.0029
     27 O          -1.4250    1.1420    0.0000 O.2     1  LIG1       -0.1527
     28 O          -0.0080    1.1420    0.0000 O.2     1  LIG1       -0.1527
@<TRIPOS>BOND
     1     1     2    1
     2     1     6    1
     3     1    27    2
     4     1    28    2
     5     2     3    1
     6     2    20    1
     7     3     4    1
     8     3    11    1
     9     4     5    1
    10     5     6   ar
    11     5    10   ar
    12     6     7   ar
    13     7     8   ar
    14     8     9   ar
    15     9    10   ar
    16    11    12   ar
    17    11    19   ar
    18    12    13    1
    19    12    16   ar
    20    13    14    1
    21    14    15    1
    22    16    17   ar
    23    17    18   ar
    24    18    19   ar
    25    20    21    1
    26    21    22   ar
    27    21    26   ar
    28    22    23   ar
    29    23    24   ar
    30    24    25   ar
    31    25    26   ar
