@<TRIPOS>MOLECULE
32325_ChemDiv_5954-1950
 29 32 0 0 0
SMALL
GASTEIGER
Energy = 0

@<TRIPOS>ATOM
      1 S          -1.2920    1.4710    0.0000 S.O2    1  LIG1        0.0665
      2 N          -0.4130    0.9710    0.0000 N.3     1  LIG1       -0.1287
      3 C          -0.4130   -0.0250    0.0000 C.3     1  LIG1        0.1940
      4 N          -1.2920   -0.5710    0.0000 N.pl3   1  LIG1       -0.2156
      5 C          -2.1790   -0.0460    0.0000 C.ar    1  LIG1        0.0857
      6 C          -2.1670    0.9710    0.0000 C.ar    1  LIG1        0.1370
      7 C          -3.0580    1.4710    0.0000 C.ar    1  LIG1        0.0212
      8 C          -3.9420    0.9580    0.0000 C.ar    1  LIG1        0.0015
      9 C          -3.9420   -0.0580    0.0000 C.ar    1  LIG1        0.0014
     10 C          -3.0580   -0.5710    0.0000 C.ar    1  LIG1        0.0175
     11 C           0.4500   -0.5080    0.0000 C.ar    1  LIG1        0.0143
     12 C           0.4670   -1.5040    0.0000 C.ar    1  LIG1        0.0019
     13 C           1.3250   -1.9830    0.0000 C.ar    1  LIG1        0.0367
     14 C           2.1750   -1.4670    0.0000 C.ar    1  LIG1        0.1385
     15 C           2.1630   -0.4880    0.0000 C.ar    1  LIG1        0.0367
     16 C           1.3040   -0.0130    0.0000 C.ar    1  LIG1        0.0019
     17 O           3.0380   -1.9580    0.0000 O.3     1  LIG1       -0.4755
     18 C           3.0420   -2.9540    0.0000 C.3     1  LIG1        0.2054
     19 C           3.9130   -3.4330    0.0000 C.3     1  LIG1        0.0473
     20 C           3.9380   -4.4130    0.0000 C.3     1  LIG1        0.0040
     21 C           0.4710    1.4670    0.0000 C.3     1  LIG1        0.1243
     22 C           0.4710    2.4540    0.0000 C.ar    1  LIG1       -0.0044
     23 C           1.3250    2.9460    0.0000 C.ar    1  LIG1       -0.0029
     24 C           1.3250    3.9210    0.0000 C.ar    1  LIG1       -0.0003
     25 C           0.4710    4.4130    0.0000 C.ar    1  LIG1       -0.0000
     26 C          -0.3710    3.9170    0.0000 C.ar    1  LIG1       -0.0003
     27 C          -0.3710    2.9460    0.0000 C.ar    1  LIG1       -0.0029
     28 O          -0.5750    2.2040    0.0000 O.2     1  LIG1       -0.1527
     29 O          -2.0250    2.2040    0.0000 O.2     1  LIG1       -0.1527
@<TRIPOS>BOND
     1     1     2    1
     2     1     6    1
     3     1    28    2
     4     1    29    2
     5     2     3    1
     6     2    21    1
     7     3     4    1
     8     3    11    1
     9     4     5    1
    10     5     6   ar
    11     5    10   ar
    12     6     7   ar
    13     7     8   ar
    14     8     9   ar
    15     9    10   ar
    16    11    12   ar
    17    11    16   ar
    18    12    13   ar
    19    13    14   ar
    20    14    15   ar
    21    14    17    1
    22    15    16   ar
    23    17    18    1
    24    18    19    1
    25    19    20    1
    26    21    22    1
    27    22    23   ar
    28    22    27   ar
    29    23    24   ar
    30    24    25   ar
    31    25    26   ar
    32    26    27   ar
