@<TRIPOS>MOLECULE
32326_ChemDiv_C066-2447
 39 43 0 0 0
SMALL
GASTEIGER
Energy = 0

@<TRIPOS>ATOM
      1 C          -4.7420   -2.0290    0.0000 C.ar    1  LIG1        0.1316
      2 N          -3.8750   -2.5250    0.0000 N.ar    1  LIG1       -0.2307
      3 C          -3.0000   -2.0290    0.0000 C.ar    1  LIG1        0.0825
      4 C          -3.0000   -1.0330    0.0000 C.ar    1  LIG1        0.0151
      5 C          -3.8630   -0.5170    0.0000 C.ar    1  LIG1       -0.0176
      6 C          -4.7380   -1.0250    0.0000 C.ar    1  LIG1        0.0301
      7 C          -3.8630    0.4750    0.0000 C.3     1  LIG1        0.0312
      8 C          -2.1420   -0.5170    0.0000 C.ar    1  LIG1        0.0178
      9 C          -1.2710   -1.0250    0.0000 C.ar    1  LIG1        0.0735
     10 N          -0.4080   -0.5130    0.0000 N.am    1  LIG1       -0.1792
     11 C          -0.4130    0.4960    0.0000 C.2     1  LIG1        0.2461
     12 O          -1.2790    0.9790    0.0000 O.2     1  LIG1       -0.2730
     13 C           0.4540    0.9880    0.0000 C.3     1  LIG1        0.0968
     14 C           1.3290    0.4960    0.0000 C.3     1  LIG1        0.0964
     15 C           2.1960    1.0000    0.0000 C.2     1  LIG1        0.2418
     16 N           2.1830    2.0000    0.0000 N.am    1  LIG1       -0.2067
     17 C           3.0380    2.5040    0.0000 C.3     1  LIG1        0.1072
     18 C           3.0290    3.5040    0.0000 C.3     1  LIG1        0.0845
     19 C           3.8960    4.0080    0.0000 C.3     1  LIG1        0.1408
     20 N           4.7540    3.5130    0.0000 N.4     1  LIG1        0.3808
     21 C           5.6170    4.0130    0.0000 C.3     1  LIG1        0.1662
     22 C           6.4920    3.5250    0.0000 C.ar    1  LIG1        0.0344
     23 C           6.4920    2.5290    0.0000 C.ar    1  LIG1        0.0014
     24 C           7.3580    2.0330    0.0000 C.ar    1  LIG1       -0.0001
     25 C           8.2170    2.5330    0.0000 C.ar    1  LIG1       -0.0000
     26 C           8.2080    3.5420    0.0000 C.ar    1  LIG1       -0.0001
     27 C           7.3380    4.0210    0.0000 C.ar    1  LIG1        0.0014
     28 C           4.7670    2.5130    0.0000 C.3     1  LIG1        0.1408
     29 C           3.9170    2.0170    0.0000 C.3     1  LIG1        0.0845
     30 O           3.0630    0.5000    0.0000 O.2     1  LIG1       -0.2733
     31 C          -1.2710   -2.0290    0.0000 C.ar    1  LIG1        0.0181
     32 C          -2.1420   -2.5250    0.0000 C.ar    1  LIG1        0.0205
     33 N          -5.6130   -2.5250    0.0000 N.pl3   1  LIG1       -0.2824
     34 C          -6.4830   -2.0210    0.0000 C.3     1  LIG1        0.1555
     35 C          -7.3460   -2.5210    0.0000 C.3     1  LIG1        0.1608
     36 N          -7.3460   -3.5210    0.0000 N.4     1  LIG1        0.3847
     37 C          -6.4830   -4.0210    0.0000 C.3     1  LIG1        0.1608
     38 C          -5.6170   -3.5210    0.0000 C.3     1  LIG1        0.1555
     39 C          -8.2170   -4.0210    0.0000 C.3     1  LIG1        0.2024
@<TRIPOS>BOND
     1     1     2   ar
     2     1     6   ar
     3     1    33    1
     4     2     3   ar
     5     3     4   ar
     6     3    32   ar
     7     4     5   ar
     8     4     8   ar
     9     5     6   ar
    10     5     7    1
    11     8     9   ar
    12     9    10    1
    13     9    31   ar
    14    10    11   am
    15    11    12    2
    16    11    13    1
    17    13    14    1
    18    14    15    1
    19    15    16   am
    20    15    30    2
    21    16    17    1
    22    17    18    1
    23    17    29    1
    24    18    19    1
    25    19    20    1
    26    20    21    1
    27    20    28    1
    28    21    22    1
    29    22    23   ar
    30    22    27   ar
    31    23    24   ar
    32    24    25   ar
    33    25    26   ar
    34    26    27   ar
    35    28    29    1
    36    31    32   ar
    37    33    34    1
    38    33    38    1
    39    34    35    1
    40    35    36    1
    41    36    37    1
    42    36    39    1
    43    37    38    1
