@<TRIPOS>MOLECULE
32337_ChemDiv_6049-1678
 22 25 0 0 0
SMALL
GASTEIGER
Energy = 0

@<TRIPOS>ATOM
      1 C          -0.3790    0.4630    0.0000 C.2     1  LIG1        0.2562
      2 N          -1.3750    0.4630    0.0000 N.am    1  LIG1       -0.1376
      3 C          -1.8880    1.3750    0.0000 C.ar    1  LIG1        0.3196
      4 N          -2.9080    1.4960    0.0000 N.ar    1  LIG1       -0.1302
      5 C          -3.0920    2.5040    0.0000 C.ar    1  LIG1        0.5139
      6 N          -2.2080    2.9790    0.0000 N.ar    1  LIG1        0.2473
      7 N          -1.4420    2.2960    0.0000 N.ar    1  LIG1        0.1147
      8 C           0.1170   -0.3960    0.0000 C.3     1  LIG1        0.1288
      9 C          -0.3790   -1.2420    0.0000 C.ar    1  LIG1        0.0250
     10 C           0.1290   -2.1170    0.0000 C.ar    1  LIG1        0.1420
     11 O           1.1040   -2.1170    0.0000 O.3     1  LIG1       -0.4541
     12 C           1.6130   -1.2540    0.0000 C.ar    1  LIG1        0.1420
     13 C           1.1040   -0.3960    0.0000 C.ar    1  LIG1        0.0250
     14 C           1.5750    0.4500    0.0000 C.ar    1  LIG1       -0.0005
     15 C           2.5790    0.4500    0.0000 C.ar    1  LIG1       -0.0001
     16 C           3.0880   -0.4210    0.0000 C.ar    1  LIG1        0.0031
     17 C           2.5790   -1.2670    0.0000 C.ar    1  LIG1        0.0372
     18 C          -0.3670   -2.9750    0.0000 C.ar    1  LIG1        0.0372
     19 C          -1.3670   -2.9750    0.0000 C.ar    1  LIG1        0.0031
     20 C          -1.8710   -2.1000    0.0000 C.ar    1  LIG1       -0.0001
     21 C          -1.3670   -1.2420    0.0000 C.ar    1  LIG1       -0.0005
     22 O           0.1290    1.3210    0.0000 O.2     1  LIG1       -0.2722
@<TRIPOS>BOND
     1     1     2   am
     2     1     8    1
     3     1    22    2
     4     2     3    1
     5     3     4   ar
     6     3     7   ar
     7     4     5   ar
     8     5     6   ar
     9     6     7   ar
    10     8     9    1
    11     8    13    1
    12     9    10   ar
    13     9    21   ar
    14    10    11    1
    15    10    18   ar
    16    11    12    1
    17    12    13   ar
    18    12    17   ar
    19    13    14   ar
    20    14    15   ar
    21    15    16   ar
    22    16    17   ar
    23    18    19   ar
    24    19    20   ar
    25    20    21   ar
