@<TRIPOS>MOLECULE
32338_ChemDiv_6855-0007
 30 33 0 0 0
SMALL
GASTEIGER
Energy = 0

@<TRIPOS>ATOM
      1 N          -0.6170   -0.7880    0.0000 N.ar    1  LIG1       -0.1642
      2 C          -0.1170   -1.6500    0.0000 C.ar    1  LIG1        0.2418
      3 N          -0.7830   -2.3960    0.0000 N.ar    1  LIG1       -0.1915
      4 C          -1.6960   -1.9920    0.0000 C.ar    1  LIG1        0.1849
      5 N          -1.5920   -1.0000    0.0000 N.ar    1  LIG1       -0.1408
      6 C          -2.5580   -2.5000    0.0000 C.ar    1  LIG1        0.0376
      7 C          -2.5580   -3.5000    0.0000 C.ar    1  LIG1        0.0031
      8 C          -3.4250   -4.0040    0.0000 C.ar    1  LIG1        0.0001
      9 C          -4.2880   -3.5000    0.0000 C.ar    1  LIG1        0.0000
     10 C          -4.2880   -2.5000    0.0000 C.ar    1  LIG1        0.0001
     11 C          -3.4250   -2.0000    0.0000 C.ar    1  LIG1        0.0031
     12 N           0.8830   -1.7580    0.0000 N.pl3   1  LIG1       -0.1989
     13 C           1.2920   -2.6670    0.0000 C.3     1  LIG1        0.1417
     14 C           2.2920   -2.7670    0.0000 C.ar    1  LIG1       -0.0006
     15 C           2.6960   -3.6790    0.0000 C.ar    1  LIG1       -0.0026
     16 C           3.6880   -3.7880    0.0000 C.ar    1  LIG1       -0.0003
     17 C           4.2830   -2.9670    0.0000 C.ar    1  LIG1       -0.0000
     18 C           3.8670   -2.0540    0.0000 C.ar    1  LIG1       -0.0003
     19 C           2.8710   -1.9540    0.0000 C.ar    1  LIG1       -0.0026
     20 C          -0.2130    0.1250    0.0000 C.2     1  LIG1        0.2636
     21 C           0.7790    0.2380    0.0000 C.3     1  LIG1        0.1163
     22 C           1.1830    1.1540    0.0000 C.ar    1  LIG1       -0.0126
     23 C           2.1830    1.2580    0.0000 C.ar    1  LIG1       -0.0007
     24 C           2.5830    2.1710    0.0000 C.ar    1  LIG1        0.0366
     25 C           1.9920    2.9790    0.0000 C.ar    1  LIG1        0.1387
     26 C           0.9880    2.8670    0.0000 C.ar    1  LIG1        0.0366
     27 C           0.5960    1.9580    0.0000 C.ar    1  LIG1       -0.0007
     28 O           2.3960    3.9000    0.0000 O.3     1  LIG1       -0.4714
     29 C           3.3880    4.0040    0.0000 C.3     1  LIG1        0.2525
     30 O          -0.8000    0.9330    0.0000 O.2     1  LIG1       -0.2697
@<TRIPOS>BOND
     1     1     2   ar
     2     1     5   ar
     3     1    20   am
     4     2     3   ar
     5     2    12    1
     6     3     4   ar
     7     4     5   ar
     8     4     6    1
     9     6     7   ar
    10     6    11   ar
    11     7     8   ar
    12     8     9   ar
    13     9    10   ar
    14    10    11   ar
    15    12    13    1
    16    13    14    1
    17    14    15   ar
    18    14    19   ar
    19    15    16   ar
    20    16    17   ar
    21    17    18   ar
    22    18    19   ar
    23    20    21    1
    24    20    30    2
    25    21    22    1
    26    22    23   ar
    27    22    27   ar
    28    23    24   ar
    29    24    25   ar
    30    25    26   ar
    31    25    28    1
    32    26    27   ar
    33    28    29    1
