@<TRIPOS>MOLECULE
32331_ChemDiv_5954-3022
 30 33 0 0 0
SMALL
GASTEIGER
Energy = 0

@<TRIPOS>ATOM
      1 S          -1.2670    0.7580    0.0000 S.O2    1  LIG1        0.0665
      2 N          -0.3830    0.2630    0.0000 N.3     1  LIG1       -0.1287
      3 C          -0.3830   -0.7330    0.0000 C.3     1  LIG1        0.1942
      4 N          -1.2670   -1.2790    0.0000 N.pl3   1  LIG1       -0.2156
      5 C          -2.1500   -0.7540    0.0000 C.ar    1  LIG1        0.0857
      6 C          -2.1380    0.2630    0.0000 C.ar    1  LIG1        0.1370
      7 C          -3.0290    0.7580    0.0000 C.ar    1  LIG1        0.0212
      8 C          -3.9080    0.2460    0.0000 C.ar    1  LIG1        0.0015
      9 C          -3.9080   -0.7710    0.0000 C.ar    1  LIG1        0.0014
     10 C          -3.0290   -1.2790    0.0000 C.ar    1  LIG1        0.0175
     11 C           0.4790   -1.2170    0.0000 C.ar    1  LIG1        0.0178
     12 C           0.4920   -2.2130    0.0000 C.ar    1  LIG1        0.0087
     13 C           1.3380   -2.7080    0.0000 C.ar    1  LIG1        0.0713
     14 C           2.2040   -2.1880    0.0000 C.ar    1  LIG1        0.1784
     15 C           2.1880   -1.2130    0.0000 C.ar    1  LIG1        0.1727
     16 C           1.3380   -0.7210    0.0000 C.ar    1  LIG1        0.0389
     17 O           3.0500   -0.7080    0.0000 O.3     1  LIG1       -0.4684
     18 C           3.9040   -1.2130    0.0000 C.3     1  LIG1        0.2526
     19 O           3.0670   -2.6920    0.0000 O.3     1  LIG1       -0.4679
     20 C           3.0670   -3.6710    0.0000 C.3     1  LIG1        0.2526
     21 BR          1.3500   -3.7000    0.0000 Br      1  LIG1       -0.0457
     22 C           0.5000    0.7540    0.0000 C.3     1  LIG1        0.1243
     23 C           0.5000    1.7420    0.0000 C.ar    1  LIG1       -0.0044
     24 C          -0.3420    2.2330    0.0000 C.ar    1  LIG1       -0.0029
     25 C          -0.3420    3.2040    0.0000 C.ar    1  LIG1       -0.0003
     26 C           0.5000    3.7040    0.0000 C.ar    1  LIG1       -0.0000
     27 C           1.3500    3.2080    0.0000 C.ar    1  LIG1       -0.0003
     28 C           1.3500    2.2330    0.0000 C.ar    1  LIG1       -0.0029
     29 O          -1.9960    1.4920    0.0000 O.2     1  LIG1       -0.1527
     30 O          -0.5460    1.4920    0.0000 O.2     1  LIG1       -0.1527
@<TRIPOS>BOND
     1     1     2    1
     2     1     6    1
     3     1    29    2
     4     1    30    2
     5     2     3    1
     6     2    22    1
     7     3     4    1
     8     3    11    1
     9     4     5    1
    10     5     6   ar
    11     5    10   ar
    12     6     7   ar
    13     7     8   ar
    14     8     9   ar
    15     9    10   ar
    16    11    12   ar
    17    11    16   ar
    18    12    13   ar
    19    13    14   ar
    20    13    21    1
    21    14    15   ar
    22    14    19    1
    23    15    16   ar
    24    15    17    1
    25    17    18    1
    26    19    20    1
    27    22    23    1
    28    23    24   ar
    29    23    28   ar
    30    24    25   ar
    31    25    26   ar
    32    26    27   ar
    33    27    28   ar
