@<TRIPOS>MOLECULE
32336_ChemDiv_C204-0225
 34 37 0 0 0
SMALL
GASTEIGER
Energy = 0

@<TRIPOS>ATOM
      1 C           1.3080    1.2580    0.0000 C.ar    1  LIG1        0.1316
      2 N           0.4420    0.7460    0.0000 N.ar    1  LIG1       -0.2307
      3 C          -0.4330    1.2580    0.0000 C.ar    1  LIG1        0.0825
      4 C          -0.4330    2.2580    0.0000 C.ar    1  LIG1        0.0151
      5 C           0.4420    2.7580    0.0000 C.ar    1  LIG1       -0.0176
      6 C           1.3080    2.2580    0.0000 C.ar    1  LIG1        0.0301
      7 C           0.4420    3.7580    0.0000 C.3     1  LIG1        0.0312
      8 C          -1.2960    2.7580    0.0000 C.ar    1  LIG1        0.0178
      9 C          -2.1580    2.2500    0.0000 C.ar    1  LIG1        0.0735
     10 N          -3.0380    2.7580    0.0000 N.am    1  LIG1       -0.1792
     11 C          -3.9000    2.2500    0.0000 C.2     1  LIG1        0.2461
     12 O          -4.7630    2.7330    0.0000 O.2     1  LIG1       -0.2730
     13 C          -3.8830    1.2420    0.0000 C.3     1  LIG1        0.0968
     14 C          -3.0210    0.7460    0.0000 C.3     1  LIG1        0.0964
     15 C          -3.0210   -0.2460    0.0000 C.2     1  LIG1        0.2418
     16 N          -3.8830   -0.7460    0.0000 N.am    1  LIG1       -0.2072
     17 C          -3.8830   -1.7630    0.0000 C.3     1  LIG1        0.0953
     18 C          -3.0080   -2.2580    0.0000 C.3     1  LIG1        0.0200
     19 C          -3.0040   -3.2460    0.0000 C.3     1  LIG1        0.0017
     20 C          -3.8670   -3.7540    0.0000 C.3     1  LIG1        0.0001
     21 C          -4.7330   -3.2580    0.0000 C.3     1  LIG1        0.0018
     22 C          -4.7380   -2.2630    0.0000 C.3     1  LIG1        0.0217
     23 C          -2.1250   -3.7460    0.0000 C.3     1  LIG1        0.0001
     24 C          -2.1460   -1.7460    0.0000 C.3     1  LIG1        0.0018
     25 O          -2.1580   -0.7460    0.0000 O.2     1  LIG1       -0.2733
     26 C          -2.1580    1.2580    0.0000 C.ar    1  LIG1        0.0181
     27 C          -1.2960    0.7460    0.0000 C.ar    1  LIG1        0.0205
     28 N           2.1710    0.7460    0.0000 N.pl3   1  LIG1       -0.2824
     29 C           3.0330    1.2630    0.0000 C.3     1  LIG1        0.1555
     30 C           3.9000    0.7460    0.0000 C.3     1  LIG1        0.1608
     31 N           3.8960   -0.2330    0.0000 N.4     1  LIG1        0.3847
     32 C           3.0210   -0.7330    0.0000 C.3     1  LIG1        0.1608
     33 C           2.1670   -0.2330    0.0000 C.3     1  LIG1        0.1555
     34 C           4.7580   -0.7420    0.0000 C.3     1  LIG1        0.2024
@<TRIPOS>BOND
     1     1     2   ar
     2     1     6   ar
     3     1    28    1
     4     2     3   ar
     5     3     4   ar
     6     3    27   ar
     7     4     5   ar
     8     4     8   ar
     9     5     6   ar
    10     5     7    1
    11     8     9   ar
    12     9    10    1
    13     9    26   ar
    14    10    11   am
    15    11    12    2
    16    11    13    1
    17    13    14    1
    18    14    15    1
    19    15    16   am
    20    15    25    2
    21    16    17    1
    22    17    18    1
    23    17    22    1
    24    18    19    1
    25    18    24    1
    26    19    20    1
    27    19    23    1
    28    20    21    1
    29    21    22    1
    30    26    27   ar
    31    28    29    1
    32    28    33    1
    33    29    30    1
    34    30    31    1
    35    31    32    1
    36    31    34    1
    37    32    33    1
