@<TRIPOS>MOLECULE
32335_ChemDiv_5954-3565
 34 37 0 0 0
SMALL
GASTEIGER
Energy = 0

@<TRIPOS>ATOM
      1 S          -3.4130    0.7420    0.0000 S.O2    1  LIG1        0.0665
      2 N          -2.5290    0.2460    0.0000 N.3     1  LIG1       -0.1287
      3 C          -2.5290   -0.7540    0.0000 C.3     1  LIG1        0.1940
      4 N          -3.4130   -1.2960    0.0000 N.pl3   1  LIG1       -0.2156
      5 C          -4.3000   -0.7750    0.0000 C.ar    1  LIG1        0.0857
      6 C          -4.2830    0.2460    0.0000 C.ar    1  LIG1        0.1370
      7 C          -5.1790    0.7420    0.0000 C.ar    1  LIG1        0.0212
      8 C          -6.0580    0.2290    0.0000 C.ar    1  LIG1        0.0015
      9 C          -6.0580   -0.7880    0.0000 C.ar    1  LIG1        0.0014
     10 C          -5.1790   -1.2960    0.0000 C.ar    1  LIG1        0.0175
     11 C          -1.6670   -1.2380    0.0000 C.ar    1  LIG1        0.0143
     12 C          -0.8130   -0.7380    0.0000 C.ar    1  LIG1        0.0019
     13 C           0.0460   -1.2330    0.0000 C.ar    1  LIG1        0.0367
     14 C           0.0460   -2.2130    0.0000 C.ar    1  LIG1        0.1393
     15 O           0.9080   -2.7130    0.0000 O.3     1  LIG1       -0.4656
     16 C           1.7670   -2.2130    0.0000 C.3     1  LIG1        0.2911
     17 C           2.6210   -2.6880    0.0000 C.2     1  LIG1        0.2859
     18 N           3.4830   -2.1960    0.0000 N.am    1  LIG1       -0.2023
     19 C           4.3420   -2.6880    0.0000 C.3     1  LIG1        0.1152
     20 C           5.1920   -2.1790    0.0000 C.3     1  LIG1        0.0217
     21 C           5.1790   -1.1920    0.0000 C.3     1  LIG1        0.0018
     22 C           6.0580   -2.6750    0.0000 C.3     1  LIG1        0.0018
     23 O           2.6210   -3.6880    0.0000 O.2     1  LIG1       -0.2693
     24 C          -0.8080   -2.7290    0.0000 C.ar    1  LIG1        0.0367
     25 C          -1.6500   -2.2380    0.0000 C.ar    1  LIG1        0.0019
     26 C          -1.6460    0.7380    0.0000 C.3     1  LIG1        0.1243
     27 C          -1.6460    1.7250    0.0000 C.ar    1  LIG1       -0.0044
     28 C          -2.4880    2.2210    0.0000 C.ar    1  LIG1       -0.0029
     29 C          -2.4880    3.1920    0.0000 C.ar    1  LIG1       -0.0003
     30 C          -1.6460    3.6920    0.0000 C.ar    1  LIG1       -0.0000
     31 C          -0.7920    3.1960    0.0000 C.ar    1  LIG1       -0.0003
     32 C          -0.7920    2.2210    0.0000 C.ar    1  LIG1       -0.0029
     33 O          -2.6920    1.4750    0.0000 O.2     1  LIG1       -0.1527
     34 O          -4.1460    1.4750    0.0000 O.2     1  LIG1       -0.1527
@<TRIPOS>BOND
     1     1     2    1
     2     1     6    1
     3     1    33    2
     4     1    34    2
     5     2     3    1
     6     2    26    1
     7     3     4    1
     8     3    11    1
     9     4     5    1
    10     5     6   ar
    11     5    10   ar
    12     6     7   ar
    13     7     8   ar
    14     8     9   ar
    15     9    10   ar
    16    11    12   ar
    17    11    25   ar
    18    12    13   ar
    19    13    14   ar
    20    14    15    1
    21    14    24   ar
    22    15    16    1
    23    16    17    1
    24    17    18   am
    25    17    23    2
    26    18    19    1
    27    19    20    1
    28    20    21    1
    29    20    22    1
    30    24    25   ar
    31    26    27    1
    32    27    28   ar
    33    27    32   ar
    34    28    29   ar
    35    29    30   ar
    36    30    31   ar
    37    31    32   ar
