@<TRIPOS>MOLECULE
32332_ChemDiv_C204-0207
 30 32 0 0 0
SMALL
GASTEIGER
Energy = 0

@<TRIPOS>ATOM
      1 C           1.3080    1.0080    0.0000 C.ar    1  LIG1        0.1316
      2 N           0.4420    0.5000    0.0000 N.ar    1  LIG1       -0.2307
      3 C          -0.4330    1.0080    0.0000 C.ar    1  LIG1        0.0825
      4 C          -0.4330    2.0080    0.0000 C.ar    1  LIG1        0.0151
      5 C           0.4420    2.5080    0.0000 C.ar    1  LIG1       -0.0176
      6 C           1.3080    2.0080    0.0000 C.ar    1  LIG1        0.0301
      7 C           0.4420    3.5080    0.0000 C.3     1  LIG1        0.0312
      8 C          -1.2960    2.5080    0.0000 C.ar    1  LIG1        0.0178
      9 C          -2.1580    2.0000    0.0000 C.ar    1  LIG1        0.0735
     10 N          -3.0330    2.5080    0.0000 N.am    1  LIG1       -0.1792
     11 C          -3.9000    2.0000    0.0000 C.2     1  LIG1        0.2461
     12 O          -4.7630    2.4830    0.0000 O.2     1  LIG1       -0.2730
     13 C          -3.8830    0.9960    0.0000 C.3     1  LIG1        0.0968
     14 C          -3.0210    0.5000    0.0000 C.3     1  LIG1        0.0964
     15 C          -3.0210   -0.4920    0.0000 C.2     1  LIG1        0.2418
     16 N          -3.8830   -0.9960    0.0000 N.am    1  LIG1       -0.2072
     17 C          -3.8830   -2.0080    0.0000 C.3     1  LIG1        0.0954
     18 C          -3.0040   -2.5080    0.0000 C.3     1  LIG1        0.0217
     19 C          -3.0040   -3.5040    0.0000 C.3     1  LIG1        0.0018
     20 C          -4.7460   -2.5080    0.0000 C.3     1  LIG1        0.0234
     21 O          -2.1580   -0.9960    0.0000 O.2     1  LIG1       -0.2733
     22 C          -2.1580    1.0080    0.0000 C.ar    1  LIG1        0.0181
     23 C          -1.2960    0.5000    0.0000 C.ar    1  LIG1        0.0205
     24 N           2.1710    0.5000    0.0000 N.pl3   1  LIG1       -0.2824
     25 C           3.0290    1.0170    0.0000 C.3     1  LIG1        0.1555
     26 C           3.9000    0.5000    0.0000 C.3     1  LIG1        0.1608
     27 N           3.8960   -0.4790    0.0000 N.4     1  LIG1        0.3847
     28 C           3.0210   -0.9790    0.0000 C.3     1  LIG1        0.1608
     29 C           2.1670   -0.4790    0.0000 C.3     1  LIG1        0.1555
     30 C           4.7580   -0.9880    0.0000 C.3     1  LIG1        0.2024
@<TRIPOS>BOND
     1     1     2   ar
     2     1     6   ar
     3     1    24    1
     4     2     3   ar
     5     3     4   ar
     6     3    23   ar
     7     4     5   ar
     8     4     8   ar
     9     5     6   ar
    10     5     7    1
    11     8     9   ar
    12     9    10    1
    13     9    22   ar
    14    10    11   am
    15    11    12    2
    16    11    13    1
    17    13    14    1
    18    14    15    1
    19    15    16   am
    20    15    21    2
    21    16    17    1
    22    17    18    1
    23    17    20    1
    24    18    19    1
    25    22    23   ar
    26    24    25    1
    27    24    29    1
    28    25    26    1
    29    26    27    1
    30    27    28    1
    31    27    30    1
    32    28    29    1
