@<TRIPOS>MOLECULE
32333_ChemDiv_5954-3410
 32 35 0 0 0
SMALL
GASTEIGER
Energy = 0

@<TRIPOS>ATOM
      1 S          -1.6830    1.4670    0.0000 S.O2    1  LIG1        0.0665
      2 N          -0.8000    0.9670    0.0000 N.3     1  LIG1       -0.1287
      3 C          -0.8000   -0.0330    0.0000 C.3     1  LIG1        0.1941
      4 N          -1.6830   -0.5750    0.0000 N.pl3   1  LIG1       -0.2156
      5 C          -2.5750   -0.0540    0.0000 C.ar    1  LIG1        0.0857
      6 C          -2.5580    0.9670    0.0000 C.ar    1  LIG1        0.1370
      7 C          -3.4500    1.4670    0.0000 C.ar    1  LIG1        0.0212
      8 C          -4.3330    0.9500    0.0000 C.ar    1  LIG1        0.0015
      9 C          -4.3330   -0.0670    0.0000 C.ar    1  LIG1        0.0014
     10 C          -3.4500   -0.5750    0.0000 C.ar    1  LIG1        0.0175
     11 C           0.0630   -0.5170    0.0000 C.ar    1  LIG1        0.0173
     12 C           0.9170   -0.0080    0.0000 C.ar    1  LIG1        0.0388
     13 C           1.7750   -0.4960    0.0000 C.ar    1  LIG1        0.1720
     14 C           1.7920   -1.4750    0.0000 C.ar    1  LIG1        0.1722
     15 C           0.9380   -1.9830    0.0000 C.ar    1  LIG1        0.0398
     16 C           0.0790   -1.5040    0.0000 C.ar    1  LIG1        0.0021
     17 O           2.6540   -1.9540    0.0000 O.3     1  LIG1       -0.4724
     18 C           2.6580   -2.9420    0.0000 C.3     1  LIG1        0.2056
     19 C           3.5380   -3.4210    0.0000 C.3     1  LIG1        0.0473
     20 C           3.5540   -4.4130    0.0000 C.3     1  LIG1        0.0040
     21 O           2.6130    0.0210    0.0000 O.3     1  LIG1       -0.4724
     22 C           3.4790   -0.4580    0.0000 C.3     1  LIG1        0.2057
     23 C           4.3290    0.0290    0.0000 C.3     1  LIG1        0.0512
     24 C           0.0830    1.4580    0.0000 C.3     1  LIG1        0.1243
     25 C           0.0830    2.4500    0.0000 C.ar    1  LIG1       -0.0044
     26 C           0.9380    2.9420    0.0000 C.ar    1  LIG1       -0.0029
     27 C           0.9380    3.9210    0.0000 C.ar    1  LIG1       -0.0003
     28 C           0.0830    4.4130    0.0000 C.ar    1  LIG1       -0.0000
     29 C          -0.7630    3.9170    0.0000 C.ar    1  LIG1       -0.0003
     30 C          -0.7630    2.9420    0.0000 C.ar    1  LIG1       -0.0029
     31 O          -2.4170    2.2000    0.0000 O.2     1  LIG1       -0.1527
     32 O          -0.9670    2.2000    0.0000 O.2     1  LIG1       -0.1527
@<TRIPOS>BOND
     1     1     2    1
     2     1     6    1
     3     1    31    2
     4     1    32    2
     5     2     3    1
     6     2    24    1
     7     3     4    1
     8     3    11    1
     9     4     5    1
    10     5     6   ar
    11     5    10   ar
    12     6     7   ar
    13     7     8   ar
    14     8     9   ar
    15     9    10   ar
    16    11    12   ar
    17    11    16   ar
    18    12    13   ar
    19    13    14   ar
    20    13    21    1
    21    14    15   ar
    22    14    17    1
    23    15    16   ar
    24    17    18    1
    25    18    19    1
    26    19    20    1
    27    21    22    1
    28    22    23    1
    29    24    25    1
    30    25    26   ar
    31    25    30   ar
    32    26    27   ar
    33    27    28   ar
    34    28    29   ar
    35    29    30   ar
