@<TRIPOS>MOLECULE
32342_ChemDiv_6855-0114
 30 33 0 0 0
SMALL
GASTEIGER
Energy = 0

@<TRIPOS>ATOM
      1 N          -1.3960   -0.2750    0.0000 N.ar    1  LIG1       -0.1642
      2 C          -0.8960   -1.1420    0.0000 C.ar    1  LIG1        0.2418
      3 N          -1.5630   -1.8830    0.0000 N.ar    1  LIG1       -0.1915
      4 C          -2.4830   -1.4790    0.0000 C.ar    1  LIG1        0.1849
      5 N          -2.3750   -0.4880    0.0000 N.ar    1  LIG1       -0.1408
      6 C          -3.3380   -1.9880    0.0000 C.ar    1  LIG1        0.0376
      7 C          -3.3380   -2.9920    0.0000 C.ar    1  LIG1        0.0031
      8 C          -4.2080   -3.4830    0.0000 C.ar    1  LIG1        0.0001
      9 C          -5.0710   -2.9920    0.0000 C.ar    1  LIG1        0.0000
     10 C          -5.0710   -1.9880    0.0000 C.ar    1  LIG1        0.0001
     11 C          -4.2080   -1.4880    0.0000 C.ar    1  LIG1        0.0031
     12 N           0.0920   -1.2460    0.0000 N.pl3   1  LIG1       -0.1989
     13 C           0.5130   -2.1540    0.0000 C.3     1  LIG1        0.1417
     14 C           1.5040   -2.2540    0.0000 C.ar    1  LIG1       -0.0004
     15 C           2.0830   -1.4420    0.0000 C.ar    1  LIG1        0.0006
     16 C           3.0790   -1.5420    0.0000 C.ar    1  LIG1        0.0366
     17 C           3.4880   -2.4580    0.0000 C.ar    1  LIG1        0.1387
     18 C           2.9080   -3.2710    0.0000 C.ar    1  LIG1        0.0366
     19 C           1.9170   -3.1710    0.0000 C.ar    1  LIG1        0.0006
     20 O           4.4880   -2.5500    0.0000 O.3     1  LIG1       -0.4714
     21 C           5.0670   -1.7420    0.0000 C.3     1  LIG1        0.2525
     22 C          -0.9960    0.6380    0.0000 C.2     1  LIG1        0.2636
     23 C           0.0000    0.7420    0.0000 C.3     1  LIG1        0.1163
     24 C           0.4000    1.6670    0.0000 C.ar    1  LIG1       -0.0128
     25 C           1.4000    1.7710    0.0000 C.ar    1  LIG1       -0.0038
     26 C           1.8000    2.6790    0.0000 C.ar    1  LIG1       -0.0003
     27 C           1.2130    3.4880    0.0000 C.ar    1  LIG1       -0.0000
     28 C           0.2130    3.3790    0.0000 C.ar    1  LIG1       -0.0003
     29 C          -0.1920    2.4670    0.0000 C.ar    1  LIG1       -0.0038
     30 O          -1.5830    1.4460    0.0000 O.2     1  LIG1       -0.2697
@<TRIPOS>BOND
     1     1     2   ar
     2     1     5   ar
     3     1    22   am
     4     2     3   ar
     5     2    12    1
     6     3     4   ar
     7     4     5   ar
     8     4     6    1
     9     6     7   ar
    10     6    11   ar
    11     7     8   ar
    12     8     9   ar
    13     9    10   ar
    14    10    11   ar
    15    12    13    1
    16    13    14    1
    17    14    15   ar
    18    14    19   ar
    19    15    16   ar
    20    16    17   ar
    21    17    18   ar
    22    17    20    1
    23    18    19   ar
    24    20    21    1
    25    22    23    1
    26    22    30    2
    27    23    24    1
    28    24    25   ar
    29    24    29   ar
    30    25    26   ar
    31    26    27   ar
    32    27    28   ar
    33    28    29   ar
