@<TRIPOS>MOLECULE
32346_ChemDiv_6855-0151
 31 34 0 0 0
SMALL
GASTEIGER
Energy = 0

@<TRIPOS>ATOM
      1 N          -1.1000   -0.7790    0.0000 N.ar    1  LIG1       -0.1642
      2 C          -0.6040   -1.6500    0.0000 C.ar    1  LIG1        0.2418
      3 N          -1.2710   -2.3920    0.0000 N.ar    1  LIG1       -0.1915
      4 C          -2.1880   -1.9790    0.0000 C.ar    1  LIG1        0.1849
      5 N          -2.0830   -0.9920    0.0000 N.ar    1  LIG1       -0.1408
      6 C          -3.0380   -2.4920    0.0000 C.ar    1  LIG1        0.0376
      7 C          -3.0380   -3.4920    0.0000 C.ar    1  LIG1        0.0031
      8 C          -3.9130   -3.9960    0.0000 C.ar    1  LIG1        0.0001
      9 C          -4.7790   -3.4920    0.0000 C.ar    1  LIG1        0.0000
     10 C          -4.7790   -2.4920    0.0000 C.ar    1  LIG1        0.0001
     11 C          -3.9130   -1.9920    0.0000 C.ar    1  LIG1        0.0031
     12 N           0.3880   -1.7500    0.0000 N.pl3   1  LIG1       -0.1989
     13 C           0.8040   -2.6580    0.0000 C.3     1  LIG1        0.1417
     14 C           1.7960   -2.7540    0.0000 C.ar    1  LIG1       -0.0004
     15 C           2.2040   -3.6710    0.0000 C.ar    1  LIG1       -0.0002
     16 C           3.1960   -3.7670    0.0000 C.ar    1  LIG1        0.0294
     17 C           3.7750   -2.9580    0.0000 C.ar    1  LIG1        0.1401
     18 F           4.7750   -3.0540    0.0000 F       1  LIG1       -0.2042
     19 C           3.3710   -2.0420    0.0000 C.ar    1  LIG1        0.0294
     20 C           2.3710   -1.9540    0.0000 C.ar    1  LIG1       -0.0002
     21 C          -0.7000    0.1380    0.0000 C.2     1  LIG1        0.2636
     22 C           0.2920    0.2420    0.0000 C.3     1  LIG1        0.1163
     23 C           0.6880    1.1500    0.0000 C.ar    1  LIG1       -0.0126
     24 C           0.1000    1.9540    0.0000 C.ar    1  LIG1       -0.0007
     25 C           0.5040    2.8710    0.0000 C.ar    1  LIG1        0.0366
     26 C           1.5000    2.9830    0.0000 C.ar    1  LIG1        0.1387
     27 C           2.0920    2.1750    0.0000 C.ar    1  LIG1        0.0366
     28 C           1.6920    1.2580    0.0000 C.ar    1  LIG1       -0.0007
     29 O           1.9000    3.8960    0.0000 O.3     1  LIG1       -0.4714
     30 C           2.8960    4.0000    0.0000 C.3     1  LIG1        0.2525
     31 O          -1.2920    0.9420    0.0000 O.2     1  LIG1       -0.2697
@<TRIPOS>BOND
     1     1     2   ar
     2     1     5   ar
     3     1    21   am
     4     2     3   ar
     5     2    12    1
     6     3     4   ar
     7     4     5   ar
     8     4     6    1
     9     6     7   ar
    10     6    11   ar
    11     7     8   ar
    12     8     9   ar
    13     9    10   ar
    14    10    11   ar
    15    12    13    1
    16    13    14    1
    17    14    15   ar
    18    14    20   ar
    19    15    16   ar
    20    16    17   ar
    21    17    18    1
    22    17    19   ar
    23    19    20   ar
    24    21    22    1
    25    21    31    2
    26    22    23    1
    27    23    24   ar
    28    23    28   ar
    29    24    25   ar
    30    25    26   ar
    31    26    27   ar
    32    26    29    1
    33    27    28   ar
    34    29    30    1
