@<TRIPOS>MOLECULE
32347_ChemDiv_6049-1964
 31 35 0 0 0
SMALL
GASTEIGER
Energy = 0

@<TRIPOS>ATOM
      1 C          -2.4710   -1.5330    0.0000 C.3     1  LIG1        0.1113
      2 C          -2.4130   -1.0960    0.0000 C.3     1  LIG1        0.0746
      3 C          -3.5250   -0.9880    0.0000 C.3     1  LIG1        0.1209
      4 O          -4.0750   -0.1920    0.0000 O.3     1  LIG1       -0.3578
      5 C          -3.5960   -1.4540    0.0000 C.3     1  LIG1        0.1242
      6 C          -4.4750   -2.3710    0.0000 C.3     1  LIG1        0.0326
      7 C          -4.4330   -1.8250    0.0000 C.3     1  LIG1        0.0324
      8 C          -1.9750   -0.2210    0.0000 C.2     1  LIG1        0.0529
      9 O          -2.4710    0.6710    0.0000 O.co2   1  LIG1       -0.5491
     10 O          -0.9500   -0.1380    0.0000 O.co2   1  LIG1       -0.5491
     11 C          -1.6210   -2.0250    0.0000 C.2     1  LIG1        0.2283
     12 N          -0.7710   -1.5330    0.0000 N.am    1  LIG1       -0.2680
     13 C           0.1040   -2.0170    0.0000 C.3     1  LIG1        0.1565
     14 C           0.9710   -1.5210    0.0000 C.3     1  LIG1        0.1612
     15 N           0.9460   -0.5130    0.0000 N.4     1  LIG1        0.3820
     16 C           1.7790    0.0250    0.0000 C.3     1  LIG1        0.1331
     17 C           2.6580   -0.4290    0.0000 C.ar    1  LIG1        0.0328
     18 C           2.7250   -1.4250    0.0000 C.ar    1  LIG1        0.0016
     19 C           3.5920   -1.8920    0.0000 C.ar    1  LIG1       -0.0001
     20 C           4.4710   -1.3420    0.0000 C.ar    1  LIG1       -0.0000
     21 C           4.4000   -0.3290    0.0000 C.ar    1  LIG1       -0.0001
     22 C           3.5080    0.0960    0.0000 C.ar    1  LIG1        0.0016
     23 C           1.7380    1.0130    0.0000 C.ar    1  LIG1        0.0328
     24 C           0.8630    1.4830    0.0000 C.ar    1  LIG1        0.0016
     25 C           0.8080    2.4830    0.0000 C.ar    1  LIG1       -0.0001
     26 C           1.6420    3.0210    0.0000 C.ar    1  LIG1       -0.0000
     27 C           2.5210    2.5630    0.0000 C.ar    1  LIG1       -0.0001
     28 C           2.5880    1.5630    0.0000 C.ar    1  LIG1        0.0016
     29 C           0.0790   -0.0290    0.0000 C.3     1  LIG1        0.1612
     30 C          -0.7710   -0.5500    0.0000 C.3     1  LIG1        0.1565
     31 O          -1.6210   -3.0170    0.0000 O.2     1  LIG1       -0.2748
@<TRIPOS>BOND
     1     1     2    1
     2     1     5    1
     3     1    11    1
     4     2     3    1
     5     2     8    1
     6     3     4    1
     7     3     7    1
     8     4     5    1
     9     5     6    1
    10     6     7    1
    11     8     9   ar
    12     8    10   ar
    13    11    12   am
    14    11    31    2
    15    12    13    1
    16    12    30    1
    17    13    14    1
    18    14    15    1
    19    15    16    1
    20    15    29    1
    21    16    17    1
    22    16    23    1
    23    17    18   ar
    24    17    22   ar
    25    18    19   ar
    26    19    20   ar
    27    20    21   ar
    28    21    22   ar
    29    23    24   ar
    30    23    28   ar
    31    24    25   ar
    32    25    26   ar
    33    26    27   ar
    34    27    28   ar
    35    29    30    1
