@<TRIPOS>MOLECULE
32345_ChemDiv_6049-2009
 22 25 0 0 0
SMALL
GASTEIGER
Energy = 0

@<TRIPOS>ATOM
      1 C          -0.2210    0.1500    0.0000 C.2     1  LIG1        0.0835
      2 C          -1.0790   -0.3460    0.0000 C.2     1  LIG1        0.0630
      3 C          -1.0790   -1.2710    0.0000 C.2     1  LIG1        0.2692
      4 N          -1.8960   -1.7380    0.0000 N.am    1  LIG1       -0.1754
      5 C          -2.7130   -1.2710    0.0000 C.ar    1  LIG1        0.0738
      6 C          -2.7130   -0.3460    0.0000 C.ar    1  LIG1        0.0200
      7 C          -3.5290    0.1210    0.0000 C.ar    1  LIG1        0.0014
      8 C          -4.3460   -0.3460    0.0000 C.ar    1  LIG1        0.0001
      9 C          -4.3460   -1.2710    0.0000 C.ar    1  LIG1        0.0013
     10 C          -3.5290   -1.7380    0.0000 C.ar    1  LIG1        0.0166
     11 O          -0.2080   -1.7630    0.0000 O.2     1  LIG1       -0.2680
     12 C          -0.1380    1.1330    0.0000 C.2     1  LIG1        0.3459
     13 O           0.8460    1.3580    0.0000 O.3     1  LIG1       -0.4210
     14 C           1.3540    0.5290    0.0000 C.2     1  LIG1        0.1489
     15 C           0.7210   -0.2500    0.0000 C.2     1  LIG1        0.0442
     16 C           2.3420    0.4880    0.0000 C.ar    1  LIG1        0.0347
     17 C           2.8040   -0.4040    0.0000 C.ar    1  LIG1        0.0030
     18 C           3.8040   -0.4290    0.0000 C.ar    1  LIG1        0.0001
     19 C           4.3420    0.4000    0.0000 C.ar    1  LIG1        0.0000
     20 C           3.8750    1.2880    0.0000 C.ar    1  LIG1        0.0001
     21 C           2.8750    1.3290    0.0000 C.ar    1  LIG1        0.0030
     22 O          -0.8830    1.7670    0.0000 O.2     1  LIG1       -0.2445
@<TRIPOS>BOND
     1     1     2    2
     2     1    12    1
     3     1    15    1
     4     2     3    1
     5     2     6    1
     6     3     4   am
     7     3    11    2
     8     4     5    1
     9     5     6   ar
    10     5    10   ar
    11     6     7   ar
    12     7     8   ar
    13     8     9   ar
    14     9    10   ar
    15    12    13    1
    16    12    22    2
    17    13    14    1
    18    14    15    2
    19    14    16    1
    20    16    17   ar
    21    16    21   ar
    22    17    18   ar
    23    18    19   ar
    24    19    20   ar
    25    20    21   ar
