@<TRIPOS>MOLECULE
32355_ChemDiv_6028-4322
 35 39 0 0 0
SMALL
GASTEIGER
Energy = 0

@<TRIPOS>ATOM
      1 S          -2.9830    0.7420    0.0000 S.O2    1  LIG1        0.0665
      2 N          -2.1000    0.2330    0.0000 N.3     1  LIG1       -0.1287
      3 C          -2.1000   -0.7540    0.0000 C.3     1  LIG1        0.1940
      4 N          -2.9830   -1.3080    0.0000 N.pl3   1  LIG1       -0.2156
      5 C          -3.8790   -0.7880    0.0000 C.ar    1  LIG1        0.0857
      6 C          -3.8670    0.2330    0.0000 C.ar    1  LIG1        0.1370
      7 C          -4.7540    0.7420    0.0000 C.ar    1  LIG1        0.0212
      8 C          -5.6250    0.2210    0.0000 C.ar    1  LIG1        0.0015
      9 C          -5.6250   -0.8000    0.0000 C.ar    1  LIG1        0.0014
     10 C          -4.7540   -1.3080    0.0000 C.ar    1  LIG1        0.0175
     11 C          -1.2380   -1.2500    0.0000 C.ar    1  LIG1        0.0143
     12 C          -1.2250   -2.2420    0.0000 C.ar    1  LIG1        0.0019
     13 C          -0.3670   -2.7170    0.0000 C.ar    1  LIG1        0.0367
     14 C           0.4880   -2.2290    0.0000 C.ar    1  LIG1        0.1393
     15 O           1.3380   -2.7040    0.0000 O.3     1  LIG1       -0.4656
     16 C           2.1880   -2.2130    0.0000 C.3     1  LIG1        0.2896
     17 C           3.0580   -2.7000    0.0000 C.2     1  LIG1        0.2702
     18 N           3.9130   -2.1960    0.0000 N.am    1  LIG1       -0.2765
     19 C           3.9000   -1.2210    0.0000 C.3     1  LIG1        0.0935
     20 C           4.7420   -0.7080    0.0000 C.3     1  LIG1        0.0216
     21 C           5.6130   -1.1920    0.0000 C.3     1  LIG1        0.0035
     22 C           5.6210   -2.1830    0.0000 C.3     1  LIG1        0.0216
     23 C           4.7630   -2.6920    0.0000 C.3     1  LIG1        0.0935
     24 O           3.0630   -3.6920    0.0000 O.2     1  LIG1       -0.2708
     25 C           0.4750   -1.2290    0.0000 C.ar    1  LIG1        0.0367
     26 C          -0.3880   -0.7420    0.0000 C.ar    1  LIG1        0.0019
     27 C          -1.2130    0.7330    0.0000 C.3     1  LIG1        0.1243
     28 C          -1.2130    1.7210    0.0000 C.ar    1  LIG1       -0.0044
     29 C          -2.0670    2.2170    0.0000 C.ar    1  LIG1       -0.0029
     30 C          -2.0670    3.1960    0.0000 C.ar    1  LIG1       -0.0003
     31 C          -1.2080    3.6960    0.0000 C.ar    1  LIG1       -0.0000
     32 C          -0.3500    3.2040    0.0000 C.ar    1  LIG1       -0.0003
     33 C          -0.3500    2.2170    0.0000 C.ar    1  LIG1       -0.0029
     34 O          -2.2630    1.4750    0.0000 O.2     1  LIG1       -0.1527
     35 O          -3.7080    1.4750    0.0000 O.2     1  LIG1       -0.1527
@<TRIPOS>BOND
     1     1     2    1
     2     1     6    1
     3     1    34    2
     4     1    35    2
     5     2     3    1
     6     2    27    1
     7     3     4    1
     8     3    11    1
     9     4     5    1
    10     5     6   ar
    11     5    10   ar
    12     6     7   ar
    13     7     8   ar
    14     8     9   ar
    15     9    10   ar
    16    11    12   ar
    17    11    26   ar
    18    12    13   ar
    19    13    14   ar
    20    14    15    1
    21    14    25   ar
    22    15    16    1
    23    16    17    1
    24    17    18   am
    25    17    24    2
    26    18    19    1
    27    18    23    1
    28    19    20    1
    29    20    21    1
    30    21    22    1
    31    22    23    1
    32    25    26   ar
    33    27    28    1
    34    28    29   ar
    35    28    33   ar
    36    29    30   ar
    37    30    31   ar
    38    31    32   ar
    39    32    33   ar
