@<TRIPOS>MOLECULE
32352_ChemDiv_6855-0187
 29 32 0 0 0
SMALL
GASTEIGER
Energy = 0

@<TRIPOS>ATOM
      1 N          -0.1670   -0.2750    0.0000 N.ar    1  LIG1       -0.1642
      2 C           0.3330   -1.1460    0.0000 C.ar    1  LIG1        0.2419
      3 N          -0.3290   -1.8880    0.0000 N.ar    1  LIG1       -0.1915
      4 C          -1.2500   -1.4750    0.0000 C.ar    1  LIG1        0.1849
      5 N          -1.1460   -0.4880    0.0000 N.ar    1  LIG1       -0.1408
      6 C          -2.1000   -1.9880    0.0000 C.ar    1  LIG1        0.0376
      7 C          -2.9750   -1.4830    0.0000 C.ar    1  LIG1        0.0031
      8 C          -3.8420   -1.9880    0.0000 C.ar    1  LIG1        0.0001
      9 C          -3.8420   -2.9880    0.0000 C.ar    1  LIG1        0.0000
     10 C          -2.9750   -3.4920    0.0000 C.ar    1  LIG1        0.0001
     11 C          -2.1000   -2.9880    0.0000 C.ar    1  LIG1        0.0031
     12 N           1.3290   -1.2460    0.0000 N.pl3   1  LIG1       -0.1955
     13 C           1.7420   -2.1540    0.0000 C.3     1  LIG1        0.1793
     14 C           1.1630   -2.9630    0.0000 C.ar    1  LIG1        0.1449
     15 O           0.1580   -2.9750    0.0000 O.2     1  LIG1       -0.4529
     16 C          -0.1330   -3.9250    0.0000 C.ar    1  LIG1        0.1792
     17 C           0.6750   -4.5080    0.0000 C.ar    1  LIG1        0.0435
     18 C           1.4750   -3.9170    0.0000 C.ar    1  LIG1        0.0380
     19 C           0.2330    0.6460    0.0000 C.2     1  LIG1        0.2636
     20 C           1.2290    0.7500    0.0000 C.3     1  LIG1        0.1163
     21 C           1.6290    1.6540    0.0000 C.ar    1  LIG1       -0.0126
     22 C           1.0380    2.4580    0.0000 C.ar    1  LIG1       -0.0007
     23 C           1.4420    3.3750    0.0000 C.ar    1  LIG1        0.0366
     24 C           2.4380    3.4920    0.0000 C.ar    1  LIG1        0.1387
     25 C           3.0290    2.6750    0.0000 C.ar    1  LIG1        0.0366
     26 C           2.6250    1.7630    0.0000 C.ar    1  LIG1       -0.0007
     27 O           2.8420    4.3960    0.0000 O.3     1  LIG1       -0.4714
     28 C           3.8380    4.5080    0.0000 C.3     1  LIG1        0.2525
     29 O          -0.3540    1.4460    0.0000 O.2     1  LIG1       -0.2697
@<TRIPOS>BOND
     1     1     2   ar
     2     1     5   ar
     3     1    19   am
     4     2     3   ar
     5     2    12    1
     6     3     4   ar
     7     4     5   ar
     8     4     6    1
     9     6     7   ar
    10     6    11   ar
    11     7     8   ar
    12     8     9   ar
    13     9    10   ar
    14    10    11   ar
    15    12    13    1
    16    13    14    1
    17    14    15   ar
    18    14    18   ar
    19    15    16   ar
    20    16    17   ar
    21    17    18   ar
    22    19    20    1
    23    19    29    2
    24    20    21    1
    25    21    22   ar
    26    21    26   ar
    27    22    23   ar
    28    23    24   ar
    29    24    25   ar
    30    24    27    1
    31    25    26   ar
    32    27    28    1
