@<TRIPOS>MOLECULE
32359_ChemDiv_6028-7258
 28 32 0 0 0
SMALL
GASTEIGER
Energy = 0

@<TRIPOS>ATOM
      1 S          -1.1710    0.2580    0.0000 S.O2    1  LIG1        0.0665
      2 N          -0.2920   -0.2540    0.0000 N.3     1  LIG1       -0.1287
      3 C          -0.2920   -1.2380    0.0000 C.3     1  LIG1        0.1941
      4 N          -1.1710   -1.7790    0.0000 N.pl3   1  LIG1       -0.2156
      5 C          -2.0630   -1.2670    0.0000 C.ar    1  LIG1        0.0857
      6 C          -2.0500   -0.2540    0.0000 C.ar    1  LIG1        0.1370
      7 C          -2.9330    0.2580    0.0000 C.ar    1  LIG1        0.0212
      8 C          -3.8080   -0.2630    0.0000 C.ar    1  LIG1        0.0015
      9 C          -3.8080   -1.2750    0.0000 C.ar    1  LIG1        0.0014
     10 C          -2.9330   -1.7790    0.0000 C.ar    1  LIG1        0.0175
     11 C           0.5630   -1.7210    0.0000 C.ar    1  LIG1        0.0173
     12 C           1.4130   -1.2210    0.0000 C.ar    1  LIG1        0.0390
     13 C           2.2750   -1.7080    0.0000 C.ar    1  LIG1        0.1762
     14 C           2.2790   -2.6960    0.0000 C.ar    1  LIG1        0.1764
     15 O           3.2290   -2.9920    0.0000 O.3     1  LIG1       -0.4346
     16 C           3.8040   -2.1880    0.0000 C.3     1  LIG1        0.4294
     17 O           3.2040   -1.3880    0.0000 O.3     1  LIG1       -0.4346
     18 C           1.4290   -3.2000    0.0000 C.ar    1  LIG1        0.0400
     19 C           0.5630   -2.7130    0.0000 C.ar    1  LIG1        0.0021
     20 C           0.5880    0.2500    0.0000 C.3     1  LIG1        0.1243
     21 C           0.5880    1.2330    0.0000 C.ar    1  LIG1       -0.0044
     22 C          -0.2580    1.7250    0.0000 C.ar    1  LIG1       -0.0029
     23 C          -0.2580    2.7000    0.0000 C.ar    1  LIG1       -0.0003
     24 C           0.5960    3.2040    0.0000 C.ar    1  LIG1       -0.0000
     25 C           1.4460    2.7080    0.0000 C.ar    1  LIG1       -0.0003
     26 C           1.4460    1.7250    0.0000 C.ar    1  LIG1       -0.0029
     27 O          -1.8960    0.9880    0.0000 O.2     1  LIG1       -0.1527
     28 O          -0.4540    0.9880    0.0000 O.2     1  LIG1       -0.1527
@<TRIPOS>BOND
     1     1     2    1
     2     1     6    1
     3     1    27    2
     4     1    28    2
     5     2     3    1
     6     2    20    1
     7     3     4    1
     8     3    11    1
     9     4     5    1
    10     5     6   ar
    11     5    10   ar
    12     6     7   ar
    13     7     8   ar
    14     8     9   ar
    15     9    10   ar
    16    11    12   ar
    17    11    19   ar
    18    12    13   ar
    19    13    14   ar
    20    13    17    1
    21    14    15    1
    22    14    18   ar
    23    15    16    1
    24    16    17    1
    25    18    19   ar
    26    20    21    1
    27    21    22   ar
    28    21    26   ar
    29    22    23   ar
    30    23    24   ar
    31    24    25   ar
    32    25    26   ar
