@<TRIPOS>MOLECULE
32356_ChemDiv_C204-0343
 32 34 0 0 0
SMALL
GASTEIGER
Energy = 0

@<TRIPOS>ATOM
      1 C           1.3080    2.0000    0.0000 C.ar    1  LIG1        0.1316
      2 N           0.4420    1.4920    0.0000 N.ar    1  LIG1       -0.2307
      3 C          -0.4330    2.0000    0.0000 C.ar    1  LIG1        0.0825
      4 C          -0.4330    3.0000    0.0000 C.ar    1  LIG1        0.0151
      5 C           0.4420    3.5040    0.0000 C.ar    1  LIG1       -0.0176
      6 C           1.3080    3.0000    0.0000 C.ar    1  LIG1        0.0301
      7 C           0.4420    4.5000    0.0000 C.3     1  LIG1        0.0312
      8 C          -1.2960    3.5040    0.0000 C.ar    1  LIG1        0.0178
      9 C          -2.1580    2.9920    0.0000 C.ar    1  LIG1        0.0735
     10 N          -3.0330    3.5040    0.0000 N.am    1  LIG1       -0.1792
     11 C          -3.9000    2.9920    0.0000 C.2     1  LIG1        0.2461
     12 O          -4.7630    3.4750    0.0000 O.2     1  LIG1       -0.2730
     13 C          -3.8830    1.9880    0.0000 C.3     1  LIG1        0.0968
     14 C          -3.0210    1.4920    0.0000 C.3     1  LIG1        0.0964
     15 C          -3.0210    0.5000    0.0000 C.2     1  LIG1        0.2419
     16 O          -2.1580   -0.0040    0.0000 O.2     1  LIG1       -0.2733
     17 N          -3.8830   -0.0040    0.0000 N.am    1  LIG1       -0.2053
     18 C          -3.8830   -1.0040    0.0000 C.3     1  LIG1        0.1177
     19 C          -3.0080   -1.5040    0.0000 C.3     1  LIG1        0.0555
     20 C          -3.0040   -2.5000    0.0000 C.3     1  LIG1        0.1440
     21 O          -2.1420   -2.9960    0.0000 O.3     1  LIG1       -0.3537
     22 C          -2.1420   -4.0000    0.0000 C.3     1  LIG1        0.1422
     23 C          -1.2710   -4.5000    0.0000 C.3     1  LIG1        0.0346
     24 C          -2.1580    2.0000    0.0000 C.ar    1  LIG1        0.0181
     25 C          -1.2960    1.4920    0.0000 C.ar    1  LIG1        0.0205
     26 N           2.1710    1.4920    0.0000 N.pl3   1  LIG1       -0.2824
     27 C           2.1670    0.5130    0.0000 C.3     1  LIG1        0.1555
     28 C           3.0210    0.0130    0.0000 C.3     1  LIG1        0.1608
     29 N           3.8960    0.5130    0.0000 N.4     1  LIG1        0.3847
     30 C           3.9000    1.4920    0.0000 C.3     1  LIG1        0.1608
     31 C           3.0290    2.0080    0.0000 C.3     1  LIG1        0.1555
     32 C           4.7580    0.0040    0.0000 C.3     1  LIG1        0.2024
@<TRIPOS>BOND
     1     1     2   ar
     2     1     6   ar
     3     1    26    1
     4     2     3   ar
     5     3     4   ar
     6     3    25   ar
     7     4     5   ar
     8     4     8   ar
     9     5     6   ar
    10     5     7    1
    11     8     9   ar
    12     9    10    1
    13     9    24   ar
    14    10    11   am
    15    11    12    2
    16    11    13    1
    17    13    14    1
    18    14    15    1
    19    15    16    2
    20    15    17   am
    21    17    18    1
    22    18    19    1
    23    19    20    1
    24    20    21    1
    25    21    22    1
    26    22    23    1
    27    24    25   ar
    28    26    27    1
    29    26    31    1
    30    27    28    1
    31    28    29    1
    32    29    30    1
    33    29    32    1
    34    30    31    1
