@<TRIPOS>MOLECULE
32357_ChemDiv_6028-6066
 38 42 0 0 0
SMALL
GASTEIGER
Energy = 0

@<TRIPOS>ATOM
      1 S          -3.4170    0.9670    0.0000 S.O2    1  LIG1        0.0665
      2 N          -2.5330    0.4540    0.0000 N.3     1  LIG1       -0.1287
      3 C          -2.5330   -0.5330    0.0000 C.3     1  LIG1        0.1940
      4 N          -3.4170   -1.0830    0.0000 N.pl3   1  LIG1       -0.2156
      5 C          -4.3130   -0.5580    0.0000 C.ar    1  LIG1        0.0857
      6 C          -4.3040    0.4540    0.0000 C.ar    1  LIG1        0.1370
      7 C          -5.1830    0.9670    0.0000 C.ar    1  LIG1        0.0212
      8 C          -6.0580    0.4420    0.0000 C.ar    1  LIG1        0.0015
      9 C          -6.0580   -0.5710    0.0000 C.ar    1  LIG1        0.0014
     10 C          -5.1830   -1.0830    0.0000 C.ar    1  LIG1        0.0175
     11 C          -1.6750   -1.0250    0.0000 C.ar    1  LIG1        0.0143
     12 C          -0.8290   -0.5210    0.0000 C.ar    1  LIG1        0.0019
     13 C           0.0460   -1.0000    0.0000 C.ar    1  LIG1        0.0367
     14 C           0.0500   -2.0000    0.0000 C.ar    1  LIG1        0.1393
     15 O           0.9040   -2.4830    0.0000 O.3     1  LIG1       -0.4656
     16 C           1.7580   -1.9750    0.0000 C.3     1  LIG1        0.2915
     17 C           2.6210   -2.4580    0.0000 C.2     1  LIG1        0.2902
     18 N           3.4750   -1.9540    0.0000 N.am    1  LIG1       -0.1730
     19 C           4.3380   -2.4460    0.0000 C.ar    1  LIG1        0.1073
     20 C           5.1830   -1.9420    0.0000 C.ar    1  LIG1        0.1539
     21 O           5.1710   -0.9540    0.0000 O.3     1  LIG1       -0.4701
     22 C           6.0250   -0.4580    0.0000 C.3     1  LIG1        0.2525
     23 C           6.0460   -2.4290    0.0000 C.ar    1  LIG1        0.0383
     24 C           6.0580   -3.4210    0.0000 C.ar    1  LIG1        0.0032
     25 C           5.1920   -3.9210    0.0000 C.ar    1  LIG1        0.0015
     26 C           4.3380   -3.4290    0.0000 C.ar    1  LIG1        0.0197
     27 O           2.6290   -3.4540    0.0000 O.2     1  LIG1       -0.2689
     28 C          -0.8040   -2.4960    0.0000 C.ar    1  LIG1        0.0367
     29 C          -1.6580   -2.0130    0.0000 C.ar    1  LIG1        0.0019
     30 C          -1.6460    0.9540    0.0000 C.3     1  LIG1        0.1243
     31 C          -1.6460    1.9420    0.0000 C.ar    1  LIG1       -0.0044
     32 C          -0.7920    2.4380    0.0000 C.ar    1  LIG1       -0.0029
     33 C          -0.7920    3.4250    0.0000 C.ar    1  LIG1       -0.0003
     34 C          -1.6460    3.9250    0.0000 C.ar    1  LIG1       -0.0000
     35 C          -2.5040    3.4210    0.0000 C.ar    1  LIG1       -0.0003
     36 C          -2.5040    2.4380    0.0000 C.ar    1  LIG1       -0.0029
     37 O          -2.6960    1.7000    0.0000 O.2     1  LIG1       -0.1527
     38 O          -4.1460    1.7000    0.0000 O.2     1  LIG1       -0.1527
@<TRIPOS>BOND
     1     1     2    1
     2     1     6    1
     3     1    37    2
     4     1    38    2
     5     2     3    1
     6     2    30    1
     7     3     4    1
     8     3    11    1
     9     4     5    1
    10     5     6   ar
    11     5    10   ar
    12     6     7   ar
    13     7     8   ar
    14     8     9   ar
    15     9    10   ar
    16    11    12   ar
    17    11    29   ar
    18    12    13   ar
    19    13    14   ar
    20    14    15    1
    21    14    28   ar
    22    15    16    1
    23    16    17    1
    24    17    18   am
    25    17    27    2
    26    18    19    1
    27    19    20   ar
    28    19    26   ar
    29    20    21    1
    30    20    23   ar
    31    21    22    1
    32    23    24   ar
    33    24    25   ar
    34    25    26   ar
    35    28    29   ar
    36    30    31    1
    37    31    32   ar
    38    31    36   ar
    39    32    33   ar
    40    33    34   ar
    41    34    35   ar
    42    35    36   ar
