@<TRIPOS>MOLECULE
32350_ChemDiv_6855-0186
 27 30 0 0 0
SMALL
GASTEIGER
Energy = 0

@<TRIPOS>ATOM
      1 N          -0.4130   -0.2750    0.0000 N.ar    1  LIG1       -0.1642
      2 C           0.0920   -1.1380    0.0000 C.ar    1  LIG1        0.2419
      3 N          -0.5750   -1.8830    0.0000 N.ar    1  LIG1       -0.1915
      4 C          -1.4960   -1.4830    0.0000 C.ar    1  LIG1        0.1849
      5 N          -1.3880   -0.4880    0.0000 N.ar    1  LIG1       -0.1408
      6 C          -2.3460   -1.9880    0.0000 C.ar    1  LIG1        0.0376
      7 C          -2.3460   -2.9880    0.0000 C.ar    1  LIG1        0.0031
      8 C          -3.2250   -3.4880    0.0000 C.ar    1  LIG1        0.0001
      9 C          -4.0830   -2.9880    0.0000 C.ar    1  LIG1        0.0000
     10 C          -4.0830   -1.9880    0.0000 C.ar    1  LIG1        0.0001
     11 C          -3.2250   -1.4880    0.0000 C.ar    1  LIG1        0.0031
     12 N           1.0830   -1.2460    0.0000 N.pl3   1  LIG1       -0.1955
     13 C           1.5040   -2.1540    0.0000 C.3     1  LIG1        0.1793
     14 C           2.4880   -2.2540    0.0000 C.ar    1  LIG1        0.1449
     15 O           2.9920   -3.1040    0.0000 O.2     1  LIG1       -0.4529
     16 C           3.9750   -2.8920    0.0000 C.ar    1  LIG1        0.1792
     17 C           4.0790   -1.9080    0.0000 C.ar    1  LIG1        0.0435
     18 C           3.1580   -1.5040    0.0000 C.ar    1  LIG1        0.0380
     19 C          -0.0130    0.6420    0.0000 C.2     1  LIG1        0.2636
     20 C           0.9880    0.7460    0.0000 C.3     1  LIG1        0.1163
     21 C           1.3880    1.6670    0.0000 C.ar    1  LIG1       -0.0128
     22 C           2.3880    1.7710    0.0000 C.ar    1  LIG1       -0.0038
     23 C           2.7920    2.6790    0.0000 C.ar    1  LIG1       -0.0003
     24 C           2.2000    3.4920    0.0000 C.ar    1  LIG1       -0.0000
     25 C           1.1960    3.3830    0.0000 C.ar    1  LIG1       -0.0003
     26 C           0.7920    2.4670    0.0000 C.ar    1  LIG1       -0.0038
     27 O          -0.6000    1.4420    0.0000 O.2     1  LIG1       -0.2697
@<TRIPOS>BOND
     1     1     2   ar
     2     1     5   ar
     3     1    19   am
     4     2     3   ar
     5     2    12    1
     6     3     4   ar
     7     4     5   ar
     8     4     6    1
     9     6     7   ar
    10     6    11   ar
    11     7     8   ar
    12     8     9   ar
    13     9    10   ar
    14    10    11   ar
    15    12    13    1
    16    13    14    1
    17    14    15   ar
    18    14    18   ar
    19    15    16   ar
    20    16    17   ar
    21    17    18   ar
    22    19    20    1
    23    19    27    2
    24    20    21    1
    25    21    22   ar
    26    21    26   ar
    27    22    23   ar
    28    23    24   ar
    29    24    25   ar
    30    25    26   ar
