@<TRIPOS>MOLECULE
32365_ChemDiv_5968-0034
 22 26 0 0 0
SMALL
GASTEIGER
Energy = 0

@<TRIPOS>ATOM
      1 N          -0.4460   -0.7170    0.0000 N.ar    1  LIG1       -0.2892
      2 C           0.1330   -1.5330    0.0000 C.ar    1  LIG1        0.1465
      3 N          -0.4460   -2.3290    0.0000 N.ar    1  LIG1       -0.2267
      4 C          -1.4000   -2.0250    0.0000 C.ar    1  LIG1        0.0987
      5 C          -1.4000   -1.0210    0.0000 C.ar    1  LIG1        0.0805
      6 C          -2.2670   -0.5380    0.0000 C.ar    1  LIG1        0.0188
      7 C          -3.1290   -1.0210    0.0000 C.ar    1  LIG1        0.0016
      8 C          -3.1290   -2.0250    0.0000 C.ar    1  LIG1        0.0016
      9 C          -2.2670   -2.5250    0.0000 C.ar    1  LIG1        0.0206
     10 C           1.1290   -1.4170    0.0000 C.ar    1  LIG1        0.0491
     11 C           1.5460   -0.5210    0.0000 C.ar    1  LIG1        0.0706
     12 N           0.9500    0.3040    0.0000 N.pl3   1  LIG1       -0.2097
     13 C          -0.0460    0.1920    0.0000 C.3     1  LIG1        0.2390
     14 C          -0.6290    1.0130    0.0000 C.ar    1  LIG1        0.1646
     15 O          -1.6250    0.9540    0.0000 O.2     1  LIG1       -0.4510
     16 C          -1.9920    1.8790    0.0000 C.ar    1  LIG1        0.1793
     17 C          -1.2210    2.5290    0.0000 C.ar    1  LIG1        0.0436
     18 C          -0.3710    1.9830    0.0000 C.ar    1  LIG1        0.0400
     19 C           2.5420   -0.4170    0.0000 C.ar    1  LIG1        0.0163
     20 C           3.1250   -1.2130    0.0000 C.ar    1  LIG1        0.0013
     21 C           2.7080   -2.1420    0.0000 C.ar    1  LIG1        0.0002
     22 C           1.7130   -2.2380    0.0000 C.ar    1  LIG1        0.0043
@<TRIPOS>BOND
     1     1     2   ar
     2     1     5   ar
     3     1    13    1
     4     2     3   ar
     5     2    10    1
     6     3     4   ar
     7     4     5   ar
     8     4     9   ar
     9     5     6   ar
    10     6     7   ar
    11     7     8   ar
    12     8     9   ar
    13    10    11   ar
    14    10    22   ar
    15    11    12    1
    16    11    19   ar
    17    12    13    1
    18    13    14    1
    19    14    15   ar
    20    14    18   ar
    21    15    16   ar
    22    16    17   ar
    23    17    18   ar
    24    19    20   ar
    25    20    21   ar
    26    21    22   ar
