@<TRIPOS>MOLECULE
32367_ChemDiv_5969-0015
 17 20 0 0 0
SMALL
GASTEIGER
Energy = 0

@<TRIPOS>ATOM
      1 C          -1.2710   -0.9960    0.0000 C.3     1  LIG1        0.1683
      2 O          -1.7790   -0.1250    0.0000 O.3     1  LIG1       -0.3466
      3 C          -2.9920    0.0000    0.0000 C.3     1  LIG1        0.1375
      4 C          -2.9920   -0.9960    0.0000 C.2     1  LIG1        0.0008
      5 C          -2.1290   -1.4750    0.0000 C.2     1  LIG1        0.0041
      6 C          -2.1290    0.4960    0.0000 C.3     1  LIG1        0.0372
      7 C          -1.2710    0.0000    0.0000 C.3     1  LIG1        0.0433
      8 C          -0.4330    0.4960    0.0000 C.3     1  LIG1        0.0602
      9 C           0.4130    0.0000    0.0000 C.3     1  LIG1        0.1091
     10 N           0.4130   -0.9960    0.0000 N.4     1  LIG1        0.4416
     11 C          -0.4330   -1.4750    0.0000 C.3     1  LIG1        0.2313
     12 C           1.2670   -0.5000    0.0000 C.3     1  LIG1        0.1194
     13 C           2.1250   -0.0040    0.0000 C.3     1  LIG1        0.1449
     14 N           2.1250    0.9790    0.0000 N.4     1  LIG1        0.3823
     15 C           1.2670    1.4790    0.0000 C.3     1  LIG1        0.1449
     16 C           0.4080    0.9830    0.0000 C.3     1  LIG1        0.1194
     17 C           2.9880    1.4790    0.0000 C.3     1  LIG1        0.2022
@<TRIPOS>BOND
     1     1     2    1
     2     1     5    1
     3     1     7    1
     4     1    11    1
     5     2     3    1
     6     3     4    1
     7     3     6    1
     8     4     5    2
     9     6     7    1
    10     7     8    1
    11     8     9    1
    12     9    10    1
    13     9    12    1
    14     9    16    1
    15    10    11    1
    16    12    13    1
    17    13    14    1
    18    14    15    1
    19    14    17    1
    20    15    16    1
