@<TRIPOS>MOLECULE
32362_ChemDiv_E907-0012
 25 27 0 0 0
SMALL
GASTEIGER
Energy = 0

@<TRIPOS>ATOM
      1 C           1.3130   -1.8080    0.0000 C.ar    1  LIG1        0.1316
      2 N           0.4540   -2.3170    0.0000 N.ar    1  LIG1       -0.2307
      3 C          -0.4210   -1.8080    0.0000 C.ar    1  LIG1        0.0825
      4 C          -0.4210   -0.8130    0.0000 C.ar    1  LIG1        0.0151
      5 C           0.4380   -0.3080    0.0000 C.ar    1  LIG1       -0.0176
      6 C           1.3080   -0.8000    0.0000 C.ar    1  LIG1        0.0301
      7 C           0.4380    0.6960    0.0000 C.3     1  LIG1        0.0312
      8 C          -1.2880   -0.3170    0.0000 C.ar    1  LIG1        0.0178
      9 C          -2.1580   -0.8130    0.0000 C.ar    1  LIG1        0.0751
     10 N          -3.0250   -0.3170    0.0000 N.am    1  LIG1       -0.1610
     11 C          -3.8960    0.1830    0.0000 C.2     1  LIG1        0.3435
     12 O          -4.7580   -0.3170    0.0000 O.2     1  LIG1       -0.2488
     13 N          -3.8960    1.1790    0.0000 N.am    1  LIG1       -0.1869
     14 C          -3.5630    2.1250    0.0000 C.3     1  LIG1        0.1168
     15 C          -4.2250    2.8670    0.0000 C.3     1  LIG1        0.0235
     16 C          -3.9080    3.8170    0.0000 C.3     1  LIG1        0.0019
     17 C          -2.1580   -1.8210    0.0000 C.ar    1  LIG1        0.0182
     18 C          -1.2880   -2.3210    0.0000 C.ar    1  LIG1        0.0205
     19 N           2.1750   -2.3080    0.0000 N.pl3   1  LIG1       -0.2824
     20 C           3.0330   -1.8080    0.0000 C.3     1  LIG1        0.1555
     21 C           3.8960   -2.3080    0.0000 C.3     1  LIG1        0.1608
     22 N           3.8960   -3.3040    0.0000 N.4     1  LIG1        0.3847
     23 C           3.0290   -3.8040    0.0000 C.3     1  LIG1        0.1608
     24 C           2.1750   -3.3040    0.0000 C.3     1  LIG1        0.1555
     25 C           4.7540   -3.8130    0.0000 C.3     1  LIG1        0.2024
@<TRIPOS>BOND
     1     1     2   ar
     2     1     6   ar
     3     1    19    1
     4     2     3   ar
     5     3     4   ar
     6     3    18   ar
     7     4     5   ar
     8     4     8   ar
     9     5     6   ar
    10     5     7    1
    11     8     9   ar
    12     9    10    1
    13     9    17   ar
    14    10    11   am
    15    11    12    2
    16    11    13   am
    17    13    14    1
    18    14    15    1
    19    15    16    1
    20    17    18   ar
    21    19    20    1
    22    19    24    1
    23    20    21    1
    24    21    22    1
    25    22    23    1
    26    22    25    1
    27    23    24    1
