@<TRIPOS>MOLECULE
32366_ChemDiv_E907-0020
 31 34 0 0 0
SMALL
GASTEIGER
Energy = 0

@<TRIPOS>ATOM
      1 C           2.1540   -1.8380    0.0000 C.ar    1  LIG1        0.1316
      2 N           1.2920   -2.3460    0.0000 N.ar    1  LIG1       -0.2307
      3 C           0.4130   -1.8380    0.0000 C.ar    1  LIG1        0.0825
      4 C           0.4130   -0.8380    0.0000 C.ar    1  LIG1        0.0151
      5 C           1.2750   -0.3330    0.0000 C.ar    1  LIG1       -0.0176
      6 C           2.1500   -0.8210    0.0000 C.ar    1  LIG1        0.0301
      7 C           1.2750    0.6750    0.0000 C.3     1  LIG1        0.0312
      8 C          -0.4540   -0.3380    0.0000 C.ar    1  LIG1        0.0178
      9 C          -1.3250   -0.8380    0.0000 C.ar    1  LIG1        0.0751
     10 N          -2.1920   -0.3380    0.0000 N.am    1  LIG1       -0.1607
     11 C          -3.0670    0.1630    0.0000 C.2     1  LIG1        0.3478
     12 N          -3.0670    1.1580    0.0000 N.am    1  LIG1       -0.1576
     13 C          -2.6290    2.0460    0.0000 C.ar    1  LIG1        0.1088
     14 C          -3.1880    2.8790    0.0000 C.ar    1  LIG1        0.1538
     15 O          -4.1710    2.8210    0.0000 O.3     1  LIG1       -0.4741
     16 C          -4.6170    1.9250    0.0000 C.3     1  LIG1        0.2056
     17 C          -5.6080    1.8670    0.0000 C.3     1  LIG1        0.0512
     18 C          -2.7500    3.7710    0.0000 C.ar    1  LIG1        0.0382
     19 C          -1.7540    3.8500    0.0000 C.ar    1  LIG1        0.0032
     20 C          -1.2040    3.0170    0.0000 C.ar    1  LIG1        0.0015
     21 C          -1.6460    2.1250    0.0000 C.ar    1  LIG1        0.0197
     22 O          -3.9330   -0.3380    0.0000 O.2     1  LIG1       -0.2484
     23 C          -1.3250   -1.8460    0.0000 C.ar    1  LIG1        0.0182
     24 C          -0.4540   -2.3500    0.0000 C.ar    1  LIG1        0.0205
     25 N           3.0170   -2.3380    0.0000 N.pl3   1  LIG1       -0.2824
     26 C           3.0170   -3.3330    0.0000 C.3     1  LIG1        0.1555
     27 C           3.8750   -3.8330    0.0000 C.3     1  LIG1        0.1608
     28 N           4.7420   -3.3330    0.0000 N.4     1  LIG1        0.3847
     29 C           4.7420   -2.3380    0.0000 C.3     1  LIG1        0.1608
     30 C           3.8790   -1.8380    0.0000 C.3     1  LIG1        0.1555
     31 C           5.6040   -3.8460    0.0000 C.3     1  LIG1        0.2024
@<TRIPOS>BOND
     1     1     2   ar
     2     1     6   ar
     3     1    25    1
     4     2     3   ar
     5     3     4   ar
     6     3    24   ar
     7     4     5   ar
     8     4     8   ar
     9     5     6   ar
    10     5     7    1
    11     8     9   ar
    12     9    10    1
    13     9    23   ar
    14    10    11   am
    15    11    12   am
    16    11    22    2
    17    12    13    1
    18    13    14   ar
    19    13    21   ar
    20    14    15    1
    21    14    18   ar
    22    15    16    1
    23    16    17    1
    24    18    19   ar
    25    19    20   ar
    26    20    21   ar
    27    23    24   ar
    28    25    26    1
    29    25    30    1
    30    26    27    1
    31    27    28    1
    32    28    29    1
    33    28    31    1
    34    29    30    1
