@<TRIPOS>MOLECULE
32363_ChemDiv_5968-0028
 23 27 0 0 0
SMALL
GASTEIGER
Energy = 0

@<TRIPOS>ATOM
      1 N          -0.4580   -0.8040    0.0000 N.ar    1  LIG1       -0.2905
      2 C           0.1380   -1.6130    0.0000 C.ar    1  LIG1        0.1465
      3 N          -0.4580   -2.4290    0.0000 N.ar    1  LIG1       -0.2267
      4 C          -1.4080   -2.1130    0.0000 C.ar    1  LIG1        0.0987
      5 C          -1.4080   -1.1250    0.0000 C.ar    1  LIG1        0.0804
      6 C          -2.2750   -0.6250    0.0000 C.ar    1  LIG1        0.0188
      7 C          -3.1330   -1.1250    0.0000 C.ar    1  LIG1        0.0016
      8 C          -3.1330   -2.1290    0.0000 C.ar    1  LIG1        0.0016
      9 C          -2.2750   -2.6210    0.0000 C.ar    1  LIG1        0.0206
     10 C           1.1290   -1.5210    0.0000 C.ar    1  LIG1        0.0491
     11 C           1.5420   -0.6000    0.0000 C.ar    1  LIG1        0.0706
     12 N           0.9540    0.2080    0.0000 N.pl3   1  LIG1       -0.2110
     13 C          -0.0460    0.1130    0.0000 C.3     1  LIG1        0.2217
     14 C          -0.6420    0.9170    0.0000 C.ar    1  LIG1        0.1004
     15 N          -0.2250    1.8250    0.0000 N.ar    1  LIG1       -0.2445
     16 C          -0.8170    2.6250    0.0000 C.ar    1  LIG1        0.0986
     17 C          -1.8000    2.5250    0.0000 C.ar    1  LIG1        0.0207
     18 C          -2.2170    1.6040    0.0000 C.ar    1  LIG1        0.0029
     19 C          -1.6210    0.8080    0.0000 C.ar    1  LIG1        0.0184
     20 C           2.5290   -0.5040    0.0000 C.ar    1  LIG1        0.0163
     21 C           3.1290   -1.3130    0.0000 C.ar    1  LIG1        0.0013
     22 C           2.7130   -2.2210    0.0000 C.ar    1  LIG1        0.0002
     23 C           1.7130   -2.3330    0.0000 C.ar    1  LIG1        0.0043
@<TRIPOS>BOND
     1     1     2   ar
     2     1     5   ar
     3     1    13    1
     4     2     3   ar
     5     2    10    1
     6     3     4   ar
     7     4     5   ar
     8     4     9   ar
     9     5     6   ar
    10     6     7   ar
    11     7     8   ar
    12     8     9   ar
    13    10    11   ar
    14    10    23   ar
    15    11    12    1
    16    11    20   ar
    17    12    13    1
    18    13    14    1
    19    14    15   ar
    20    14    19   ar
    21    15    16   ar
    22    16    17   ar
    23    17    18   ar
    24    18    19   ar
    25    20    21   ar
    26    21    22   ar
    27    22    23   ar
