@<TRIPOS>MOLECULE
32364_ChemDiv_E907-0016
 28 30 0 0 0
SMALL
GASTEIGER
Energy = 0

@<TRIPOS>ATOM
      1 C           1.4920   -2.2040    0.0000 C.ar    1  LIG1        0.1316
      2 N           0.6330   -2.7130    0.0000 N.ar    1  LIG1       -0.2307
      3 C          -0.2420   -2.2040    0.0000 C.ar    1  LIG1        0.0825
      4 C          -0.2420   -1.2040    0.0000 C.ar    1  LIG1        0.0151
      5 C           0.6170   -0.7040    0.0000 C.ar    1  LIG1       -0.0176
      6 C           1.4880   -1.1920    0.0000 C.ar    1  LIG1        0.0301
      7 C           0.6170    0.3040    0.0000 C.3     1  LIG1        0.0312
      8 C          -1.1080   -0.7080    0.0000 C.ar    1  LIG1        0.0178
      9 C          -1.9790   -1.2040    0.0000 C.ar    1  LIG1        0.0751
     10 N          -2.8460   -0.7080    0.0000 N.am    1  LIG1       -0.1610
     11 C          -3.7170   -0.2080    0.0000 C.2     1  LIG1        0.3440
     12 N          -3.7170    0.7880    0.0000 N.am    1  LIG1       -0.1773
     13 C          -3.3250    1.6880    0.0000 C.3     1  LIG1        0.1951
     14 C          -3.9420    2.5000    0.0000 C.2     1  LIG1        0.3372
     15 O          -4.9380    2.3670    0.0000 O.2     1  LIG1       -0.2482
     16 O          -3.5540    3.4080    0.0000 O.3     1  LIG1       -0.4432
     17 C          -4.1710    4.2040    0.0000 C.3     1  LIG1        0.2557
     18 C          -2.3420    1.8250    0.0000 C.3     1  LIG1        0.0355
     19 O          -4.5830   -0.7080    0.0000 O.2     1  LIG1       -0.2488
     20 C          -1.9790   -2.2130    0.0000 C.ar    1  LIG1        0.0182
     21 C          -1.1080   -2.7170    0.0000 C.ar    1  LIG1        0.0205
     22 N           2.3540   -2.7000    0.0000 N.pl3   1  LIG1       -0.2824
     23 C           3.2130   -2.2040    0.0000 C.3     1  LIG1        0.1555
     24 C           4.0750   -2.7000    0.0000 C.3     1  LIG1        0.1608
     25 N           4.0750   -3.6960    0.0000 N.4     1  LIG1        0.3847
     26 C           3.2080   -4.1960    0.0000 C.3     1  LIG1        0.1608
     27 C           2.3540   -3.6960    0.0000 C.3     1  LIG1        0.1555
     28 C           4.9330   -4.2040    0.0000 C.3     1  LIG1        0.2024
@<TRIPOS>BOND
     1     1     2   ar
     2     1     6   ar
     3     1    22    1
     4     2     3   ar
     5     3     4   ar
     6     3    21   ar
     7     4     5   ar
     8     4     8   ar
     9     5     6   ar
    10     5     7    1
    11     8     9   ar
    12     9    10    1
    13     9    20   ar
    14    10    11   am
    15    11    12   am
    16    11    19    2
    17    12    13    1
    18    13    14    1
    19    13    18    1
    20    14    15    2
    21    14    16    1
    22    16    17    1
    23    20    21   ar
    24    22    23    1
    25    22    27    1
    26    23    24    1
    27    24    25    1
    28    25    26    1
    29    25    28    1
    30    26    27    1
