@<TRIPOS>MOLECULE
32368_ChemDiv_E907-0021
 30 33 0 0 0
SMALL
GASTEIGER
Energy = 0

@<TRIPOS>ATOM
      1 C           1.7500   -1.9920    0.0000 C.ar    1  LIG1        0.1316
      2 N           0.8880   -2.4960    0.0000 N.ar    1  LIG1       -0.2307
      3 C           0.0130   -1.9920    0.0000 C.ar    1  LIG1        0.0825
      4 C           0.0130   -0.9960    0.0000 C.ar    1  LIG1        0.0151
      5 C           0.8750   -0.4920    0.0000 C.ar    1  LIG1       -0.0176
      6 C           1.7420   -0.9790    0.0000 C.ar    1  LIG1        0.0301
      7 C           0.8750    0.5170    0.0000 C.3     1  LIG1        0.0312
      8 C          -0.8540   -0.4960    0.0000 C.ar    1  LIG1        0.0178
      9 C          -1.7210   -0.9960    0.0000 C.ar    1  LIG1        0.0751
     10 N          -2.5880   -0.4960    0.0000 N.am    1  LIG1       -0.1607
     11 C          -3.4580    0.0000    0.0000 C.2     1  LIG1        0.3477
     12 N          -3.4580    1.0000    0.0000 N.am    1  LIG1       -0.1607
     13 C          -3.4580    2.0000    0.0000 C.ar    1  LIG1        0.0744
     14 C          -2.5880    2.4880    0.0000 C.ar    1  LIG1        0.0124
     15 C          -2.5880    3.4830    0.0000 C.ar    1  LIG1       -0.0209
     16 C          -3.4460    3.9960    0.0000 C.ar    1  LIG1       -0.0084
     17 C          -4.3170    3.4830    0.0000 C.ar    1  LIG1       -0.0209
     18 C          -4.3170    2.4880    0.0000 C.ar    1  LIG1        0.0124
     19 C          -5.1920    3.9960    0.0000 C.3     1  LIG1        0.0311
     20 C          -1.7210    3.9920    0.0000 C.3     1  LIG1        0.0311
     21 O          -4.3210   -0.4960    0.0000 O.2     1  LIG1       -0.2484
     22 C          -1.7210   -2.0000    0.0000 C.ar    1  LIG1        0.0182
     23 C          -0.8540   -2.5040    0.0000 C.ar    1  LIG1        0.0205
     24 N           2.6080   -2.4880    0.0000 N.pl3   1  LIG1       -0.2824
     25 C           2.6080   -3.4830    0.0000 C.3     1  LIG1        0.1555
     26 C           3.4630   -3.9830    0.0000 C.3     1  LIG1        0.1608
     27 N           4.3290   -3.4830    0.0000 N.4     1  LIG1        0.3847
     28 C           4.3290   -2.4880    0.0000 C.3     1  LIG1        0.1608
     29 C           3.4670   -1.9920    0.0000 C.3     1  LIG1        0.1555
     30 C           5.1880   -3.9920    0.0000 C.3     1  LIG1        0.2024
@<TRIPOS>BOND
     1     1     2   ar
     2     1     6   ar
     3     1    24    1
     4     2     3   ar
     5     3     4   ar
     6     3    23   ar
     7     4     5   ar
     8     4     8   ar
     9     5     6   ar
    10     5     7    1
    11     8     9   ar
    12     9    10    1
    13     9    22   ar
    14    10    11   am
    15    11    12   am
    16    11    21    2
    17    12    13    1
    18    13    14   ar
    19    13    18   ar
    20    14    15   ar
    21    15    16   ar
    22    15    20    1
    23    16    17   ar
    24    17    18   ar
    25    17    19    1
    26    22    23   ar
    27    24    25    1
    28    24    29    1
    29    25    26    1
    30    26    27    1
    31    27    28    1
    32    27    30    1
    33    28    29    1
