@<TRIPOS>MOLECULE
32360_ChemDiv_E907-0009
 32 36 0 0 0
SMALL
GASTEIGER
Energy = 0

@<TRIPOS>ATOM
      1 C           1.5080   -2.7790    0.0000 C.ar    1  LIG1        0.1316
      2 N           0.6460   -3.2880    0.0000 N.ar    1  LIG1       -0.2307
      3 C          -0.2290   -2.7790    0.0000 C.ar    1  LIG1        0.0825
      4 C          -0.2290   -1.7830    0.0000 C.ar    1  LIG1        0.0151
      5 C           0.6330   -1.2790    0.0000 C.ar    1  LIG1       -0.0176
      6 C           1.5040   -1.7710    0.0000 C.ar    1  LIG1        0.0301
      7 C           0.6330   -0.2750    0.0000 C.3     1  LIG1        0.0312
      8 C          -1.0960   -1.2880    0.0000 C.ar    1  LIG1        0.0178
      9 C          -1.9630   -1.7830    0.0000 C.ar    1  LIG1        0.0751
     10 N          -2.8290   -1.2880    0.0000 N.am    1  LIG1       -0.1607
     11 C          -3.7000   -0.7880    0.0000 C.2     1  LIG1        0.3477
     12 N          -3.7000    0.2080    0.0000 N.am    1  LIG1       -0.1606
     13 C          -3.8500    1.2000    0.0000 C.ar    1  LIG1        0.0782
     14 C          -3.0790    1.8170    0.0000 C.ar    1  LIG1        0.0567
     15 C          -3.2380    2.8170    0.0000 C.ar    1  LIG1        0.1737
     16 C          -4.1670    3.1630    0.0000 C.ar    1  LIG1        0.1725
     17 O          -4.3330    4.1540    0.0000 O.3     1  LIG1       -0.4684
     18 C          -3.5500    4.7830    0.0000 C.3     1  LIG1        0.2526
     19 C          -2.6130    4.4080    0.0000 C.3     1  LIG1        0.2526
     20 O          -2.4630    3.4290    0.0000 O.3     1  LIG1       -0.4683
     21 C          -4.9540    2.5290    0.0000 C.ar    1  LIG1        0.0414
     22 C          -4.7880    1.5460    0.0000 C.ar    1  LIG1        0.0200
     23 O          -4.5670   -1.2880    0.0000 O.2     1  LIG1       -0.2484
     24 C          -1.9630   -2.7920    0.0000 C.ar    1  LIG1        0.0182
     25 C          -1.0960   -3.2920    0.0000 C.ar    1  LIG1        0.0205
     26 N           2.3670   -3.2790    0.0000 N.pl3   1  LIG1       -0.2824
     27 C           2.3670   -4.2750    0.0000 C.3     1  LIG1        0.1555
     28 C           3.2210   -4.7710    0.0000 C.3     1  LIG1        0.1608
     29 N           4.0880   -4.2750    0.0000 N.4     1  LIG1        0.3847
     30 C           4.0880   -3.2790    0.0000 C.3     1  LIG1        0.1608
     31 C           3.2290   -2.7790    0.0000 C.3     1  LIG1        0.1555
     32 C           4.9500   -4.7830    0.0000 C.3     1  LIG1        0.2024
@<TRIPOS>BOND
     1     1     2   ar
     2     1     6   ar
     3     1    26    1
     4     2     3   ar
     5     3     4   ar
     6     3    25   ar
     7     4     5   ar
     8     4     8   ar
     9     5     6   ar
    10     5     7    1
    11     8     9   ar
    12     9    10    1
    13     9    24   ar
    14    10    11   am
    15    11    12   am
    16    11    23    2
    17    12    13    1
    18    13    14   ar
    19    13    22   ar
    20    14    15   ar
    21    15    16   ar
    22    15    20    1
    23    16    17    1
    24    16    21   ar
    25    17    18    1
    26    18    19    1
    27    19    20    1
    28    21    22   ar
    29    24    25   ar
    30    26    27    1
    31    26    31    1
    32    27    28    1
    33    28    29    1
    34    29    30    1
    35    29    32    1
    36    30    31    1
