@<TRIPOS>MOLECULE
32374_ChemDiv_6855-0403
 30 33 0 0 0
SMALL
GASTEIGER
Energy = 0

@<TRIPOS>ATOM
      1 N           0.2710   -0.2710    0.0000 N.ar    1  LIG1       -0.1642
      2 C           0.7710   -1.1460    0.0000 C.ar    1  LIG1        0.2419
      3 N           0.1040   -1.8880    0.0000 N.ar    1  LIG1       -0.1915
      4 C          -0.8080   -1.4790    0.0000 C.ar    1  LIG1        0.1849
      5 N          -0.7040   -0.4830    0.0000 N.ar    1  LIG1       -0.1408
      6 C          -1.6670   -1.9830    0.0000 C.ar    1  LIG1        0.0376
      7 C          -2.5330   -1.4830    0.0000 C.ar    1  LIG1        0.0040
      8 C          -3.3960   -1.9830    0.0000 C.ar    1  LIG1        0.0115
      9 C          -3.3960   -2.9920    0.0000 C.ar    1  LIG1        0.0577
     10 C          -2.5330   -3.4920    0.0000 C.ar    1  LIG1        0.0115
     11 C          -1.6670   -2.9920    0.0000 C.ar    1  LIG1        0.0040
     12 CL         -4.2710   -3.4830    0.0000 Cl      1  LIG1       -0.0822
     13 N           1.7630   -1.2420    0.0000 N.pl3   1  LIG1       -0.1955
     14 C           2.1790   -2.1500    0.0000 C.3     1  LIG1        0.1793
     15 C           1.5960   -2.9670    0.0000 C.ar    1  LIG1        0.1449
     16 O           0.6040   -2.9670    0.0000 O.2     1  LIG1       -0.4529
     17 C           0.3000   -3.9210    0.0000 C.ar    1  LIG1        0.1792
     18 C           1.1130   -4.5040    0.0000 C.ar    1  LIG1        0.0435
     19 C           1.9170   -3.9170    0.0000 C.ar    1  LIG1        0.0380
     20 C           0.6750    0.6380    0.0000 C.2     1  LIG1        0.2636
     21 C           1.6670    0.7500    0.0000 C.3     1  LIG1        0.1163
     22 C           2.0670    1.6580    0.0000 C.ar    1  LIG1       -0.0126
     23 C           1.4750    2.4540    0.0000 C.ar    1  LIG1       -0.0007
     24 C           1.8750    3.3750    0.0000 C.ar    1  LIG1        0.0366
     25 C           2.8710    3.4830    0.0000 C.ar    1  LIG1        0.1387
     26 C           3.4630    2.6790    0.0000 C.ar    1  LIG1        0.0366
     27 C           3.0670    1.7630    0.0000 C.ar    1  LIG1       -0.0007
     28 O           3.2750    4.4000    0.0000 O.3     1  LIG1       -0.4714
     29 C           4.2670    4.5040    0.0000 C.3     1  LIG1        0.2525
     30 O           0.0830    1.4460    0.0000 O.2     1  LIG1       -0.2697
@<TRIPOS>BOND
     1     1     2   ar
     2     1     5   ar
     3     1    20   am
     4     2     3   ar
     5     2    13    1
     6     3     4   ar
     7     4     5   ar
     8     4     6    1
     9     6     7   ar
    10     6    11   ar
    11     7     8   ar
    12     8     9   ar
    13     9    10   ar
    14     9    12    1
    15    10    11   ar
    16    13    14    1
    17    14    15    1
    18    15    16   ar
    19    15    19   ar
    20    16    17   ar
    21    17    18   ar
    22    18    19   ar
    23    20    21    1
    24    20    30    2
    25    21    22    1
    26    22    23   ar
    27    22    27   ar
    28    23    24   ar
    29    24    25   ar
    30    25    26   ar
    31    25    28    1
    32    26    27   ar
    33    28    29    1
