@<TRIPOS>MOLECULE
32370_ChemDiv_6855-0188
 31 34 0 0 0
SMALL
GASTEIGER
Energy = 0

@<TRIPOS>ATOM
      1 N          -0.4130   -1.0830    0.0000 N.ar    1  LIG1       -0.1642
      2 C           0.0920   -1.9460    0.0000 C.ar    1  LIG1        0.2419
      3 N          -0.5750   -2.6830    0.0000 N.ar    1  LIG1       -0.1915
      4 C          -1.4960   -2.2880    0.0000 C.ar    1  LIG1        0.1849
      5 N          -1.3880   -1.2960    0.0000 N.ar    1  LIG1       -0.1408
      6 C          -2.3460   -2.7960    0.0000 C.ar    1  LIG1        0.0376
      7 C          -3.2250   -2.2960    0.0000 C.ar    1  LIG1        0.0031
      8 C          -4.0830   -2.7960    0.0000 C.ar    1  LIG1        0.0001
      9 C          -4.0830   -3.7960    0.0000 C.ar    1  LIG1        0.0000
     10 C          -3.2250   -4.2960    0.0000 C.ar    1  LIG1        0.0001
     11 C          -2.3460   -3.7960    0.0000 C.ar    1  LIG1        0.0031
     12 N           1.0830   -2.0500    0.0000 N.pl3   1  LIG1       -0.1955
     13 C           1.5040   -2.9630    0.0000 C.3     1  LIG1        0.1793
     14 C           2.4880   -3.0580    0.0000 C.ar    1  LIG1        0.1449
     15 O           2.9880   -3.9130    0.0000 O.2     1  LIG1       -0.4529
     16 C           3.9710   -3.7000    0.0000 C.ar    1  LIG1        0.1792
     17 C           4.0790   -2.7080    0.0000 C.ar    1  LIG1        0.0435
     18 C           3.1580   -2.3080    0.0000 C.ar    1  LIG1        0.0380
     19 C          -0.0130   -0.1670    0.0000 C.2     1  LIG1        0.2636
     20 C           0.9880   -0.0630    0.0000 C.3     1  LIG1        0.1164
     21 C           1.3880    0.8580    0.0000 C.ar    1  LIG1       -0.0096
     22 C           0.7920    1.6630    0.0000 C.ar    1  LIG1        0.0363
     23 C           1.1960    2.5710    0.0000 C.ar    1  LIG1        0.1721
     24 C           2.1960    2.6790    0.0000 C.ar    1  LIG1        0.1724
     25 C           2.7920    1.8750    0.0000 C.ar    1  LIG1        0.0397
     26 C           2.3880    0.9630    0.0000 C.ar    1  LIG1       -0.0005
     27 O           2.6000    3.6000    0.0000 O.3     1  LIG1       -0.4684
     28 C           3.5920    3.7040    0.0000 C.3     1  LIG1        0.2526
     29 O           0.6080    3.3790    0.0000 O.3     1  LIG1       -0.4684
     30 C           1.0040    4.2960    0.0000 C.3     1  LIG1        0.2526
     31 O          -0.6000    0.6380    0.0000 O.2     1  LIG1       -0.2697
@<TRIPOS>BOND
     1     1     2   ar
     2     1     5   ar
     3     1    19   am
     4     2     3   ar
     5     2    12    1
     6     3     4   ar
     7     4     5   ar
     8     4     6    1
     9     6     7   ar
    10     6    11   ar
    11     7     8   ar
    12     8     9   ar
    13     9    10   ar
    14    10    11   ar
    15    12    13    1
    16    13    14    1
    17    14    15   ar
    18    14    18   ar
    19    15    16   ar
    20    16    17   ar
    21    17    18   ar
    22    19    20    1
    23    19    31    2
    24    20    21    1
    25    21    22   ar
    26    21    26   ar
    27    22    23   ar
    28    23    24   ar
    29    23    29    1
    30    24    25   ar
    31    24    27    1
    32    25    26   ar
    33    27    28    1
    34    29    30    1
