@<TRIPOS>MOLECULE
32378_ChemDiv_6855-0449
 21 23 0 0 0
SMALL
GASTEIGER
Energy = 0

@<TRIPOS>ATOM
      1 N           0.2290   -0.2710    0.0000 N.ar    1  LIG1       -0.1629
      2 N          -0.7460   -0.4880    0.0000 N.ar    1  LIG1       -0.1407
      3 C          -0.8460   -1.4830    0.0000 C.ar    1  LIG1        0.1864
      4 N           0.0670   -1.8790    0.0000 N.ar    1  LIG1       -0.1901
      5 C           0.7330   -1.1380    0.0000 C.ar    1  LIG1        0.2615
      6 N           1.7330   -1.2420    0.0000 N.pl3   1  LIG1       -0.0859
      7 C          -1.7130   -1.9880    0.0000 C.ar    1  LIG1        0.0567
      8 C          -1.7130   -2.9880    0.0000 C.ar    1  LIG1        0.1019
      9 N          -2.5710   -3.4880    0.0000 N.ar    1  LIG1       -0.2422
     10 C          -3.4420   -2.9880    0.0000 C.ar    1  LIG1        0.0989
     11 C          -3.4420   -1.9880    0.0000 C.ar    1  LIG1        0.0208
     12 C          -2.5710   -1.4880    0.0000 C.ar    1  LIG1        0.0063
     13 C           0.6460    0.6420    0.0000 C.2     1  LIG1        0.2637
     14 C           1.6290    0.7500    0.0000 C.3     1  LIG1        0.1163
     15 C           2.0380    1.6710    0.0000 C.ar    1  LIG1       -0.0128
     16 C           3.0330    1.7750    0.0000 C.ar    1  LIG1       -0.0038
     17 C           3.4380    2.6830    0.0000 C.ar    1  LIG1       -0.0003
     18 C           2.8420    3.4920    0.0000 C.ar    1  LIG1       -0.0000
     19 C           1.8380    3.3830    0.0000 C.ar    1  LIG1       -0.0003
     20 C           1.4460    2.4710    0.0000 C.ar    1  LIG1       -0.0038
     21 O           0.0500    1.4460    0.0000 O.2     1  LIG1       -0.2697
@<TRIPOS>BOND
     1     1     2   ar
     2     1     5   ar
     3     1    13   am
     4     2     3   ar
     5     3     4   ar
     6     3     7    1
     7     4     5   ar
     8     5     6    1
     9     7     8   ar
    10     7    12   ar
    11     8     9   ar
    12     9    10   ar
    13    10    11   ar
    14    11    12   ar
    15    13    14    1
    16    13    21    2
    17    14    15    1
    18    15    16   ar
    19    15    20   ar
    20    16    17   ar
    21    17    18   ar
    22    18    19   ar
    23    19    20   ar
