@<TRIPOS>MOLECULE
32372_ChemDiv_6855-0402
 28 31 0 0 0
SMALL
GASTEIGER
Energy = 0

@<TRIPOS>ATOM
      1 N           0.0250   -0.2750    0.0000 N.ar    1  LIG1       -0.1642
      2 C           0.5290   -1.1380    0.0000 C.ar    1  LIG1        0.2419
      3 N          -0.1420   -1.8830    0.0000 N.ar    1  LIG1       -0.1915
      4 C          -1.0580   -1.4830    0.0000 C.ar    1  LIG1        0.1849
      5 N          -0.9500   -0.4880    0.0000 N.ar    1  LIG1       -0.1408
      6 C          -1.9170   -1.9830    0.0000 C.ar    1  LIG1        0.0376
      7 C          -1.9170   -2.9880    0.0000 C.ar    1  LIG1        0.0040
      8 C          -2.7830   -3.4880    0.0000 C.ar    1  LIG1        0.0115
      9 C          -3.6580   -2.9880    0.0000 C.ar    1  LIG1        0.0577
     10 C          -3.6580   -1.9830    0.0000 C.ar    1  LIG1        0.0115
     11 C          -2.7830   -1.4920    0.0000 C.ar    1  LIG1        0.0040
     12 CL         -4.5210   -3.4880    0.0000 Cl      1  LIG1       -0.0822
     13 N           1.5210   -1.2420    0.0000 N.pl3   1  LIG1       -0.1955
     14 C           1.9380   -2.1540    0.0000 C.3     1  LIG1        0.1793
     15 C           2.9290   -2.2540    0.0000 C.ar    1  LIG1        0.1449
     16 O           3.4420   -3.1080    0.0000 O.2     1  LIG1       -0.4529
     17 C           4.4080   -2.9000    0.0000 C.ar    1  LIG1        0.1792
     18 C           4.5170   -1.9080    0.0000 C.ar    1  LIG1        0.0435
     19 C           3.6040   -1.5000    0.0000 C.ar    1  LIG1        0.0380
     20 C           0.4290    0.6420    0.0000 C.2     1  LIG1        0.2636
     21 C           1.4170    0.7460    0.0000 C.3     1  LIG1        0.1163
     22 C           1.8250    1.6630    0.0000 C.ar    1  LIG1       -0.0128
     23 C           2.8250    1.7750    0.0000 C.ar    1  LIG1       -0.0038
     24 C           3.2250    2.6790    0.0000 C.ar    1  LIG1       -0.0003
     25 C           2.6380    3.4920    0.0000 C.ar    1  LIG1       -0.0000
     26 C           1.6330    3.3790    0.0000 C.ar    1  LIG1       -0.0003
     27 C           1.2330    2.4750    0.0000 C.ar    1  LIG1       -0.0038
     28 O          -0.1630    1.4460    0.0000 O.2     1  LIG1       -0.2697
@<TRIPOS>BOND
     1     1     2   ar
     2     1     5   ar
     3     1    20   am
     4     2     3   ar
     5     2    13    1
     6     3     4   ar
     7     4     5   ar
     8     4     6    1
     9     6     7   ar
    10     6    11   ar
    11     7     8   ar
    12     8     9   ar
    13     9    10   ar
    14     9    12    1
    15    10    11   ar
    16    13    14    1
    17    14    15    1
    18    15    16   ar
    19    15    19   ar
    20    16    17   ar
    21    17    18   ar
    22    18    19   ar
    23    20    21    1
    24    20    28    2
    25    21    22    1
    26    22    23   ar
    27    22    27   ar
    28    23    24   ar
    29    24    25   ar
    30    25    26   ar
    31    26    27   ar
