@<TRIPOS>MOLECULE
32376_ChemDiv_6855-0404
 32 35 0 0 0
SMALL
GASTEIGER
Energy = 0

@<TRIPOS>ATOM
      1 N           0.0250   -1.0830    0.0000 N.ar    1  LIG1       -0.1642
      2 C           0.5290   -1.9460    0.0000 C.ar    1  LIG1        0.2419
      3 N          -0.1420   -2.6880    0.0000 N.ar    1  LIG1       -0.1915
      4 C          -1.0540   -2.2960    0.0000 C.ar    1  LIG1        0.1849
      5 N          -0.9500   -1.2960    0.0000 N.ar    1  LIG1       -0.1408
      6 C          -1.9170   -2.7920    0.0000 C.ar    1  LIG1        0.0376
      7 C          -2.7830   -2.2960    0.0000 C.ar    1  LIG1        0.0040
      8 C          -3.6580   -2.7920    0.0000 C.ar    1  LIG1        0.0115
      9 C          -3.6580   -3.7960    0.0000 C.ar    1  LIG1        0.0577
     10 C          -2.7830   -4.2960    0.0000 C.ar    1  LIG1        0.0115
     11 C          -1.9170   -3.7960    0.0000 C.ar    1  LIG1        0.0040
     12 CL         -4.5210   -4.2960    0.0000 Cl      1  LIG1       -0.0822
     13 N           1.5210   -2.0500    0.0000 N.pl3   1  LIG1       -0.1955
     14 C           1.9380   -2.9630    0.0000 C.3     1  LIG1        0.1793
     15 C           2.9290   -3.0710    0.0000 C.ar    1  LIG1        0.1449
     16 O           3.4380   -3.9170    0.0000 O.2     1  LIG1       -0.4529
     17 C           4.4080   -3.7170    0.0000 C.ar    1  LIG1        0.1792
     18 C           4.5170   -2.7210    0.0000 C.ar    1  LIG1        0.0435
     19 C           3.6040   -2.3080    0.0000 C.ar    1  LIG1        0.0380
     20 C           0.4290   -0.1750    0.0000 C.2     1  LIG1        0.2636
     21 C           1.4170   -0.0670    0.0000 C.3     1  LIG1        0.1164
     22 C           1.8250    0.8540    0.0000 C.ar    1  LIG1       -0.0096
     23 C           1.2330    1.6580    0.0000 C.ar    1  LIG1        0.0363
     24 C           1.6330    2.5710    0.0000 C.ar    1  LIG1        0.1721
     25 C           2.6380    2.6750    0.0000 C.ar    1  LIG1        0.1724
     26 C           3.2250    1.8710    0.0000 C.ar    1  LIG1        0.0397
     27 C           2.8250    0.9670    0.0000 C.ar    1  LIG1       -0.0005
     28 O           3.0380    3.6000    0.0000 O.3     1  LIG1       -0.4684
     29 C           4.0250    3.7080    0.0000 C.3     1  LIG1        0.2526
     30 O           1.0420    3.3750    0.0000 O.3     1  LIG1       -0.4684
     31 C           1.4420    4.2960    0.0000 C.3     1  LIG1        0.2526
     32 O          -0.1630    0.6290    0.0000 O.2     1  LIG1       -0.2697
@<TRIPOS>BOND
     1     1     2   ar
     2     1     5   ar
     3     1    20   am
     4     2     3   ar
     5     2    13    1
     6     3     4   ar
     7     4     5   ar
     8     4     6    1
     9     6     7   ar
    10     6    11   ar
    11     7     8   ar
    12     8     9   ar
    13     9    10   ar
    14     9    12    1
    15    10    11   ar
    16    13    14    1
    17    14    15    1
    18    15    16   ar
    19    15    19   ar
    20    16    17   ar
    21    17    18   ar
    22    18    19   ar
    23    20    21    1
    24    20    32    2
    25    21    22    1
    26    22    23   ar
    27    22    27   ar
    28    23    24   ar
    29    24    25   ar
    30    24    30    1
    31    25    26   ar
    32    25    28    1
    33    26    27   ar
    34    28    29    1
    35    30    31    1
