@<TRIPOS>MOLECULE
32386_ChemDiv_6186-0469
 27 31 0 0 0
SMALL
GASTEIGER
Energy = 0

@<TRIPOS>ATOM
      1 N          -0.1380   -0.9540    0.0000 N.am    1  LIG1       -0.2134
      2 C          -0.9040   -1.6130    0.0000 C.2     1  LIG1        0.2555
      3 C          -0.5130   -2.5250    0.0000 C.ar    1  LIG1        0.0584
      4 C           0.4540   -2.4710    0.0000 C.ar    1  LIG1        0.0584
      5 C           0.6960   -1.4920    0.0000 C.2     1  LIG1        0.2555
      6 O           1.6380   -1.1000    0.0000 O.2     1  LIG1       -0.2695
      7 C           0.9920   -3.2960    0.0000 C.ar    1  LIG1        0.0047
      8 C           0.5460   -4.1830    0.0000 C.ar    1  LIG1        0.0001
      9 C          -0.4330   -4.2460    0.0000 C.ar    1  LIG1        0.0001
     10 C          -0.9580   -3.4130    0.0000 C.ar    1  LIG1        0.0047
     11 O          -1.9130   -1.4330    0.0000 O.2     1  LIG1       -0.2695
     12 C          -0.3080    0.0130    0.0000 C.3     1  LIG1        0.1896
     13 C           0.4290    0.6750    0.0000 C.2     1  LIG1        0.2617
     14 N           0.2500    1.6710    0.0000 N.ar    1  LIG1       -0.2806
     15 C          -0.6630    2.0630    0.0000 C.ar    1  LIG1        0.0400
     16 C          -0.6080    3.0420    0.0000 C.ar    1  LIG1       -0.0087
     17 C           0.3750    3.3000    0.0000 C.ar    1  LIG1        0.0133
     18 C           0.9000    2.4500    0.0000 C.ar    1  LIG1        0.0659
     19 C           1.9080    2.5040    0.0000 C.ar    1  LIG1        0.0176
     20 C           2.3790    3.3630    0.0000 C.ar    1  LIG1        0.0015
     21 C           1.8540    4.2460    0.0000 C.ar    1  LIG1        0.0001
     22 C           0.8420    4.1830    0.0000 C.ar    1  LIG1        0.0012
     23 C          -1.4330    3.5960    0.0000 C.3     1  LIG1        0.0276
     24 C          -2.3210    3.1540    0.0000 C.3     1  LIG1        0.0051
     25 C          -2.3830    2.1540    0.0000 C.3     1  LIG1        0.0066
     26 C          -1.5500    1.5880    0.0000 C.3     1  LIG1        0.0439
     27 O           1.3790    0.3080    0.0000 O.2     1  LIG1       -0.2697
@<TRIPOS>BOND
     1     1     2   am
     2     1     5   am
     3     1    12    1
     4     2     3    1
     5     2    11    2
     6     3     4   ar
     7     3    10   ar
     8     4     5    1
     9     4     7   ar
    10     5     6    2
    11     7     8   ar
    12     8     9   ar
    13     9    10   ar
    14    12    13    1
    15    13    14   am
    16    13    27    2
    17    14    15   ar
    18    14    18   ar
    19    15    16   ar
    20    15    26    1
    21    16    17   ar
    22    16    23    1
    23    17    18   ar
    24    17    22   ar
    25    18    19   ar
    26    19    20   ar
    27    20    21   ar
    28    21    22   ar
    29    23    24    1
    30    24    25    1
    31    25    26    1
