@<TRIPOS>MOLECULE
32380_ChemDiv_D116-0006
 26 29 0 0 0
SMALL
GASTEIGER
Energy = 0

@<TRIPOS>ATOM
      1 N          -0.4750   -0.4130    0.0000 N.ar    1  LIG1       -0.1641
      2 C           0.0250   -1.2960    0.0000 C.ar    1  LIG1        0.2419
      3 N          -0.6460   -2.0380    0.0000 N.ar    1  LIG1       -0.1887
      4 C          -1.5500   -1.6250    0.0000 C.ar    1  LIG1        0.2194
      5 N          -1.4460   -0.6250    0.0000 N.ar    1  LIG1       -0.1376
      6 C          -2.4330   -2.1250    0.0000 C.ar    1  LIG1        0.1828
      7 O          -3.3380   -1.7210    0.0000 O.2     1  LIG1       -0.4472
      8 C          -4.0080   -2.4630    0.0000 C.ar    1  LIG1        0.1798
      9 C          -3.4880   -3.3380    0.0000 C.ar    1  LIG1        0.0439
     10 C          -2.5250   -3.1250    0.0000 C.ar    1  LIG1        0.0440
     11 N           1.0250   -1.3880    0.0000 N.pl3   1  LIG1       -0.1983
     12 C           1.4290   -2.2960    0.0000 C.3     1  LIG1        0.1481
     13 C           2.4290   -2.4000    0.0000 C.ar    1  LIG1        0.0290
     14 S           2.9290   -3.2500    0.0000 S.2     1  LIG1       -0.0890
     15 C           3.9040   -3.0500    0.0000 C.ar    1  LIG1        0.0352
     16 C           4.0040   -2.0500    0.0000 C.ar    1  LIG1        0.0072
     17 C           3.1000   -1.6460    0.0000 C.ar    1  LIG1        0.0044
     18 C          -0.0710    0.4920    0.0000 C.2     1  LIG1        0.2636
     19 C           0.9170    0.6000    0.0000 C.3     1  LIG1        0.1163
     20 C           1.3290    1.5080    0.0000 C.ar    1  LIG1       -0.0128
     21 C           0.7380    2.3170    0.0000 C.ar    1  LIG1       -0.0038
     22 C           1.1290    3.2420    0.0000 C.ar    1  LIG1       -0.0003
     23 C           2.1290    3.3420    0.0000 C.ar    1  LIG1       -0.0000
     24 C           2.7170    2.5420    0.0000 C.ar    1  LIG1       -0.0003
     25 C           2.3290    1.6170    0.0000 C.ar    1  LIG1       -0.0038
     26 O          -0.6580    1.2960    0.0000 O.2     1  LIG1       -0.2697
@<TRIPOS>BOND
     1     1     2   ar
     2     1     5   ar
     3     1    18   am
     4     2     3   ar
     5     2    11    1
     6     3     4   ar
     7     4     5   ar
     8     4     6    1
     9     6     7   ar
    10     6    10   ar
    11     7     8   ar
    12     8     9   ar
    13     9    10   ar
    14    11    12    1
    15    12    13    1
    16    13    14   ar
    17    13    17   ar
    18    14    15   ar
    19    15    16   ar
    20    16    17   ar
    21    18    19    1
    22    18    26    2
    23    19    20    1
    24    20    21   ar
    25    20    25   ar
    26    21    22   ar
    27    22    23   ar
    28    23    24   ar
    29    24    25   ar
