@<TRIPOS>MOLECULE
32385_ChemDiv_5969-0021
 19 22 0 0 0
SMALL
GASTEIGER
Energy = 0

@<TRIPOS>ATOM
      1 N          -0.4420   -0.8040    0.0000 N.pl3   1  LIG1       -0.2351
      2 C           0.4250   -0.3040    0.0000 C.3     1  LIG1        0.1173
      3 C           0.4250    0.7130    0.0000 C.3     1  LIG1        0.0581
      4 C          -0.4420    1.2130    0.0000 C.3     1  LIG1        0.1406
      5 C          -1.3000    0.6960    0.0000 C.ar    1  LIG1        0.0195
      6 C          -1.3000   -0.3040    0.0000 C.ar    1  LIG1        0.0639
      7 C          -2.1630   -0.8040    0.0000 C.ar    1  LIG1        0.0159
      8 C          -3.0290   -0.3040    0.0000 C.ar    1  LIG1        0.0013
      9 C          -3.0290    0.6960    0.0000 C.ar    1  LIG1       -0.0002
     10 C          -2.1630    1.1960    0.0000 C.ar    1  LIG1       -0.0007
     11 O          -0.2380    2.1830    0.0000 O.3     1  LIG1       -0.3517
     12 C           0.7710    2.3000    0.0000 C.3     1  LIG1        0.1427
     13 C           1.1710    1.3790    0.0000 C.3     1  LIG1        0.0369
     14 C           1.3040   -0.8040    0.0000 C.ar    1  LIG1       -0.0026
     15 C           2.1630   -0.3040    0.0000 C.ar    1  LIG1       -0.0026
     16 C           3.0250   -0.8040    0.0000 C.ar    1  LIG1       -0.0003
     17 C           3.0250   -1.7960    0.0000 C.ar    1  LIG1       -0.0000
     18 C           2.1540   -2.2960    0.0000 C.ar    1  LIG1       -0.0003
     19 C           1.3040   -1.7880    0.0000 C.ar    1  LIG1       -0.0026
@<TRIPOS>BOND
     1     1     2    1
     2     1     6    1
     3     2     3    1
     4     2    14    1
     5     3     4    1
     6     3    13    1
     7     4     5    1
     8     4    11    1
     9     5     6   ar
    10     5    10   ar
    11     6     7   ar
    12     7     8   ar
    13     8     9   ar
    14     9    10   ar
    15    11    12    1
    16    12    13    1
    17    14    15   ar
    18    14    19   ar
    19    15    16   ar
    20    16    17   ar
    21    17    18   ar
    22    18    19   ar
