@<TRIPOS>MOLECULE
32388_ChemDiv_6186-2969
 25 28 0 0 0
SMALL
GASTEIGER
Energy = 0

@<TRIPOS>ATOM
      1 N          -0.1920   -0.8170    0.0000 N.am    1  LIG1       -0.2112
      2 C          -0.5460   -1.7920    0.0000 C.2     1  LIG1        0.2556
      3 C           0.3000   -2.3330    0.0000 C.ar    1  LIG1        0.0584
      4 C           1.1000   -1.7920    0.0000 C.ar    1  LIG1        0.0584
      5 C           0.7960   -0.8170    0.0000 C.2     1  LIG1        0.2556
      6 O           1.3290    0.0960    0.0000 O.2     1  LIG1       -0.2695
      7 C           2.0130   -2.1460    0.0000 C.ar    1  LIG1        0.0047
      8 C           2.1250   -3.1330    0.0000 C.ar    1  LIG1        0.0001
      9 C           1.3290   -3.7420    0.0000 C.ar    1  LIG1        0.0001
     10 C           0.4170   -3.3630    0.0000 C.ar    1  LIG1        0.0047
     11 O          -1.5210   -2.0290    0.0000 O.2     1  LIG1       -0.2695
     12 C          -0.8500   -0.0170    0.0000 C.3     1  LIG1        0.2139
     13 C          -0.4210    0.8960    0.0000 C.2     1  LIG1        0.3342
     14 N          -1.0290    1.6670    0.0000 N.am    1  LIG1       -0.1348
     15 C          -0.6080    2.5790    0.0000 C.2     1  LIG1        0.3250
     16 N          -1.3330    3.2500    0.0000 N.2     1  LIG1       -0.0603
     17 C          -2.2460    2.7210    0.0000 C.3     1  LIG1        0.3140
     18 C          -2.0170    1.8080    0.0000 C.3     1  LIG1        0.2678
     19 C           0.3670    2.7210    0.0000 C.ar    1  LIG1        0.0823
     20 C           0.7210    3.6330    0.0000 C.ar    1  LIG1        0.0074
     21 C           1.7080    3.7460    0.0000 C.ar    1  LIG1        0.0002
     22 C           2.2420    2.9460    0.0000 C.ar    1  LIG1        0.0000
     23 C           1.9380    2.0330    0.0000 C.ar    1  LIG1        0.0002
     24 C           0.9080    1.9210    0.0000 C.ar    1  LIG1        0.0074
     25 O           0.6040    1.0080    0.0000 O.2     1  LIG1       -0.2448
@<TRIPOS>BOND
     1     1     2   am
     2     1     5   am
     3     1    12    1
     4     2     3    1
     5     2    11    2
     6     3     4   ar
     7     3    10   ar
     8     4     5    1
     9     4     7   ar
    10     5     6    2
    11     7     8   ar
    12     8     9   ar
    13     9    10   ar
    14    12    13    1
    15    13    14   am
    16    13    25    2
    17    14    15    1
    18    14    18    1
    19    15    16    2
    20    15    19    1
    21    16    17    1
    22    17    18    1
    23    19    20   ar
    24    19    24   ar
    25    20    21   ar
    26    21    22   ar
    27    22    23   ar
    28    23    24   ar
