@<TRIPOS>MOLECULE
32382_ChemDiv_D116-0186
 27 30 0 0 0
SMALL
GASTEIGER
Energy = 0

@<TRIPOS>ATOM
      1 N          -0.4040   -0.2710    0.0000 N.ar    1  LIG1       -0.1642
      2 C           0.0960   -1.1460    0.0000 C.ar    1  LIG1        0.2418
      3 N          -0.5750   -1.8880    0.0000 N.ar    1  LIG1       -0.1915
      4 C          -1.4880   -1.4830    0.0000 C.ar    1  LIG1        0.1864
      5 N          -1.3790   -0.4790    0.0000 N.ar    1  LIG1       -0.1408
      6 C          -2.3500   -1.9830    0.0000 C.ar    1  LIG1        0.0567
      7 C          -2.3500   -2.9880    0.0000 C.ar    1  LIG1        0.1019
      8 N          -3.2130   -3.4880    0.0000 N.ar    1  LIG1       -0.2422
      9 C          -4.0830   -2.9880    0.0000 C.ar    1  LIG1        0.0989
     10 C          -4.0830   -1.9880    0.0000 C.ar    1  LIG1        0.0208
     11 C          -3.2130   -1.4830    0.0000 C.ar    1  LIG1        0.0063
     12 N           1.0880   -1.2380    0.0000 N.pl3   1  LIG1       -0.1983
     13 C           1.5000   -2.1500    0.0000 C.3     1  LIG1        0.1481
     14 C           2.5000   -2.2500    0.0000 C.ar    1  LIG1        0.0290
     15 S           3.0000   -3.1000    0.0000 S.2     1  LIG1       -0.0890
     16 C           3.9790   -2.9000    0.0000 C.ar    1  LIG1        0.0352
     17 C           4.0790   -1.9080    0.0000 C.ar    1  LIG1        0.0072
     18 C           3.1750   -1.4960    0.0000 C.ar    1  LIG1        0.0044
     19 C           0.0000    0.6420    0.0000 C.2     1  LIG1        0.2636
     20 C           0.9880    0.7540    0.0000 C.3     1  LIG1        0.1163
     21 C           1.3880    1.6670    0.0000 C.ar    1  LIG1       -0.0128
     22 C           2.3880    1.7710    0.0000 C.ar    1  LIG1       -0.0038
     23 C           2.7880    2.6920    0.0000 C.ar    1  LIG1       -0.0003
     24 C           2.2000    3.4920    0.0000 C.ar    1  LIG1       -0.0000
     25 C           1.2000    3.3920    0.0000 C.ar    1  LIG1       -0.0003
     26 C           0.8000    2.4670    0.0000 C.ar    1  LIG1       -0.0038
     27 O          -0.5920    1.4460    0.0000 O.2     1  LIG1       -0.2697
@<TRIPOS>BOND
     1     1     2   ar
     2     1     5   ar
     3     1    19   am
     4     2     3   ar
     5     2    12    1
     6     3     4   ar
     7     4     5   ar
     8     4     6    1
     9     6     7   ar
    10     6    11   ar
    11     7     8   ar
    12     8     9   ar
    13     9    10   ar
    14    10    11   ar
    15    12    13    1
    16    13    14    1
    17    14    15   ar
    18    14    18   ar
    19    15    16   ar
    20    16    17   ar
    21    17    18   ar
    22    19    20    1
    23    19    27    2
    24    20    21    1
    25    21    22   ar
    26    21    26   ar
    27    22    23   ar
    28    23    24   ar
    29    24    25   ar
    30    25    26   ar
