@<TRIPOS>MOLECULE
32390_ChemDiv_6186-2974
 20 22 0 0 0
SMALL
GASTEIGER
Energy = 0

@<TRIPOS>ATOM
      1 N          -0.9540   -1.0130    0.0000 N.am    1  LIG1       -0.1325
      2 C          -0.0330   -1.3830    0.0000 C.2     1  LIG1        0.3392
      3 C           0.7710   -0.7710    0.0000 C.ar    1  LIG1        0.1057
      4 C           1.7540   -1.1290    0.0000 C.ar    1  LIG1        0.1467
      5 F           1.9170   -2.1880    0.0000 F       1  LIG1       -0.2039
      6 C           2.4790   -0.5170    0.0000 C.ar    1  LIG1        0.0299
      7 C           2.3670    0.4540    0.0000 C.ar    1  LIG1        0.0023
      8 C           1.4460    0.8250    0.0000 C.ar    1  LIG1        0.0004
      9 C           0.5790    0.2130    0.0000 C.ar    1  LIG1        0.0091
     10 O           0.1580   -2.3500    0.0000 O.2     1  LIG1       -0.2415
     11 C          -1.2580   -0.0920    0.0000 C.2     1  LIG1        0.3253
     12 N          -2.1790   -0.0420    0.0000 N.2     1  LIG1       -0.0602
     13 C          -2.4830   -1.0130    0.0000 C.3     1  LIG1        0.3140
     14 C          -1.8080   -1.5750    0.0000 C.3     1  LIG1        0.2681
     15 C          -0.5830    0.6330    0.0000 C.ar    1  LIG1        0.0823
     16 C           0.3880    0.4040    0.0000 C.ar    1  LIG1        0.0074
     17 C           1.0750    1.1330    0.0000 C.ar    1  LIG1        0.0002
     18 C           0.8330    2.1000    0.0000 C.ar    1  LIG1        0.0000
     19 C          -0.2250    2.3540    0.0000 C.ar    1  LIG1        0.0002
     20 C          -0.8880    1.6290    0.0000 C.ar    1  LIG1        0.0074
@<TRIPOS>BOND
     1     1     2   am
     2     1    11    1
     3     1    14    1
     4     2     3    1
     5     2    10    2
     6     3     4   ar
     7     3     9   ar
     8     4     5    1
     9     4     6   ar
    10     6     7   ar
    11     7     8   ar
    12     8     9   ar
    13    11    12    2
    14    11    15    1
    15    12    13    1
    16    13    14    1
    17    15    16   ar
    18    15    20   ar
    19    16    17   ar
    20    17    18   ar
    21    18    19   ar
    22    19    20   ar
