@<TRIPOS>MOLECULE
32395_ChemDiv_5984-0096
 14 16 0 0 0
SMALL
GASTEIGER
Energy = 0

@<TRIPOS>ATOM
      1 N           0.8920   -0.9670    0.0000 N.ar    1  LIG1       -0.1610
      2 C           1.5080   -0.1790    0.0000 C.ar    1  LIG1        0.2346
      3 S           0.9290    0.6380    0.0000 S.2     1  LIG1       -0.0178
      4 C          -0.0290    0.3460    0.0000 C.ar    1  LIG1        0.0985
      5 C          -0.0290   -0.6460    0.0000 C.ar    1  LIG1        0.2326
      6 C          -0.9040   -1.1540    0.0000 C.ar    1  LIG1        0.0703
      7 C          -1.7630   -0.6460    0.0000 C.ar    1  LIG1        0.0126
      8 C          -1.7500    0.3460    0.0000 C.ar    1  LIG1        0.0304
      9 C          -0.8750    0.8460    0.0000 C.ar    1  LIG1        0.0184
     10 C          -1.0710    1.8130    0.0000 C.ar    1  LIG1        0.0082
     11 C          -2.1080    1.9380    0.0000 C.ar    1  LIG1        0.0355
     12 S          -2.5080    1.0330    0.0000 S.2     1  LIG1       -0.0864
     13 C           2.5040   -0.1790    0.0000 C.3     1  LIG1        0.1159
     14 C           1.1420   -1.9330    0.0000 C.3     1  LIG1        0.4083
@<TRIPOS>BOND
     1     1     2   ar
     2     1     5   ar
     3     1    14    1
     4     2     3   ar
     5     2    13    1
     6     3     4   ar
     7     4     5   ar
     8     4     9   ar
     9     5     6   ar
    10     6     7   ar
    11     7     8   ar
    12     8     9   ar
    13     8    12   ar
    14     9    10   ar
    15    10    11   ar
    16    11    12   ar
