@<TRIPOS>MOLECULE
32392_ChemDiv_6186-3079
 25 28 0 0 0
SMALL
GASTEIGER
Energy = 0

@<TRIPOS>ATOM
      1 N          -0.0540   -1.3920    0.0000 N.am    1  LIG1       -0.2159
      2 C          -0.8210   -1.9040    0.0000 C.2     1  LIG1        0.2554
      3 C          -0.5830   -2.7500    0.0000 C.ar    1  LIG1        0.0584
      4 C           0.4250   -2.7960    0.0000 C.ar    1  LIG1        0.0584
      5 C           0.7000   -2.0170    0.0000 C.2     1  LIG1        0.2554
      6 O           1.7080   -1.6290    0.0000 O.2     1  LIG1       -0.2695
      7 C           0.8580   -3.7710    0.0000 C.ar    1  LIG1        0.0047
      8 C           0.3710   -4.6210    0.0000 C.ar    1  LIG1        0.0001
      9 C          -0.7670   -4.5290    0.0000 C.ar    1  LIG1        0.0001
     10 C          -1.1540   -3.6790    0.0000 C.ar    1  LIG1        0.0047
     11 O          -1.8420   -1.4830    0.0000 O.2     1  LIG1       -0.2695
     12 C           0.0380   -0.3460    0.0000 C.3     1  LIG1        0.1592
     13 C           0.9040    0.1130    0.0000 C.2     1  LIG1        0.2444
     14 N           0.9460    1.0960    0.0000 N.am    1  LIG1       -0.2738
     15 C           0.0960    1.6000    0.0000 C.3     1  LIG1        0.1199
     16 C           0.0580    2.6080    0.0000 C.ar    1  LIG1       -0.0062
     17 C           0.9460    3.1330    0.0000 C.ar    1  LIG1       -0.0228
     18 C           1.7460    2.6380    0.0000 C.3     1  LIG1        0.0476
     19 C           1.8380    1.6460    0.0000 C.3     1  LIG1        0.0984
     20 C           0.8580    4.1630    0.0000 C.ar    1  LIG1       -0.0045
     21 C           0.0290    4.6210    0.0000 C.ar    1  LIG1       -0.0003
     22 C          -0.8580    4.0710    0.0000 C.ar    1  LIG1       -0.0003
     23 C          -0.8330    3.1130    0.0000 C.ar    1  LIG1       -0.0029
     24 O           1.7080   -0.5290    0.0000 O.2     1  LIG1       -0.2731
     25 C          -0.7420    0.1420    0.0000 C.3     1  LIG1        0.0319
@<TRIPOS>BOND
     1     1     2   am
     2     1     5   am
     3     1    12    1
     4     2     3    1
     5     2    11    2
     6     3     4   ar
     7     3    10   ar
     8     4     5    1
     9     4     7   ar
    10     5     6    2
    11     7     8   ar
    12     8     9   ar
    13     9    10   ar
    14    12    13    1
    15    12    25    1
    16    13    14   am
    17    13    24    2
    18    14    15    1
    19    14    19    1
    20    15    16    1
    21    16    17   ar
    22    16    23   ar
    23    17    18    1
    24    17    20   ar
    25    18    19    1
    26    20    21   ar
    27    21    22   ar
    28    22    23   ar
