@<TRIPOS>MOLECULE
32396_ChemDiv_6186-3446
 16 17 0 0 0
SMALL
GASTEIGER
Energy = 0

@<TRIPOS>ATOM
      1 N           1.3130    0.0000    0.0000 N.ar    1  LIG1       -0.1767
      2 C           1.3130   -0.9830    0.0000 C.ar    1  LIG1        0.2447
      3 N           2.2210   -1.4830    0.0000 N.ar    1  LIG1       -0.1897
      4 C           3.0540   -0.9830    0.0000 C.ar    1  LIG1        0.2039
      5 N           3.0540    0.0000    0.0000 N.ar    1  LIG1       -0.1887
      6 C           2.2210    0.4880    0.0000 C.ar    1  LIG1        0.2604
      7 N           2.2210    1.4880    0.0000 N.pl3   1  LIG1       -0.0859
      8 N           0.3920   -1.4830    0.0000 N.pl3   1  LIG1       -0.1776
      9 C          -0.4380   -0.9500    0.0000 C.ar    1  LIG1        0.0732
     10 C          -1.3170   -1.4130    0.0000 C.ar    1  LIG1        0.0120
     11 C          -2.1460   -0.8790    0.0000 C.ar    1  LIG1       -0.0245
     12 C          -2.0750    0.1080    0.0000 C.ar    1  LIG1       -0.0257
     13 C          -1.1960    0.5670    0.0000 C.ar    1  LIG1       -0.0032
     14 C          -0.3670    0.0380    0.0000 C.ar    1  LIG1        0.0163
     15 C          -2.9540    0.6790    0.0000 C.3     1  LIG1        0.0307
     16 C          -3.0580   -1.3330    0.0000 C.3     1  LIG1        0.0307
@<TRIPOS>BOND
     1     1     2   ar
     2     1     6   ar
     3     2     3   ar
     4     2     8    1
     5     3     4   ar
     6     4     5   ar
     7     5     6   ar
     8     6     7    1
     9     8     9    1
    10     9    10   ar
    11     9    14   ar
    12    10    11   ar
    13    11    12   ar
    14    11    16    1
    15    12    13   ar
    16    12    15    1
    17    13    14   ar
