@<TRIPOS>MOLECULE
32394_ChemDiv_6186-3291
 30 33 0 0 0
SMALL
GASTEIGER
Energy = 0

@<TRIPOS>ATOM
      1 N           0.8500    2.0080    0.0000 N.am    1  LIG1       -0.2329
      2 C           1.6960    2.4670    0.0000 C.ar    1  LIG1        0.0643
      3 C           1.6960    3.5130    0.0000 C.ar    1  LIG1        0.0435
      4 S           0.8500    4.0130    0.0000 S.3     1  LIG1       -0.0844
      5 C          -0.0080    3.5130    0.0000 C.ar    1  LIG1        0.0435
      6 C          -0.0080    2.5080    0.0000 C.ar    1  LIG1        0.0643
      7 C          -0.8540    2.0080    0.0000 C.ar    1  LIG1        0.0157
      8 C          -1.7210    2.4670    0.0000 C.ar    1  LIG1        0.0013
      9 C          -1.7210    3.5130    0.0000 C.ar    1  LIG1        0.0006
     10 C          -0.8540    4.0130    0.0000 C.ar    1  LIG1        0.0077
     11 C           2.5420    4.0130    0.0000 C.ar    1  LIG1        0.0077
     12 C           3.4080    3.5670    0.0000 C.ar    1  LIG1        0.0006
     13 C           3.4080    2.4670    0.0000 C.ar    1  LIG1        0.0013
     14 C           2.5420    1.9670    0.0000 C.ar    1  LIG1        0.0157
     15 C           0.8500    1.0040    0.0000 C.2     1  LIG1        0.2567
     16 C          -0.0080    0.5040    0.0000 C.2     1  LIG1        0.0586
     17 C          -0.0080   -0.5000    0.0000 C.2     1  LIG1        0.0049
     18 C          -0.8540   -1.0000    0.0000 C.ar    1  LIG1        0.0064
     19 C          -1.7210   -0.5000    0.0000 C.ar    1  LIG1        0.0403
     20 C          -2.5670   -1.0000    0.0000 C.ar    1  LIG1        0.1754
     21 C          -2.5670   -2.0040    0.0000 C.ar    1  LIG1        0.2061
     22 C          -1.7210   -2.5040    0.0000 C.ar    1  LIG1        0.1754
     23 C          -0.8540   -2.0040    0.0000 C.ar    1  LIG1        0.0403
     24 O          -1.7210   -3.5080    0.0000 O.3     1  LIG1       -0.4683
     25 C          -2.5670   -4.0080    0.0000 C.3     1  LIG1        0.2526
     26 O          -3.4130   -2.5460    0.0000 O.3     1  LIG1       -0.4654
     27 C          -3.3630   -3.5500    0.0000 C.3     1  LIG1        0.2528
     28 O          -3.4130   -0.4460    0.0000 O.3     1  LIG1       -0.4683
     29 C          -3.3630    0.5540    0.0000 C.3     1  LIG1        0.2526
     30 O           1.6960    0.4630    0.0000 O.2     1  LIG1       -0.2692
@<TRIPOS>BOND
     1     1     2    1
     2     1     6    1
     3     1    15   am
     4     2     3   ar
     5     2    14   ar
     6     3     4    1
     7     3    11   ar
     8     4     5    1
     9     5     6   ar
    10     5    10   ar
    11     6     7   ar
    12     7     8   ar
    13     8     9   ar
    14     9    10   ar
    15    11    12   ar
    16    12    13   ar
    17    13    14   ar
    18    15    16    1
    19    15    30    2
    20    16    17    2
    21    17    18    1
    22    18    19   ar
    23    18    23   ar
    24    19    20   ar
    25    20    21   ar
    26    20    28    1
    27    21    22   ar
    28    21    26    1
    29    22    23   ar
    30    22    24    1
    31    24    25    1
    32    26    27    1
    33    28    29    1
