@<TRIPOS>MOLECULE
32393_ChemDiv_5981-0638
 28 32 0 0 0
SMALL
GASTEIGER
Energy = 0

@<TRIPOS>ATOM
      1 N           1.7500    3.3500    0.0000 N.ar    1  LIG1       -0.3272
      2 C           1.9790    2.3540    0.0000 C.ar    1  LIG1        0.0599
      3 C           1.1250    1.8790    0.0000 C.ar    1  LIG1        0.0171
      4 C           0.3960    2.5750    0.0000 C.ar    1  LIG1        0.0172
      5 C           0.8040    3.4130    0.0000 C.ar    1  LIG1        0.0599
      6 C           0.2330    4.2330    0.0000 C.ar    1  LIG1        0.0172
      7 C          -0.7790    4.1540    0.0000 C.ar    1  LIG1        0.0015
      8 C          -1.1580    3.2460    0.0000 C.ar    1  LIG1        0.0001
      9 C          -0.6330    2.4630    0.0000 C.ar    1  LIG1        0.0015
     10 C           1.1210    0.8960    0.0000 C.ar    1  LIG1        0.0029
     11 C           1.9790    0.3920    0.0000 C.ar    1  LIG1        0.0345
     12 C           1.9790   -0.6790    0.0000 C.3     1  LIG1        0.1662
     13 N           1.0630   -1.1880    0.0000 N.4     1  LIG1        0.3810
     14 C           0.1710   -0.6790    0.0000 C.3     1  LIG1        0.1451
     15 C          -0.7170   -1.1880    0.0000 C.3     1  LIG1        0.1194
     16 C          -0.7170   -2.2210    0.0000 C.3     1  LIG1        0.0990
     17 N          -1.6040   -2.7710    0.0000 N.4     1  LIG1        0.3733
     18 C          -2.4670   -2.2630    0.0000 C.3     1  LIG1        0.1383
     19 C          -3.3380   -2.7710    0.0000 C.3     1  LIG1        0.0629
     20 C          -3.3380   -3.7420    0.0000 C.3     1  LIG1        0.0123
     21 C          -2.4670   -4.2330    0.0000 C.3     1  LIG1        0.0629
     22 C          -1.6040   -3.7250    0.0000 C.3     1  LIG1        0.1383
     23 C           0.1710   -2.7710    0.0000 C.3     1  LIG1        0.1194
     24 C           1.0630   -2.2210    0.0000 C.3     1  LIG1        0.1451
     25 C           2.8330    0.8960    0.0000 C.ar    1  LIG1        0.0029
     26 C           2.8290    1.8500    0.0000 C.ar    1  LIG1        0.0171
     27 C           2.3830    4.0580    0.0000 C.3     1  LIG1        0.1061
     28 C           3.3330    3.9330    0.0000 C.3     1  LIG1        0.0265
@<TRIPOS>BOND
     1     1     2   ar
     2     1     5   ar
     3     1    27    1
     4     2     3   ar
     5     2    26   ar
     6     3     4   ar
     7     3    10   ar
     8     4     5   ar
     9     4     9   ar
    10     5     6   ar
    11     6     7   ar
    12     7     8   ar
    13     8     9   ar
    14    10    11   ar
    15    11    12    1
    16    11    25   ar
    17    12    13    1
    18    13    14    1
    19    13    24    1
    20    14    15    1
    21    15    16    1
    22    16    17    1
    23    16    23    1
    24    17    18    1
    25    17    22    1
    26    18    19    1
    27    19    20    1
    28    20    21    1
    29    21    22    1
    30    23    24    1
    31    25    26   ar
    32    27    28    1
