@<TRIPOS>MOLECULE
32391_ChemDiv_5978-0084
 25 27 0 0 0
SMALL
GASTEIGER
Energy = 0

@<TRIPOS>ATOM
      1 C          -3.1960   -0.8130    0.0000 C.ar    1  LIG1        0.1684
      2 N          -2.2420   -1.1670    0.0000 N.ar    1  LIG1       -0.2019
      3 C          -1.4750   -0.5170    0.0000 C.ar    1  LIG1        0.1946
      4 N          -1.6460    0.4630    0.0000 N.ar    1  LIG1       -0.1827
      5 C          -2.5830    0.8250    0.0000 C.ar    1  LIG1        0.2836
      6 C          -3.3670    0.1710    0.0000 C.ar    1  LIG1        0.0898
      7 C          -4.3130    0.5130    0.0000 C.ar    1  LIG1       -0.0130
      8 C          -5.0750   -0.1130    0.0000 C.ar    1  LIG1        0.0108
      9 C          -4.9000   -1.1130    0.0000 C.ar    1  LIG1        0.0607
     10 N          -3.9630   -1.4500    0.0000 N.ar    1  LIG1       -0.2308
     11 C          -5.6710   -1.7830    0.0000 C.3     1  LIG1        0.0521
     12 C          -4.4790    1.5040    0.0000 C.3     1  LIG1        0.0313
     13 O          -2.7500    1.7880    0.0000 O.3     1  LIG1       -0.2650
     14 S          -0.5420   -0.8540    0.0000 S.3     1  LIG1       -0.0657
     15 C           0.2250   -0.2330    0.0000 C.3     1  LIG1        0.1519
     16 C           1.1630   -0.5710    0.0000 C.2     1  LIG1        0.2570
     17 N           1.9250    0.0790    0.0000 N.am    1  LIG1       -0.1785
     18 C           2.8630   -0.2790    0.0000 C.ar    1  LIG1        0.0734
     19 C           3.6290    0.3420    0.0000 C.ar    1  LIG1        0.0171
     20 C           4.5630    0.0000    0.0000 C.ar    1  LIG1        0.0080
     21 C           4.7330   -0.9630    0.0000 C.ar    1  LIG1        0.0347
     22 BR          5.6670   -1.3040    0.0000 Br      1  LIG1       -0.0490
     23 C           3.9670   -1.6130    0.0000 C.ar    1  LIG1        0.0080
     24 C           3.0290   -1.2750    0.0000 C.ar    1  LIG1        0.0171
     25 O           1.3290   -1.5580    0.0000 O.2     1  LIG1       -0.2720
@<TRIPOS>BOND
     1     1     2   ar
     2     1     6   ar
     3     1    10   ar
     4     2     3   ar
     5     3     4   ar
     6     3    14    1
     7     4     5   ar
     8     5     6   ar
     9     5    13    1
    10     6     7   ar
    11     7     8   ar
    12     7    12    1
    13     8     9   ar
    14     9    10   ar
    15     9    11    1
    16    14    15    1
    17    15    16    1
    18    16    17   am
    19    16    25    2
    20    17    18    1
    21    18    19   ar
    22    18    24   ar
    23    19    20   ar
    24    20    21   ar
    25    21    22    1
    26    21    23   ar
    27    23    24   ar
