@<TRIPOS>MOLECULE
32404_ChemDiv_6105-1412
 24 26 0 0 0
SMALL
GASTEIGER
Energy = 0

@<TRIPOS>ATOM
      1 C           1.8500   -0.7580    0.0000 C.ar    1  LIG1        0.1299
      2 C           1.8500    0.2630    0.0000 C.ar    1  LIG1        0.0160
      3 C           0.9790    0.7420    0.0000 C.ar    1  LIG1        0.0109
      4 C           0.1000    0.2630    0.0000 C.ar    1  LIG1        0.1306
      5 C           0.1000   -0.7580    0.0000 C.ar    1  LIG1        0.0107
      6 C           0.9790   -1.2630    0.0000 C.ar    1  LIG1        0.0107
      7 C           0.9790   -2.2540    0.0000 C.3     1  LIG1        0.0340
      8 C          -0.7710   -1.2630    0.0000 C.3     1  LIG1        0.0340
      9 O          -0.7710    0.7630    0.0000 O.3     1  LIG1       -0.4713
     10 C          -1.6460    0.2630    0.0000 C.3     1  LIG1        0.2320
     11 C          -2.5000    0.7630    0.0000 C.ar    1  LIG1        0.0212
     12 C          -2.4750    1.7540    0.0000 C.ar    1  LIG1       -0.0007
     13 C          -3.3380    2.2580    0.0000 C.ar    1  LIG1       -0.0002
     14 C          -4.2130    1.7880    0.0000 C.ar    1  LIG1       -0.0000
     15 C          -4.2290    0.7960    0.0000 C.ar    1  LIG1       -0.0002
     16 C          -3.3790    0.2830    0.0000 C.ar    1  LIG1       -0.0007
     17 C           0.9790    1.7540    0.0000 C.3     1  LIG1        0.0340
     18 C           2.8000    0.5630    0.0000 C.3     1  LIG1        0.0946
     19 C           3.3750   -0.2460    0.0000 C.3     1  LIG1        0.1394
     20 O           2.8000   -1.0500    0.0000 O.3     1  LIG1       -0.4828
     21 C           3.7210   -1.1960    0.0000 C.3     1  LIG1        0.0440
     22 C           4.2250    0.2630    0.0000 C.3     1  LIG1        0.0440
     23 C           3.1460    1.5040    0.0000 C.3     1  LIG1        0.1899
     24 O           4.1080    1.6830    0.0000 O.3     1  LIG1       -0.2199
@<TRIPOS>BOND
     1     1     2   ar
     2     1     6   ar
     3     1    20    1
     4     2     3   ar
     5     2    18    1
     6     3     4   ar
     7     3    17    1
     8     4     5   ar
     9     4     9    1
    10     5     6   ar
    11     5     8    1
    12     6     7    1
    13     9    10    1
    14    10    11    1
    15    11    12   ar
    16    11    16   ar
    17    12    13   ar
    18    13    14   ar
    19    14    15   ar
    20    15    16   ar
    21    18    19    1
    22    18    23    1
    23    19    20    1
    24    19    21    1
    25    19    22    1
    26    23    24    1
