@<TRIPOS>MOLECULE
32400_ChemDiv_8008-8994
 32 35 0 0 0
SMALL
GASTEIGER
Energy = 0

@<TRIPOS>ATOM
      1 C          -0.8540   -2.4380    0.0000 C.ar    1  LIG1        0.2457
      2 N          -0.8540   -1.4000    0.0000 N.ar    1  LIG1       -0.1777
      3 C           0.0130   -0.9380    0.0000 C.ar    1  LIG1        0.2457
      4 N           0.8790   -1.4000    0.0000 N.ar    1  LIG1       -0.1777
      5 C           0.8790   -2.4380    0.0000 C.ar    1  LIG1        0.2457
      6 N           0.0130   -2.9500    0.0000 N.ar    1  LIG1       -0.1777
      7 N           1.7420   -2.9500    0.0000 N.pl3   1  LIG1       -0.1775
      8 C           2.6130   -2.4670    0.0000 C.ar    1  LIG1        0.0736
      9 C           2.5920   -1.4790    0.0000 C.ar    1  LIG1        0.0163
     10 C           3.4290   -0.9710    0.0000 C.ar    1  LIG1       -0.0029
     11 C           4.3290   -1.4500    0.0000 C.ar    1  LIG1       -0.0218
     12 C           4.3580   -2.4540    0.0000 C.ar    1  LIG1       -0.0029
     13 C           3.5080   -2.9790    0.0000 C.ar    1  LIG1        0.0163
     14 C           5.1750   -0.9380    0.0000 C.3     1  LIG1        0.0310
     15 N           0.0130    0.0500    0.0000 N.pl3   1  LIG1       -0.1775
     16 C           0.8630    0.5290    0.0000 C.ar    1  LIG1        0.0736
     17 C           0.8790    1.5130    0.0000 C.ar    1  LIG1        0.0167
     18 C           1.7750    1.9920    0.0000 C.ar    1  LIG1        0.0042
     19 C           2.6290    1.4790    0.0000 C.ar    1  LIG1        0.0348
     20 C           3.4920    1.9750    0.0000 C.2     1  LIG1        0.1735
     21 O           3.4920    2.9830    0.0000 O.2     1  LIG1       -0.2913
     22 C           4.3420    1.4710    0.0000 C.3     1  LIG1        0.0773
     23 C           2.6130    0.4830    0.0000 C.ar    1  LIG1        0.0042
     24 C           1.7290    0.0330    0.0000 C.ar    1  LIG1        0.0167
     25 N          -1.7000   -2.9500    0.0000 N.pl3   1  LIG1       -0.1775
     26 C          -2.5500   -2.4670    0.0000 C.ar    1  LIG1        0.0736
     27 C          -3.4290   -2.9670    0.0000 C.ar    1  LIG1        0.0163
     28 C          -4.2960   -2.4540    0.0000 C.ar    1  LIG1       -0.0029
     29 C          -4.3080   -1.4500    0.0000 C.ar    1  LIG1       -0.0218
     30 C          -3.4290   -0.9540    0.0000 C.ar    1  LIG1       -0.0029
     31 C          -2.5750   -1.4500    0.0000 C.ar    1  LIG1        0.0163
     32 C          -5.1790   -0.9540    0.0000 C.3     1  LIG1        0.0310
@<TRIPOS>BOND
     1     1     2   ar
     2     1     6   ar
     3     1    25    1
     4     2     3   ar
     5     3     4   ar
     6     3    15    1
     7     4     5   ar
     8     5     6   ar
     9     5     7    1
    10     7     8    1
    11     8     9   ar
    12     8    13   ar
    13     9    10   ar
    14    10    11   ar
    15    11    12   ar
    16    11    14    1
    17    12    13   ar
    18    15    16    1
    19    16    17   ar
    20    16    24   ar
    21    17    18   ar
    22    18    19   ar
    23    19    20    1
    24    19    23   ar
    25    20    21    2
    26    20    22    1
    27    23    24   ar
    28    25    26    1
    29    26    27   ar
    30    26    31   ar
    31    27    28   ar
    32    28    29   ar
    33    29    30   ar
    34    29    32    1
    35    30    31   ar
