@<TRIPOS>MOLECULE
32414_ChemDiv_6117-0129
 18 19 0 0 0
SMALL
GASTEIGER
Energy = 0

@<TRIPOS>ATOM
      1 C           1.2630    0.7040    0.0000 C.ar    1  LIG1        0.0974
      2 C           0.4170    0.2130    0.0000 C.ar    1  LIG1       -0.0071
      3 C           0.4170   -0.7710    0.0000 C.ar    1  LIG1        0.0267
      4 C           1.2630   -1.2630    0.0000 C.ar    1  LIG1        0.0955
      5 N           2.1080   -0.7710    0.0000 N.ar    1  LIG1       -0.3058
      6 C           2.1080    0.2130    0.0000 C.ar    1  LIG1        0.1610
      7 N           3.0250    0.7040    0.0000 N.pl3   1  LIG1       -0.1082
      8 C           3.0250   -1.2630    0.0000 C.3     1  LIG1        0.1323
      9 S           1.2630   -2.2500    0.0000 S.2     1  LIG1       -0.0321
     10 C          -0.4250   -1.2630    0.0000 C.3     1  LIG1        0.1700
     11 O          -1.3420   -0.7710    0.0000 O.3     1  LIG1       -0.3534
     12 C          -1.3420    0.2130    0.0000 C.3     1  LIG1        0.0973
     13 C          -0.4250    0.7040    0.0000 C.3     1  LIG1        0.0541
     14 C          -2.1830   -0.2790    0.0000 C.3     1  LIG1        0.0276
     15 C          -3.0290    0.2130    0.0000 C.3     1  LIG1        0.0025
     16 C          -1.3420    1.2670    0.0000 C.3     1  LIG1        0.0300
     17 C           1.2630    1.7630    0.0000 C.1     1  LIG1        0.1030
     18 N           2.1080    2.2540    0.0000 N.1     1  LIG1       -0.1907
@<TRIPOS>BOND
     1     1     2   ar
     2     1     6   ar
     3     1    17    1
     4     2     3   ar
     5     2    13    1
     6     3     4   ar
     7     3    10    1
     8     4     5   ar
     9     4     9    2
    10     5     6   ar
    11     5     8    1
    12     6     7    1
    13    10    11    1
    14    11    12    1
    15    12    13    1
    16    12    14    1
    17    12    16    1
    18    14    15    1
    19    17    18    3
