@<TRIPOS>MOLECULE
32419_ChemDiv_5985-0705
 22 25 0 0 0
SMALL
GASTEIGER
Energy = 0

@<TRIPOS>ATOM
      1 N          -3.1250   -0.5790    0.0000 N.ar    1  LIG1       -0.2440
      2 C          -3.1250   -1.5750    0.0000 C.ar    1  LIG1        0.3540
      3 N          -2.2580   -2.0750    0.0000 N.ar    1  LIG1       -0.1696
      4 C          -1.4000   -1.5750    0.0000 C.ar    1  LIG1        0.2104
      5 C          -1.4000   -0.5790    0.0000 C.ar    1  LIG1        0.1765
      6 C          -2.2580   -0.0710    0.0000 C.ar    1  LIG1        0.2852
      7 O          -2.2580    0.9210    0.0000 O.2     1  LIG1       -0.2651
      8 N          -0.5290   -0.0710    0.0000 N.ar    1  LIG1       -0.2171
      9 C           0.3540   -0.5790    0.0000 C.ar    1  LIG1        0.1840
     10 N           0.3540   -1.5750    0.0000 N.ar    1  LIG1       -0.1270
     11 N          -0.5290   -2.0750    0.0000 N.ar    1  LIG1       -0.1251
     12 C           1.2210   -0.0710    0.0000 C.ar    1  LIG1        0.0408
     13 C           1.4330    0.8960    0.0000 C.ar    1  LIG1        0.0433
     14 C           2.3830    1.1960    0.0000 C.ar    1  LIG1        0.1765
     15 C           3.1210    0.5250    0.0000 C.ar    1  LIG1        0.1764
     16 O           3.9830    1.0040    0.0000 O.3     1  LIG1       -0.4346
     17 C           3.7710    1.9750    0.0000 C.3     1  LIG1        0.4294
     18 O           2.7830    2.1040    0.0000 O.3     1  LIG1       -0.4346
     19 C           2.9130   -0.4540    0.0000 C.ar    1  LIG1        0.0403
     20 C           1.9630   -0.7500    0.0000 C.ar    1  LIG1        0.0064
     21 O          -3.9880   -2.1000    0.0000 O.2     1  LIG1       -0.2443
     22 C          -3.9880   -0.0710    0.0000 C.3     1  LIG1        0.1383
@<TRIPOS>BOND
     1     1     2   ar
     2     1     6   ar
     3     1    22    1
     4     2     3   ar
     5     2    21    2
     6     3     4   ar
     7     4     5   ar
     8     4    11   ar
     9     5     6   ar
    10     5     8   ar
    11     6     7    2
    12     8     9   ar
    13     9    10   ar
    14     9    12    1
    15    10    11   ar
    16    12    13   ar
    17    12    20   ar
    18    13    14   ar
    19    14    15   ar
    20    14    18    1
    21    15    16    1
    22    15    19   ar
    23    16    17    1
    24    17    18    1
    25    19    20   ar
