@<TRIPOS>MOLECULE
32416_ChemDiv_6117-0137
 21 23 0 0 0
SMALL
GASTEIGER
Energy = 0

@<TRIPOS>ATOM
      1 C           0.0670    1.0250    0.0000 C.ar    1  LIG1        0.1235
      2 C           0.9170    0.5290    0.0000 C.ar    1  LIG1        0.2897
      3 N           0.9170   -0.4580    0.0000 N.ar    1  LIG1       -0.1941
      4 N           0.0670   -0.9500    0.0000 N.ar    1  LIG1       -0.1647
      5 C          -0.8580   -0.4580    0.0000 C.ar    1  LIG1        0.1057
      6 C          -0.8580    0.5290    0.0000 C.ar    1  LIG1        0.0122
      7 C          -1.7040    1.0250    0.0000 C.3     1  LIG1        0.0557
      8 C          -2.5540    0.5290    0.0000 C.3     1  LIG1        0.0975
      9 O          -2.5540   -0.4580    0.0000 O.3     1  LIG1       -0.3518
     10 C          -1.7040   -0.9500    0.0000 C.3     1  LIG1        0.1887
     11 C          -2.5540    1.5250    0.0000 C.3     1  LIG1        0.0300
     12 C          -3.4750    0.0380    0.0000 C.3     1  LIG1        0.0300
     13 C           1.7670   -0.9500    0.0000 C.ar    1  LIG1        0.0860
     14 C           1.7670   -2.0130    0.0000 C.ar    1  LIG1        0.0193
     15 C           2.6130   -2.5130    0.0000 C.ar    1  LIG1        0.0015
     16 C           3.4710   -2.0130    0.0000 C.ar    1  LIG1        0.0001
     17 C           3.4710   -0.9500    0.0000 C.ar    1  LIG1        0.0015
     18 C           2.6130   -0.4580    0.0000 C.ar    1  LIG1        0.0193
     19 O           1.7670    1.0250    0.0000 O.2     1  LIG1       -0.2644
     20 C           0.0670    2.0210    0.0000 C.1     1  LIG1        0.1050
     21 N           0.9170    2.5170    0.0000 N.1     1  LIG1       -0.1907
@<TRIPOS>BOND
     1     1     2   ar
     2     1     6   ar
     3     1    20    1
     4     2     3   ar
     5     2    19    2
     6     3     4   ar
     7     3    13    1
     8     4     5   ar
     9     5     6   ar
    10     5    10    1
    11     6     7    1
    12     7     8    1
    13     8     9    1
    14     8    11    1
    15     8    12    1
    16     9    10    1
    17    13    14   ar
    18    13    18   ar
    19    14    15   ar
    20    15    16   ar
    21    16    17   ar
    22    17    18   ar
    23    20    21    3
