@<TRIPOS>MOLECULE
32423_ChemDiv_5988-0061
 27 31 0 0 0
SMALL
GASTEIGER
Energy = 0

@<TRIPOS>ATOM
      1 N          -1.7380   -1.0420    0.0000 N.am    1  LIG1       -0.2081
      2 C          -2.3330   -0.1830    0.0000 C.2     1  LIG1        0.2354
      3 C          -3.2170    0.0500    0.0000 C.3     1  LIG1        0.0903
      4 C          -3.1960   -0.7830    0.0000 C.3     1  LIG1        0.0903
      5 C          -2.7500   -1.2750    0.0000 C.2     1  LIG1        0.2354
      6 O          -2.5670   -2.1750    0.0000 O.2     1  LIG1       -0.2741
      7 C          -4.1290   -0.5420    0.0000 C.3     1  LIG1        0.0311
      8 C          -4.9750   -1.2750    0.0000 C.2     1  LIG1       -0.0305
      9 C          -5.0880   -0.2170    0.0000 C.2     1  LIG1       -0.0305
     10 C          -3.9330    0.4080    0.0000 C.3     1  LIG1        0.0311
     11 C          -4.2580    1.6420    0.0000 C.3     1  LIG1        0.0096
     12 O          -1.7380    0.3130    0.0000 O.2     1  LIG1       -0.2741
     13 C          -0.7710   -1.0420    0.0000 C.ar    1  LIG1        0.0607
     14 C          -0.3290   -0.2630    0.0000 C.ar    1  LIG1        0.0167
     15 C           0.6040   -0.2630    0.0000 C.ar    1  LIG1        0.0179
     16 C           1.0540   -1.0420    0.0000 C.ar    1  LIG1        0.0751
     17 N           1.9750   -1.0420    0.0000 N.am    1  LIG1       -0.1606
     18 C           2.4170   -0.2630    0.0000 C.2     1  LIG1        0.3495
     19 N           3.3540   -0.2630    0.0000 N.am    1  LIG1       -0.1340
     20 C           3.8500    0.6000    0.0000 C.ar    1  LIG1        0.2094
     21 S           4.8540    0.7040    0.0000 S.2     1  LIG1       -0.0266
     22 C           5.0830    1.6580    0.0000 C.ar    1  LIG1        0.1605
     23 N           4.1880    2.1790    0.0000 N.ar    1  LIG1       -0.1374
     24 N           3.4710    1.5080    0.0000 N.ar    1  LIG1       -0.1234
     25 O           1.9750    0.5210    0.0000 O.2     1  LIG1       -0.2484
     26 C           0.6040   -1.8330    0.0000 C.ar    1  LIG1        0.0179
     27 C          -0.3290   -1.8330    0.0000 C.ar    1  LIG1        0.0167
@<TRIPOS>BOND
     1     1     2   am
     2     1     5   am
     3     1    13    1
     4     2     3    1
     5     2    12    2
     6     3     4    1
     7     3    10    1
     8     4     5    1
     9     4     7    1
    10     5     6    2
    11     7     8    1
    12     7    11    1
    13     8     9    2
    14     9    10    1
    15    10    11    1
    16    13    14   ar
    17    13    27   ar
    18    14    15   ar
    19    15    16   ar
    20    16    17    1
    21    16    26   ar
    22    17    18   am
    23    18    19   am
    24    18    25    2
    25    19    20    1
    26    20    21   ar
    27    20    24   ar
    28    21    22   ar
    29    22    23   ar
    30    23    24   ar
    31    26    27   ar
