@<TRIPOS>MOLECULE
32420_ChemDiv_6186-3465
 31 34 0 0 0
SMALL
GASTEIGER
Energy = 0

@<TRIPOS>ATOM
      1 N           1.4500   -0.5670    0.0000 N.am    1  LIG1       -0.2194
      2 C           0.7500    0.1170    0.0000 C.2     1  LIG1        0.3351
      3 N          -0.1880   -0.1500    0.0000 N.am    1  LIG1       -0.1617
      4 C          -0.9080    0.5330    0.0000 C.ar    1  LIG1        0.0754
      5 C          -0.9080    1.5630    0.0000 C.ar    1  LIG1        0.0231
      6 C          -1.7790    2.0670    0.0000 C.ar    1  LIG1        0.0771
      7 C          -1.7790    3.0630    0.0000 C.2     1  LIG1        0.3414
      8 O          -0.9330    3.5250    0.0000 O.2     1  LIG1       -0.2449
      9 O          -2.6130    3.5250    0.0000 O.3     1  LIG1       -0.4413
     10 C          -3.4830    3.0330    0.0000 C.3     1  LIG1        0.2560
     11 C          -2.6380    1.5630    0.0000 C.ar    1  LIG1        0.0130
     12 C          -2.6380    0.5330    0.0000 C.ar    1  LIG1        0.0771
     13 C          -3.4830    0.0000    0.0000 C.2     1  LIG1        0.3414
     14 O          -4.3630    0.4580    0.0000 O.2     1  LIG1       -0.2449
     15 O          -3.4330   -0.9750    0.0000 O.3     1  LIG1       -0.4413
     16 C          -2.5250   -1.4290    0.0000 C.3     1  LIG1        0.2560
     17 C          -1.7790    0.0210    0.0000 C.ar    1  LIG1        0.0231
     18 O           0.9500    1.0710    0.0000 O.2     1  LIG1       -0.2497
     19 C           2.4000   -0.2920    0.0000 C.ar    1  LIG1        0.0656
     20 C           3.1380   -1.0000    0.0000 C.ar    1  LIG1        0.0435
     21 S           2.8790   -1.9960    0.0000 S.3     1  LIG1       -0.0844
     22 C           1.8580   -2.2500    0.0000 C.ar    1  LIG1        0.0435
     23 C           1.1750   -1.5880    0.0000 C.ar    1  LIG1        0.0656
     24 C           0.2380   -1.8830    0.0000 C.ar    1  LIG1        0.0158
     25 C          -0.0460   -2.8670    0.0000 C.ar    1  LIG1        0.0013
     26 C           0.6080   -3.5210    0.0000 C.ar    1  LIG1        0.0006
     27 C           1.5920   -3.2170    0.0000 C.ar    1  LIG1        0.0077
     28 C           4.1330   -0.7460    0.0000 C.ar    1  LIG1        0.0077
     29 C           4.3580    0.2750    0.0000 C.ar    1  LIG1        0.0006
     30 C           3.7040    0.9290    0.0000 C.ar    1  LIG1        0.0013
     31 C           2.6830    0.6540    0.0000 C.ar    1  LIG1        0.0158
@<TRIPOS>BOND
     1     1     2   am
     2     1    19    1
     3     1    23    1
     4     2     3   am
     5     2    18    2
     6     3     4    1
     7     4     5   ar
     8     4    17   ar
     9     5     6   ar
    10     6     7    1
    11     6    11   ar
    12     7     8    2
    13     7     9    1
    14     9    10    1
    15    11    12   ar
    16    12    13    1
    17    12    17   ar
    18    13    14    2
    19    13    15    1
    20    15    16    1
    21    19    20   ar
    22    19    31   ar
    23    20    21    1
    24    20    28   ar
    25    21    22    1
    26    22    23   ar
    27    22    27   ar
    28    23    24   ar
    29    24    25   ar
    30    25    26   ar
    31    26    27   ar
    32    28    29   ar
    33    29    30   ar
    34    30    31   ar
