@<TRIPOS>MOLECULE
32424_ChemDiv_6188-0224
 14 14 0 0 0
SMALL
GASTEIGER
Energy = 0

@<TRIPOS>ATOM
      1 N          -0.4380    1.2580    0.0000 N.ar    1  LIG1       -0.1802
      2 C          -1.3000    1.7580    0.0000 C.ar    1  LIG1        0.2963
      3 C          -2.1630    1.2500    0.0000 C.ar    1  LIG1        0.1385
      4 N          -2.1630    0.2500    0.0000 N.ar    1  LIG1       -0.1455
      5 N          -1.3000   -0.2500    0.0000 N.ar    1  LIG1       -0.1219
      6 C          -0.4380    0.2500    0.0000 C.ar    1  LIG1        0.2136
      7 S           0.4250   -0.2540    0.0000 S.3     1  LIG1       -0.0620
      8 C           0.4250   -1.2540    0.0000 C.3     1  LIG1        0.1743
      9 C           1.2880   -1.7540    0.0000 C.2     1  LIG1        0.3287
     10 O           1.2880   -2.7540    0.0000 O.2     1  LIG1       -0.2491
     11 O           2.1580   -1.2540    0.0000 O.3     1  LIG1       -0.4438
     12 C           3.0250   -1.7540    0.0000 C.3     1  LIG1        0.2556
     13 C          -3.0250    1.7580    0.0000 C.3     1  LIG1        0.0592
     14 O          -1.3000    2.7580    0.0000 O.3     1  LIG1       -0.2638
@<TRIPOS>BOND
     1     1     2   ar
     2     1     6   ar
     3     2     3   ar
     4     2    14    1
     5     3     4   ar
     6     3    13    1
     7     4     5   ar
     8     5     6   ar
     9     6     7    1
    10     7     8    1
    11     8     9    1
    12     9    10    2
    13     9    11    1
    14    11    12    1
