@<TRIPOS>MOLECULE
32421_ChemDiv_5986-0036
 28 31 0 0 0
SMALL
GASTEIGER
Energy = 0

@<TRIPOS>ATOM
      1 C          -0.0330   -1.3750    0.0000 C.ar    1  LIG1        0.2250
      2 N           0.4710   -0.5210    0.0000 N.ar    1  LIG1       -0.1792
      3 C          -0.0210    0.3420    0.0000 C.ar    1  LIG1        0.2456
      4 N          -1.0040    0.3420    0.0000 N.ar    1  LIG1       -0.1777
      5 C          -1.5000   -0.5210    0.0000 C.ar    1  LIG1        0.2456
      6 N          -1.0130   -1.3710    0.0000 N.ar    1  LIG1       -0.1792
      7 N          -2.5000   -0.5040    0.0000 N.pl3   1  LIG1       -0.1775
      8 C          -2.9880    0.3420    0.0000 C.ar    1  LIG1        0.0736
      9 C          -3.9750    0.3420    0.0000 C.ar    1  LIG1        0.0166
     10 C          -4.4710    1.2000    0.0000 C.ar    1  LIG1        0.0013
     11 C          -3.9750    2.0670    0.0000 C.ar    1  LIG1        0.0001
     12 C          -2.9830    2.0500    0.0000 C.ar    1  LIG1        0.0013
     13 C          -2.4830    1.2000    0.0000 C.ar    1  LIG1        0.0166
     14 N           0.4710    1.2000    0.0000 N.pl3   1  LIG1       -0.1775
     15 C           1.4790    1.2000    0.0000 C.ar    1  LIG1        0.0736
     16 C           1.9670    2.0670    0.0000 C.ar    1  LIG1        0.0177
     17 C           2.9710    2.0670    0.0000 C.ar    1  LIG1        0.0153
     18 C           3.4710    2.9330    0.0000 C.2     1  LIG1        0.0729
     19 O           2.9540    3.7960    0.0000 O.co2   1  LIG1       -0.5446
     20 O           4.4670    2.9330    0.0000 O.co2   1  LIG1       -0.5446
     21 C           3.4710    1.2000    0.0000 C.ar    1  LIG1        0.0012
     22 C           2.9710    0.3290    0.0000 C.ar    1  LIG1        0.0014
     23 C           1.9790    0.3290    0.0000 C.ar    1  LIG1        0.0166
     24 N           0.4670   -2.2210    0.0000 N.pl3   1  LIG1       -0.2781
     25 C           1.3580   -2.2170    0.0000 C.3     1  LIG1        0.0937
     26 C           1.8330   -2.9790    0.0000 C.3     1  LIG1        0.0233
     27 C           0.5000   -3.7920    0.0000 C.3     1  LIG1        0.0233
     28 C           0.0250   -3.0130    0.0000 C.3     1  LIG1        0.0937
@<TRIPOS>BOND
     1     1     2   ar
     2     1     6   ar
     3     1    24    1
     4     2     3   ar
     5     3     4   ar
     6     3    14    1
     7     4     5   ar
     8     5     6   ar
     9     5     7    1
    10     7     8    1
    11     8     9   ar
    12     8    13   ar
    13     9    10   ar
    14    10    11   ar
    15    11    12   ar
    16    12    13   ar
    17    14    15    1
    18    15    16   ar
    19    15    23   ar
    20    16    17   ar
    21    17    18    1
    22    17    21   ar
    23    18    19   ar
    24    18    20   ar
    25    21    22   ar
    26    22    23   ar
    27    24    25    1
    28    24    28    1
    29    25    26    1
    30    26    27    1
    31    27    28    1
