@<TRIPOS>MOLECULE
32426_ChemDiv_8012-7828
 16 16 0 0 0
SMALL
GASTEIGER
Energy = 0

@<TRIPOS>ATOM
      1 N          -2.1750    0.0000    0.0000 N.ar    1  LIG1       -0.1802
      2 C          -3.0290    0.5040    0.0000 C.ar    1  LIG1        0.2963
      3 C          -3.9080    0.0000    0.0000 C.ar    1  LIG1        0.1385
      4 N          -3.9080   -1.0000    0.0000 N.ar    1  LIG1       -0.1455
      5 N          -3.0460   -1.4960    0.0000 N.ar    1  LIG1       -0.1219
      6 C          -2.1670   -1.0000    0.0000 C.ar    1  LIG1        0.2131
      7 S          -1.3170   -1.4960    0.0000 S.3     1  LIG1       -0.0740
      8 C          -0.4500   -1.0000    0.0000 C.3     1  LIG1        0.0652
      9 C           0.4170   -1.5040    0.0000 C.3     1  LIG1        0.0121
     10 C           1.2960   -1.0080    0.0000 C.3     1  LIG1        0.0009
     11 C           2.1540   -1.5040    0.0000 C.3     1  LIG1        0.0000
     12 C           3.0210   -1.0080    0.0000 C.3     1  LIG1        0.0000
     13 C           3.8880   -1.5040    0.0000 C.3     1  LIG1        0.0000
     14 C           4.7670   -1.0210    0.0000 C.3     1  LIG1        0.0000
     15 C          -4.7710    0.5040    0.0000 C.3     1  LIG1        0.0592
     16 O          -3.0290    1.5080    0.0000 O.3     1  LIG1       -0.2638
@<TRIPOS>BOND
     1     1     2   ar
     2     1     6   ar
     3     2     3   ar
     4     2    16    1
     5     3     4   ar
     6     3    15    1
     7     4     5   ar
     8     5     6   ar
     9     6     7    1
    10     7     8    1
    11     8     9    1
    12     9    10    1
    13    10    11    1
    14    11    12    1
    15    12    13    1
    16    13    14    1
