@<TRIPOS>MOLECULE
32422_ChemDiv_6186-3776
 36 40 0 0 0
SMALL
GASTEIGER
Energy = 0

@<TRIPOS>ATOM
      1 N           2.5040    0.5250    0.0000 N.am    1  LIG1       -0.2187
      2 C           3.0210   -0.3540    0.0000 C.2     1  LIG1        0.2318
      3 C           4.0000   -0.1250    0.0000 C.3     1  LIG1        0.0857
      4 C           4.0880    0.8500    0.0000 C.3     1  LIG1        0.0857
      5 C           3.1500    1.2670    0.0000 C.2     1  LIG1        0.2318
      6 O           2.9670    2.2670    0.0000 O.2     1  LIG1       -0.2745
      7 C           4.9830    1.3000    0.0000 C.3     1  LIG1        0.0096
      8 C           5.8210    0.7330    0.0000 C.3     1  LIG1        0.0005
      9 C           5.7080   -0.2790    0.0000 C.3     1  LIG1        0.0005
     10 C           4.8130   -0.6750    0.0000 C.3     1  LIG1        0.0096
     11 O           2.6040   -1.2830    0.0000 O.2     1  LIG1       -0.2745
     12 C           1.5040    0.5080    0.0000 C.3     1  LIG1        0.2101
     13 C           1.0130    1.3710    0.0000 C.2     1  LIG1        0.3380
     14 O           1.5040    2.2290    0.0000 O.2     1  LIG1       -0.2482
     15 O          -0.0130    1.3920    0.0000 O.3     1  LIG1       -0.4455
     16 C          -0.5000    0.5420    0.0000 C.3     1  LIG1        0.2282
     17 C          -1.4960    0.5080    0.0000 C.3     1  LIG1        0.1205
     18 N          -1.4670   -0.4880    0.0000 N.am    1  LIG1       -0.1876
     19 C          -2.3580   -0.9750    0.0000 C.2     1  LIG1        0.3308
     20 N          -3.2380   -0.4880    0.0000 N.am    1  LIG1       -0.2197
     21 C          -3.2380    0.5080    0.0000 C.ar    1  LIG1        0.0656
     22 C          -4.0880    1.0080    0.0000 C.ar    1  LIG1        0.0435
     23 S          -4.9420    0.5080    0.0000 S.3     1  LIG1       -0.0844
     24 C          -4.9420   -0.4880    0.0000 C.ar    1  LIG1        0.0435
     25 C          -4.0880   -0.9750    0.0000 C.ar    1  LIG1        0.0656
     26 C          -4.1170   -2.0040    0.0000 C.ar    1  LIG1        0.0158
     27 C          -4.9750   -2.4920    0.0000 C.ar    1  LIG1        0.0013
     28 C          -5.8250   -2.0040    0.0000 C.ar    1  LIG1        0.0006
     29 C          -5.8250   -0.9750    0.0000 C.ar    1  LIG1        0.0077
     30 C          -4.0630    1.9960    0.0000 C.ar    1  LIG1        0.0077
     31 C          -3.2080    2.4960    0.0000 C.ar    1  LIG1        0.0006
     32 C          -2.3580    1.9960    0.0000 C.ar    1  LIG1        0.0013
     33 C          -2.3580    1.0080    0.0000 C.ar    1  LIG1        0.0158
     34 O          -2.3210   -2.0040    0.0000 O.2     1  LIG1       -0.2501
     35 C          -2.4960    0.5080    0.0000 C.3     1  LIG1        0.0256
     36 C          -1.4960    1.5080    0.0000 C.3     1  LIG1        0.0256
@<TRIPOS>BOND
     1     1     2   am
     2     1     5   am
     3     1    12    1
     4     2     3    1
     5     2    11    2
     6     3     4    1
     7     3    10    1
     8     4     5    1
     9     4     7    1
    10     5     6    2
    11     7     8    1
    12     8     9    1
    13     9    10    1
    14    12    13    1
    15    13    14    2
    16    13    15    1
    17    15    16    1
    18    16    17    1
    19    17    18    1
    20    17    35    1
    21    17    36    1
    22    18    19   am
    23    19    20   am
    24    19    34    2
    25    20    21    1
    26    20    25    1
    27    21    22   ar
    28    21    33   ar
    29    22    23    1
    30    22    30   ar
    31    23    24    1
    32    24    25   ar
    33    24    29   ar
    34    25    26   ar
    35    26    27   ar
    36    27    28   ar
    37    28    29   ar
    38    30    31   ar
    39    31    32   ar
    40    32    33   ar
