@<TRIPOS>MOLECULE
32439_ChemDiv_6049-1972
 27 29 0 0 0
SMALL
GASTEIGER
Energy = 0

@<TRIPOS>ATOM
      1 N           0.8750   -0.3630    0.0000 N.am    1  LIG1       -0.2777
      2 C           1.8710   -0.2920    0.0000 C.2     1  LIG1        0.2260
      3 O           2.2880    0.6170    0.0000 O.2     1  LIG1       -0.2749
      4 C           2.4250   -1.1040    0.0000 C.3     1  LIG1        0.0899
      5 C           3.4210   -1.0170    0.0000 C.3     1  LIG1        0.0359
      6 C           3.9880   -1.8500    0.0000 C.ar    1  LIG1       -0.0217
      7 C           4.9880   -1.7750    0.0000 C.ar    1  LIG1       -0.0043
      8 C           5.5670   -2.5790    0.0000 C.ar    1  LIG1       -0.0003
      9 C           5.1330   -3.4880    0.0000 C.ar    1  LIG1       -0.0000
     10 C           4.1540   -3.5460    0.0000 C.ar    1  LIG1       -0.0003
     11 C           3.5710   -2.7290    0.0000 C.ar    1  LIG1       -0.0043
     12 C           0.2500    0.4830    0.0000 C.3     1  LIG1        0.1148
     13 C          -0.7170    0.4830    0.0000 C.3     1  LIG1        0.1148
     14 N          -1.3710   -0.3500    0.0000 N.am    1  LIG1       -0.2777
     15 C          -2.3630   -0.2330    0.0000 C.2     1  LIG1        0.2260
     16 O          -2.9630   -1.0460    0.0000 O.2     1  LIG1       -0.2749
     17 C          -2.7540    0.6630    0.0000 C.3     1  LIG1        0.0899
     18 C          -3.7670    0.7670    0.0000 C.3     1  LIG1        0.0359
     19 C          -4.1540    1.7080    0.0000 C.ar    1  LIG1       -0.0217
     20 C          -5.1500    1.8250    0.0000 C.ar    1  LIG1       -0.0043
     21 C          -5.5710    2.7500    0.0000 C.ar    1  LIG1       -0.0003
     22 C          -4.9580    3.5500    0.0000 C.ar    1  LIG1       -0.0000
     23 C          -3.9750    3.4210    0.0000 C.ar    1  LIG1       -0.0003
     24 C          -3.5750    2.5040    0.0000 C.ar    1  LIG1       -0.0043
     25 C          -1.1380   -1.3000    0.0000 C.3     1  LIG1        0.0952
     26 C          -0.2540   -1.7460    0.0000 C.3     1  LIG1        0.0430
     27 C           0.6670   -1.2790    0.0000 C.3     1  LIG1        0.0952
@<TRIPOS>BOND
     1     1     2   am
     2     1    12    1
     3     1    27    1
     4     2     3    2
     5     2     4    1
     6     4     5    1
     7     5     6    1
     8     6     7   ar
     9     6    11   ar
    10     7     8   ar
    11     8     9   ar
    12     9    10   ar
    13    10    11   ar
    14    12    13    1
    15    13    14    1
    16    14    15   am
    17    14    25    1
    18    15    16    2
    19    15    17    1
    20    17    18    1
    21    18    19    1
    22    19    20   ar
    23    19    24   ar
    24    20    21   ar
    25    21    22   ar
    26    22    23   ar
    27    23    24   ar
    28    25    26    1
    29    26    27    1
