@<TRIPOS>MOLECULE
32445_ChemDiv_8008-1160
 26 29 0 0 0
SMALL
GASTEIGER
Energy = 0

@<TRIPOS>ATOM
      1 C          -1.9460    0.0000    0.0000 C.3     1  LIG1        0.1493
      2 C          -2.4540   -0.8580    0.0000 C.ar    1  LIG1        0.0268
      3 C          -3.4330   -0.8580    0.0000 C.ar    1  LIG1        0.1421
      4 O          -3.9420    0.0000    0.0000 O.3     1  LIG1       -0.4541
      5 C          -3.4330    0.8630    0.0000 C.ar    1  LIG1        0.1421
      6 C          -2.4540    0.8630    0.0000 C.ar    1  LIG1        0.0268
      7 C          -1.9460    1.7380    0.0000 C.ar    1  LIG1       -0.0004
      8 C          -2.4540    2.6290    0.0000 C.ar    1  LIG1       -0.0001
      9 C          -3.4330    2.6290    0.0000 C.ar    1  LIG1        0.0031
     10 C          -3.9420    1.7380    0.0000 C.ar    1  LIG1        0.0372
     11 C          -3.9420   -1.7330    0.0000 C.ar    1  LIG1        0.0372
     12 C          -3.4330   -2.6250    0.0000 C.ar    1  LIG1        0.0031
     13 C          -2.4540   -2.6250    0.0000 C.ar    1  LIG1       -0.0001
     14 C          -1.9460   -1.7330    0.0000 C.ar    1  LIG1       -0.0004
     15 C          -0.9540    0.0000    0.0000 C.2     1  LIG1        0.3254
     16 O          -0.5250    0.8790    0.0000 O.3     1  LIG1       -0.4395
     17 C           0.4920    0.8790    0.0000 C.3     1  LIG1        0.2766
     18 C           0.9830   -0.0130    0.0000 C.2     1  LIG1        0.2170
     19 O           0.4920   -0.8920    0.0000 O.2     1  LIG1       -0.2874
     20 C           1.9790   -0.0130    0.0000 C.ar    1  LIG1        0.0385
     21 C           2.4830    0.8330    0.0000 C.ar    1  LIG1        0.0030
     22 C           3.4710    0.8330    0.0000 C.ar    1  LIG1        0.0001
     23 C           3.9380   -0.0130    0.0000 C.ar    1  LIG1        0.0000
     24 C           3.4460   -0.9000    0.0000 C.ar    1  LIG1        0.0001
     25 C           2.4830   -0.9000    0.0000 C.ar    1  LIG1        0.0030
     26 O          -0.4790   -0.8750    0.0000 O.2     1  LIG1       -0.2494
@<TRIPOS>BOND
     1     1     2    1
     2     1     6    1
     3     1    15    1
     4     2     3   ar
     5     2    14   ar
     6     3     4    1
     7     3    11   ar
     8     4     5    1
     9     5     6   ar
    10     5    10   ar
    11     6     7   ar
    12     7     8   ar
    13     8     9   ar
    14     9    10   ar
    15    11    12   ar
    16    12    13   ar
    17    13    14   ar
    18    15    16    1
    19    15    26    2
    20    16    17    1
    21    17    18    1
    22    18    19    2
    23    18    20    1
    24    20    21   ar
    25    20    25   ar
    26    21    22   ar
    27    22    23   ar
    28    23    24   ar
    29    24    25   ar
