@<TRIPOS>MOLECULE
32443_ChemDiv_6049-2000
 23 26 0 0 0
SMALL
GASTEIGER
Energy = 0

@<TRIPOS>ATOM
      1 C          -1.2170    0.4880    0.0000 C.3     1  LIG1        0.1493
      2 C          -2.0960    1.0080    0.0000 C.ar    1  LIG1        0.0268
      3 C          -2.9540    0.4960    0.0000 C.ar    1  LIG1        0.1421
      4 O          -2.9750   -0.4830    0.0000 O.3     1  LIG1       -0.4541
      5 C          -2.1080   -0.9830    0.0000 C.ar    1  LIG1        0.1421
      6 C          -1.2170   -0.5080    0.0000 C.ar    1  LIG1        0.0268
      7 C          -0.3710   -1.0040    0.0000 C.ar    1  LIG1       -0.0004
      8 C          -0.3580   -1.9920    0.0000 C.ar    1  LIG1       -0.0001
      9 C          -1.2580   -2.5130    0.0000 C.ar    1  LIG1        0.0031
     10 C          -2.1080   -1.9920    0.0000 C.ar    1  LIG1        0.0372
     11 C          -3.8420    1.0170    0.0000 C.ar    1  LIG1        0.0372
     12 C          -3.8210    2.0210    0.0000 C.ar    1  LIG1        0.0031
     13 C          -2.9330    2.5170    0.0000 C.ar    1  LIG1       -0.0001
     14 C          -2.0750    2.0040    0.0000 C.ar    1  LIG1       -0.0004
     15 C          -0.3500    0.9880    0.0000 C.2     1  LIG1        0.3254
     16 O           0.5000    0.4710    0.0000 O.3     1  LIG1       -0.4396
     17 C           1.3830    0.9540    0.0000 C.3     1  LIG1        0.2720
     18 C           2.2460    0.4580    0.0000 C.ar    1  LIG1        0.1671
     19 O           2.4580   -0.5170    0.0000 O.2     1  LIG1       -0.4509
     20 C           3.4330   -0.6250    0.0000 C.ar    1  LIG1        0.1793
     21 C           3.8380    0.2670    0.0000 C.ar    1  LIG1        0.0436
     22 C           3.1170    0.9330    0.0000 C.ar    1  LIG1        0.0400
     23 O          -0.3500    1.9960    0.0000 O.2     1  LIG1       -0.2494
@<TRIPOS>BOND
     1     1     2    1
     2     1     6    1
     3     1    15    1
     4     2     3   ar
     5     2    14   ar
     6     3     4    1
     7     3    11   ar
     8     4     5    1
     9     5     6   ar
    10     5    10   ar
    11     6     7   ar
    12     7     8   ar
    13     8     9   ar
    14     9    10   ar
    15    11    12   ar
    16    12    13   ar
    17    13    14   ar
    18    15    16    1
    19    15    23    2
    20    16    17    1
    21    17    18    1
    22    18    19   ar
    23    18    22   ar
    24    19    20   ar
    25    20    21   ar
    26    21    22   ar
