@<TRIPOS>MOLECULE
32444_ChemDiv_6125-0033
 24 26 0 0 0
SMALL
GASTEIGER
Energy = 0

@<TRIPOS>ATOM
      1 C          -0.5040   -0.0130    0.0000 C.ar    1  LIG1        0.2049
      2 C          -0.9920   -0.8790    0.0000 C.ar    1  LIG1        0.2241
      3 N          -1.9920   -0.8790    0.0000 N.ar    1  LIG1       -0.1872
      4 N          -2.2960   -1.8330    0.0000 N.ar    1  LIG1       -0.0384
      5 N          -1.4880   -2.4130    0.0000 N.ar    1  LIG1       -0.0222
      6 N          -0.6830   -1.8290    0.0000 N.ar    1  LIG1       -0.1045
      7 C          -2.5080   -0.0250    0.0000 C.ar    1  LIG1        0.1038
      8 C          -2.0080    0.8500    0.0000 C.ar    1  LIG1        0.1008
      9 N          -1.0170    0.8580    0.0000 N.ar    1  LIG1       -0.2223
     10 C          -2.5080    1.7170    0.0000 C.ar    1  LIG1        0.0207
     11 C          -3.5080    1.7080    0.0000 C.ar    1  LIG1        0.0016
     12 C          -4.0040    0.8380    0.0000 C.ar    1  LIG1        0.0016
     13 C          -3.5040   -0.0290    0.0000 C.ar    1  LIG1        0.0208
     14 N           0.4960    0.0000    0.0000 N.2     1  LIG1       -0.1676
     15 P           1.4960    0.0000    0.0000 P.3     1  LIG1        0.3672
     16 O           2.5000    0.0000    0.0000 O.3     1  LIG1       -0.2884
     17 C           3.0000    0.8670    0.0000 C.3     1  LIG1        0.1521
     18 C           4.0000    0.8670    0.0000 C.3     1  LIG1        0.0352
     19 O           1.4880   -1.0000    0.0000 O.3     1  LIG1       -0.2884
     20 C           2.3540   -1.5000    0.0000 C.3     1  LIG1        0.1521
     21 C           2.3460   -2.5000    0.0000 C.3     1  LIG1        0.0352
     22 O           1.4880    1.0040    0.0000 O.3     1  LIG1       -0.2884
     23 C           0.6210    1.5040    0.0000 C.3     1  LIG1        0.1521
     24 C           0.6170    2.5040    0.0000 C.3     1  LIG1        0.0352
@<TRIPOS>BOND
     1     1     2   ar
     2     1     9   ar
     3     1    14    1
     4     2     3   ar
     5     2     6   ar
     6     3     4   ar
     7     3     7   ar
     8     4     5   ar
     9     5     6   ar
    10     7     8   ar
    11     7    13   ar
    12     8     9   ar
    13     8    10   ar
    14    10    11   ar
    15    11    12   ar
    16    12    13   ar
    17    14    15    2
    18    15    16    1
    19    15    19    1
    20    15    22    1
    21    16    17    1
    22    17    18    1
    23    19    20    1
    24    20    21    1
    25    22    23    1
    26    23    24    1
