@<TRIPOS>MOLECULE
32446_ChemDiv_6131-0105
 30 35 0 0 0
SMALL
GASTEIGER
Energy = 0

@<TRIPOS>ATOM
      1 C          -1.6210    0.2080    0.0000 C.ar    1  LIG1        0.1118
      2 C          -1.6210    1.2330    0.0000 C.ar    1  LIG1        0.0418
      3 C           0.0330    1.2330    0.0000 C.ar    1  LIG1        0.0929
      4 C           0.0330    0.2080    0.0000 C.ar    1  LIG1        0.0721
      5 S          -0.7960   -0.2750    0.0000 S.2     1  LIG1       -0.0644
      6 C           0.9250   -0.2750    0.0000 C.ar    1  LIG1        0.1162
      7 N           1.7540    0.2080    0.0000 N.ar    1  LIG1       -0.2171
      8 C           1.7540    1.2330    0.0000 C.ar    1  LIG1        0.1993
      9 N           0.9250    1.7210    0.0000 N.ar    1  LIG1       -0.2233
     10 S           0.9250   -1.2380    0.0000 S.3     1  LIG1       -0.0895
     11 C           1.7540   -1.7170    0.0000 C.3     1  LIG1        0.0900
     12 C           2.5790   -1.2380    0.0000 C.ar    1  LIG1       -0.0077
     13 C           3.4040   -1.7170    0.0000 C.ar    1  LIG1        0.0368
     14 C           4.3000   -1.2380    0.0000 C.ar    1  LIG1        0.1761
     15 C           4.3000   -0.2750    0.0000 C.ar    1  LIG1        0.1764
     16 O           5.1960    0.0710    0.0000 O.3     1  LIG1       -0.4346
     17 C           5.8130   -0.7540    0.0000 C.3     1  LIG1        0.4294
     18 O           5.1960   -1.5130    0.0000 O.3     1  LIG1       -0.4346
     19 C           3.4040    0.2080    0.0000 C.ar    1  LIG1        0.0399
     20 C           2.5790   -0.2750    0.0000 C.ar    1  LIG1       -0.0001
     21 C          -2.4460    1.7210    0.0000 C.ar    1  LIG1        0.0029
     22 C          -3.3420    1.2330    0.0000 C.ar    1  LIG1        0.0210
     23 C          -3.3420    0.2080    0.0000 C.ar    1  LIG1        0.0602
     24 N          -2.4460   -0.2750    0.0000 N.ar    1  LIG1       -0.2433
     25 C          -4.1670   -0.2750    0.0000 C.3     1  LIG1        0.0727
     26 C          -4.9920    0.2080    0.0000 C.3     1  LIG1        0.0989
     27 O          -4.9920    1.2330    0.0000 O.3     1  LIG1       -0.3533
     28 C          -4.1670    1.7210    0.0000 C.3     1  LIG1        0.1696
     29 C          -5.8170    0.6920    0.0000 C.3     1  LIG1        0.0300
     30 C          -4.9920   -0.7540    0.0000 C.3     1  LIG1        0.0300
@<TRIPOS>BOND
     1     1     2   ar
     2     1     5   ar
     3     1    24   ar
     4     2     3   ar
     5     2    21   ar
     6     3     4   ar
     7     3     9   ar
     8     4     5   ar
     9     4     6   ar
    10     6     7   ar
    11     6    10    1
    12     7     8   ar
    13     8     9   ar
    14    10    11    1
    15    11    12    1
    16    12    13   ar
    17    12    20   ar
    18    13    14   ar
    19    14    15   ar
    20    14    18    1
    21    15    16    1
    22    15    19   ar
    23    16    17    1
    24    17    18    1
    25    19    20   ar
    26    21    22   ar
    27    22    23   ar
    28    22    28    1
    29    23    24   ar
    30    23    25    1
    31    25    26    1
    32    26    27    1
    33    26    29    1
    34    26    30    1
    35    27    28    1
