@<TRIPOS>MOLECULE
32457_ChemDiv_6013-1714
 25 27 0 0 0
SMALL
GASTEIGER
Energy = 0

@<TRIPOS>ATOM
      1 C          -1.5330   -0.4880    0.0000 C.ar    1  LIG1        0.1091
      2 C          -2.5290   -0.4880    0.0000 C.ar    1  LIG1        0.1278
      3 N          -2.8540   -1.4380    0.0000 N.ar    1  LIG1       -0.0772
      4 O          -2.0420   -2.0330    0.0000 O.2     1  LIG1       -0.3576
      5 C          -1.2290   -1.4380    0.0000 C.ar    1  LIG1        0.1592
      6 C          -0.2880   -1.7500    0.0000 C.3     1  LIG1        0.0755
      7 C          -3.1250    0.3170    0.0000 C.ar    1  LIG1        0.0316
      8 C          -4.1170    0.2210    0.0000 C.ar    1  LIG1        0.0592
      9 CL         -4.5210   -0.7040    0.0000 Cl      1  LIG1       -0.0822
     10 C          -4.6960    1.0170    0.0000 C.ar    1  LIG1        0.0114
     11 C          -4.3000    1.9290    0.0000 C.ar    1  LIG1        0.0009
     12 C          -3.3040    2.0380    0.0000 C.ar    1  LIG1        0.0001
     13 C          -2.7210    1.2330    0.0000 C.ar    1  LIG1        0.0024
     14 C          -0.5290   -0.0880    0.0000 C.2     1  LIG1        0.2750
     15 N           0.3130   -0.6380    0.0000 N.am    1  LIG1       -0.1491
     16 C           1.2290   -0.6420    0.0000 C.ar    1  LIG1        0.2048
     17 N           1.5290    0.3210    0.0000 N.ar    1  LIG1       -0.2058
     18 C           2.5250    0.3210    0.0000 C.ar    1  LIG1        0.1564
     19 N           2.8330   -0.6380    0.0000 N.ar    1  LIG1       -0.1913
     20 S           2.0380   -1.2170    0.0000 S.2     1  LIG1        0.0509
     21 C           3.1170    1.1170    0.0000 C.3     1  LIG1        0.1307
     22 C           4.1130    1.0170    0.0000 C.2     1  LIG1        0.1587
     23 O           4.6920    1.8210    0.0000 O.2     1  LIG1       -0.2956
     24 C           4.5080    0.1080    0.0000 C.3     1  LIG1        0.0727
     25 O          -0.2000    0.9080    0.0000 O.2     1  LIG1       -0.2678
@<TRIPOS>BOND
     1     1     2   ar
     2     1     5   ar
     3     1    14    1
     4     2     3   ar
     5     2     7    1
     6     3     4   ar
     7     4     5   ar
     8     5     6    1
     9     7     8   ar
    10     7    13   ar
    11     8     9    1
    12     8    10   ar
    13    10    11   ar
    14    11    12   ar
    15    12    13   ar
    16    14    15   am
    17    14    25    2
    18    15    16    1
    19    16    17   ar
    20    16    20   ar
    21    17    18   ar
    22    18    19   ar
    23    18    21    1
    24    19    20   ar
    25    21    22    1
    26    22    23    2
    27    22    24    1
