@<TRIPOS>MOLECULE
32455_ChemDiv_6000-1514
 17 17 0 0 0
SMALL
GASTEIGER
Energy = 0

@<TRIPOS>ATOM
      1 C           1.3460   -0.4170    0.0000 C.ar    1  LIG1        0.1193
      2 C           1.3630    0.5790    0.0000 C.ar    1  LIG1        0.1625
      3 N           2.3290    0.8670    0.0000 N.ar    1  LIG1       -0.3026
      4 C           2.8960    0.0330    0.0000 C.ar    1  LIG1        0.1284
      5 S           2.2880   -0.7540    0.0000 S.2     1  LIG1       -0.0552
      6 S           3.9040    0.0080    0.0000 S.2     1  LIG1       -0.0247
      7 C           2.6670    1.8040    0.0000 C.3     1  LIG1        0.1084
      8 C           3.6460    1.9880    0.0000 C.3     1  LIG1        0.0266
      9 N           0.5750    1.1830    0.0000 N.pl3   1  LIG1       -0.1082
     10 C           0.5170   -0.9830    0.0000 C.2     1  LIG1        0.2737
     11 O           0.5920   -1.9830    0.0000 O.2     1  LIG1       -0.2677
     12 N          -0.3920   -0.5540    0.0000 N.am    1  LIG1       -0.2011
     13 C          -1.2000   -1.1210    0.0000 C.3     1  LIG1        0.1181
     14 C          -2.0960   -0.6790    0.0000 C.3     1  LIG1        0.0555
     15 C          -2.9250   -1.2420    0.0000 C.3     1  LIG1        0.1441
     16 O          -3.8170   -0.8170    0.0000 O.3     1  LIG1       -0.3510
     17 C          -3.9080    0.1880    0.0000 C.3     1  LIG1        0.1741
@<TRIPOS>BOND
     1     1     2   ar
     2     1     5   ar
     3     1    10    1
     4     2     3   ar
     5     2     9    1
     6     3     4   ar
     7     3     7    1
     8     4     5   ar
     9     4     6    2
    10     7     8    1
    11    10    11    2
    12    10    12   am
    13    12    13    1
    14    13    14    1
    15    14    15    1
    16    15    16    1
    17    16    17    1
