@<TRIPOS>MOLECULE
32451_ChemDiv_5994-0105
 31 34 0 0 0
SMALL
GASTEIGER
Energy = 0

@<TRIPOS>ATOM
      1 C           0.4290   -0.2540    0.0000 C.ar    1  LIG1        0.0420
      2 C           1.2790   -0.7540    0.0000 C.ar    1  LIG1        0.2110
      3 C           2.1630   -0.2540    0.0000 C.ar    1  LIG1        0.1198
      4 N           3.0290   -0.7540    0.0000 N.ar    1  LIG1       -0.2406
      5 C           3.8920   -0.2540    0.0000 C.ar    1  LIG1        0.0989
      6 C           3.8920    0.7580    0.0000 C.ar    1  LIG1        0.0207
      7 C           3.0290    1.2460    0.0000 C.ar    1  LIG1        0.0032
      8 C           2.1630    0.7580    0.0000 C.ar    1  LIG1        0.0208
      9 C           1.2790    1.2460    0.0000 C.ar    1  LIG1        0.0014
     10 C           0.4290    0.7580    0.0000 C.ar    1  LIG1        0.0010
     11 O           1.2790   -1.7540    0.0000 O.3     1  LIG1       -0.2852
     12 C          -0.4330   -0.7540    0.0000 C.3     1  LIG1        0.1416
     13 C          -1.3000   -0.2540    0.0000 C.ar    1  LIG1        0.0048
     14 C          -1.3000    0.7420    0.0000 C.ar    1  LIG1        0.0378
     15 C          -2.1670    1.2420    0.0000 C.ar    1  LIG1        0.1720
     16 C          -3.0330    0.7420    0.0000 C.ar    1  LIG1        0.1724
     17 C          -3.0330   -0.2540    0.0000 C.ar    1  LIG1        0.0398
     18 C          -2.1670   -0.7540    0.0000 C.ar    1  LIG1        0.0010
     19 O          -3.8960    1.2460    0.0000 O.3     1  LIG1       -0.4684
     20 C          -3.8960    2.2460    0.0000 C.3     1  LIG1        0.2526
     21 O          -2.1670    2.2420    0.0000 O.3     1  LIG1       -0.4724
     22 C          -3.0330    2.7580    0.0000 C.3     1  LIG1        0.2057
     23 C          -3.0330    3.7540    0.0000 C.3     1  LIG1        0.0512
     24 N          -0.4330   -1.7540    0.0000 N.pl3   1  LIG1       -0.2129
     25 C          -1.3000   -2.2540    0.0000 C.ar    1  LIG1        0.1478
     26 N          -1.3000   -3.2330    0.0000 N.ar    1  LIG1       -0.2277
     27 C          -2.1670   -3.7500    0.0000 C.ar    1  LIG1        0.1000
     28 C          -3.0330   -3.2540    0.0000 C.ar    1  LIG1        0.0165
     29 C          -3.0330   -2.2540    0.0000 C.ar    1  LIG1       -0.0175
     30 C          -2.1670   -1.7540    0.0000 C.ar    1  LIG1        0.0316
     31 C          -3.8960   -1.7540    0.0000 C.3     1  LIG1        0.0312
@<TRIPOS>BOND
     1     1     2   ar
     2     1    10   ar
     3     1    12    1
     4     2     3   ar
     5     2    11    1
     6     3     4   ar
     7     3     8   ar
     8     4     5   ar
     9     5     6   ar
    10     6     7   ar
    11     7     8   ar
    12     8     9   ar
    13     9    10   ar
    14    12    13    1
    15    12    24    1
    16    13    14   ar
    17    13    18   ar
    18    14    15   ar
    19    15    16   ar
    20    15    21    1
    21    16    17   ar
    22    16    19    1
    23    17    18   ar
    24    19    20    1
    25    21    22    1
    26    22    23    1
    27    24    25    1
    28    25    26   ar
    29    25    30   ar
    30    26    27   ar
    31    27    28   ar
    32    28    29   ar
    33    29    30   ar
    34    29    31    1
