@<TRIPOS>MOLECULE
32453_ChemDiv_5999-6938
 26 29 0 0 0
SMALL
GASTEIGER
Energy = 0

@<TRIPOS>ATOM
      1 S          -1.9000    1.9580    0.0000 S.O2    1  LIG1        0.0634
      2 N          -2.3630    2.8330    0.0000 N.3     1  LIG1       -0.1504
      3 C          -1.8290    3.6880    0.0000 C.3     1  LIG1        0.1279
      4 C          -2.2960    4.5670    0.0000 C.3     1  LIG1        0.1613
      5 O          -3.2790    4.6130    0.0000 O.3     1  LIG1       -0.3507
      6 C          -3.8250    3.7580    0.0000 C.3     1  LIG1        0.1613
      7 C          -3.3540    2.8750    0.0000 C.3     1  LIG1        0.1279
      8 C          -1.4250    1.0750    0.0000 C.ar    1  LIG1        0.1222
      9 C          -0.4330    1.0290    0.0000 C.ar    1  LIG1        0.0200
     10 C           0.0250    0.1500    0.0000 C.ar    1  LIG1        0.0029
     11 C          -0.5130   -0.6960    0.0000 C.ar    1  LIG1        0.0183
     12 C          -0.0420   -1.5790    0.0000 C.ar    1  LIG1        0.0883
     13 N           0.9380   -1.7170    0.0000 N.ar    1  LIG1       -0.2383
     14 C           1.1210   -2.7170    0.0000 C.ar    1  LIG1        0.1122
     15 S           0.2210   -3.1830    0.0000 S.2     1  LIG1       -0.0659
     16 C          -0.4830   -2.4750    0.0000 C.ar    1  LIG1        0.0560
     17 C           2.0170   -3.1630    0.0000 C.ar    1  LIG1        0.0430
     18 C           2.0920   -4.1580    0.0000 C.ar    1  LIG1        0.1008
     19 N           2.9830   -4.6130    0.0000 N.ar    1  LIG1       -0.2423
     20 C           3.8210   -4.0500    0.0000 C.ar    1  LIG1        0.0989
     21 C           3.7460   -3.0380    0.0000 C.ar    1  LIG1        0.0207
     22 C           2.8460   -2.6130    0.0000 C.ar    1  LIG1        0.0052
     23 C          -1.5080   -0.6580    0.0000 C.ar    1  LIG1        0.0029
     24 C          -1.9750    0.2210    0.0000 C.ar    1  LIG1        0.0200
     25 O          -2.7670    1.4920    0.0000 O.2     1  LIG1       -0.1528
     26 O          -1.0130    2.4170    0.0000 O.2     1  LIG1       -0.1528
@<TRIPOS>BOND
     1     1     2    1
     2     1     8    1
     3     1    25    2
     4     1    26    2
     5     2     3    1
     6     2     7    1
     7     3     4    1
     8     4     5    1
     9     5     6    1
    10     6     7    1
    11     8     9   ar
    12     8    24   ar
    13     9    10   ar
    14    10    11   ar
    15    11    12    1
    16    11    23   ar
    17    12    13   ar
    18    12    16   ar
    19    13    14   ar
    20    14    15   ar
    21    14    17    1
    22    15    16   ar
    23    17    18   ar
    24    17    22   ar
    25    18    19   ar
    26    19    20   ar
    27    20    21   ar
    28    21    22   ar
    29    23    24   ar
