@<TRIPOS>MOLECULE
32459_ChemDiv_6015-0013
 15 17 0 0 0
SMALL
GASTEIGER
Energy = 0

@<TRIPOS>ATOM
      1 C          -0.7330   -0.5540    0.0000 C.3     1  LIG1        0.1527
      2 C          -0.7330    0.4960    0.0000 C.2     1  LIG1        0.2012
      3 C          -1.6580    1.0630    0.0000 C.3     1  LIG1        0.0753
      4 C          -1.9330    0.1630    0.0000 C.3     1  LIG1        0.0705
      5 C          -1.2710   -0.2130    0.0000 C.3     1  LIG1        0.1393
      6 N          -1.6420   -1.0580    0.0000 N.4     1  LIG1        0.3786
      7 C          -2.5710   -0.5210    0.0000 C.3     1  LIG1        0.1393
      8 C          -2.5790    0.5170    0.0000 C.3     1  LIG1        0.0705
      9 O           0.1420    0.9580    0.0000 O.2     1  LIG1       -0.2901
     10 C           0.1170   -1.0580    0.0000 C.3     1  LIG1        0.1289
     11 C           0.9790   -0.5750    0.0000 C.ar    1  LIG1        0.1293
     12 O           1.9420   -0.9540    0.0000 O.2     1  LIG1       -0.4544
     13 C           2.5750   -0.1330    0.0000 C.ar    1  LIG1        0.1791
     14 C           2.0000    0.6880    0.0000 C.ar    1  LIG1        0.0434
     15 C           1.0290    0.3790    0.0000 C.ar    1  LIG1        0.0364
@<TRIPOS>BOND
     1     1     2    1
     2     1     6    1
     3     1    10    1
     4     2     3    1
     5     2     9    2
     6     3     4    1
     7     3     8    1
     8     4     5    1
     9     5     6    1
    10     6     7    1
    11     7     8    1
    12    10    11    1
    13    11    12   ar
    14    11    15   ar
    15    12    13   ar
    16    13    14   ar
    17    14    15   ar
