@<TRIPOS>MOLECULE
32469_ChemDiv_6612-0274
 21 23 0 0 0
SMALL
GASTEIGER
Energy = 0

@<TRIPOS>ATOM
      1 C          -0.8630    0.7460    0.0000 C.3     1  LIG1        0.0310
      2 C          -0.0130    1.2330    0.0000 C.3     1  LIG1        0.0877
      3 C          -0.0130    2.2210    0.0000 C.3     1  LIG1        0.0495
      4 C          -0.8630    2.7170    0.0000 C.3     1  LIG1        0.0277
      5 C          -1.7130    2.2210    0.0000 C.2     1  LIG1       -0.0306
      6 C          -1.7130    1.2330    0.0000 C.2     1  LIG1       -0.0305
      7 C          -0.3170    1.7630    0.0000 C.3     1  LIG1        0.0095
      8 C           0.8500    2.7210    0.0000 C.2     1  LIG1        0.0508
      9 O           0.8500    3.7130    0.0000 O.co2   1  LIG1       -0.5492
     10 O           1.7080    2.2290    0.0000 O.co2   1  LIG1       -0.5492
     11 C           0.8500    0.7380    0.0000 C.2     1  LIG1        0.2416
     12 O           1.7000    1.2330    0.0000 O.2     1  LIG1       -0.2733
     13 N           0.8500   -0.2500    0.0000 N.am    1  LIG1       -0.2051
     14 C           1.7080   -0.7420    0.0000 C.3     1  LIG1        0.1198
     15 C           1.7080   -1.7330    0.0000 C.3     1  LIG1        0.0499
     16 C           0.8500   -2.2250    0.0000 C.ar    1  LIG1       -0.0173
     17 C           0.0000   -1.7330    0.0000 C.ar    1  LIG1        0.0165
     18 C          -0.8630   -2.2290    0.0000 C.ar    1  LIG1        0.0986
     19 N          -0.8500   -3.2170    0.0000 N.ar    1  LIG1       -0.2423
     20 C           0.0000   -3.7080    0.0000 C.ar    1  LIG1        0.0986
     21 C           0.8500   -3.2170    0.0000 C.ar    1  LIG1        0.0165
@<TRIPOS>BOND
     1     1     2    1
     2     1     6    1
     3     1     7    1
     4     2     3    1
     5     2    11    1
     6     3     4    1
     7     3     8    1
     8     4     5    1
     9     4     7    1
    10     5     6    2
    11     8     9   ar
    12     8    10   ar
    13    11    12    2
    14    11    13   am
    15    13    14    1
    16    14    15    1
    17    15    16    1
    18    16    17   ar
    19    16    21   ar
    20    17    18   ar
    21    18    19   ar
    22    19    20   ar
    23    20    21   ar
