@<TRIPOS>MOLECULE
32461_ChemDiv_6015-0018
 23 26 0 0 0
SMALL
GASTEIGER
Energy = 0

@<TRIPOS>ATOM
      1 N          -0.2040    1.0420    0.0000 N.am    1  LIG1       -0.2534
      2 C          -0.9580    0.4380    0.0000 C.3     1  LIG1        0.1326
      3 C          -0.9580   -0.6170    0.0000 C.3     1  LIG1        0.1261
      4 C          -0.1040   -1.1880    0.0000 C.3     1  LIG1        0.1563
      5 N           0.8130   -1.0170    0.0000 N.am    1  LIG1       -0.2515
      6 C           1.2670   -0.0960    0.0000 C.ar    1  LIG1        0.0677
      7 C           0.8130    0.8080    0.0000 C.ar    1  LIG1        0.0677
      8 C           1.3420    1.6500    0.0000 C.ar    1  LIG1        0.0162
      9 C           2.3330    1.6040    0.0000 C.ar    1  LIG1        0.0014
     10 C           2.8000    0.7000    0.0000 C.ar    1  LIG1        0.0014
     11 C           2.2670   -0.1330    0.0000 C.ar    1  LIG1        0.0162
     12 C           1.3130   -1.8710    0.0000 C.2     1  LIG1        0.2300
     13 O           2.3460   -1.9710    0.0000 O.2     1  LIG1       -0.2745
     14 C           0.7420   -2.6750    0.0000 C.3     1  LIG1        0.0952
     15 N          -1.8710   -1.1210    0.0000 N.4     1  LIG1        0.3755
     16 C          -1.4960   -0.2670    0.0000 C.3     1  LIG1        0.1385
     17 C          -2.1630    0.1080    0.0000 C.3     1  LIG1        0.0648
     18 C          -1.8830    1.0000    0.0000 C.3     1  LIG1        0.0362
     19 C          -2.8040    0.4580    0.0000 C.3     1  LIG1        0.0648
     20 C          -2.8000   -0.5710    0.0000 C.3     1  LIG1        0.1385
     21 C          -0.4750    1.9920    0.0000 C.2     1  LIG1        0.2300
     22 O          -1.4580    2.3460    0.0000 O.2     1  LIG1       -0.2745
     23 C           0.1960    2.6790    0.0000 C.3     1  LIG1        0.0952
@<TRIPOS>BOND
     1     1     2    1
     2     1     7    1
     3     1    21   am
     4     2     3    1
     5     2    18    1
     6     3     4    1
     7     3    15    1
     8     4     5    1
     9     5     6    1
    10     5    12   am
    11     6     7   ar
    12     6    11   ar
    13     7     8   ar
    14     8     9   ar
    15     9    10   ar
    16    10    11   ar
    17    12    13    2
    18    12    14    1
    19    15    16    1
    20    15    20    1
    21    16    17    1
    22    17    18    1
    23    18    19    1
    24    19    20    1
    25    21    22    2
    26    21    23    1
