@<TRIPOS>MOLECULE
32468_ChemDiv_6143-0196
 20 22 0 0 0
SMALL
GASTEIGER
Energy = 0

@<TRIPOS>ATOM
      1 C          -3.3000    0.7500    0.0000 C.ar    1  LIG1        0.3786
      2 S          -2.7080   -0.0500    0.0000 S.2     1  LIG1       -0.0032
      3 C          -1.7580    0.2500    0.0000 C.ar    1  LIG1        0.0731
      4 C          -1.7670    1.2500    0.0000 C.ar    1  LIG1        0.1555
      5 O          -2.7170    1.5540    0.0000 O.2     1  LIG1       -0.4159
      6 C          -0.9000    1.7540    0.0000 C.ar    1  LIG1        0.0413
      7 C          -0.0250    1.2540    0.0000 C.ar    1  LIG1        0.0408
      8 C          -0.0250    0.2500    0.0000 C.ar    1  LIG1        0.1495
      9 O           0.8420   -0.2500    0.0000 O.3     1  LIG1       -0.4210
     10 C           1.7080    0.2500    0.0000 C.2     1  LIG1        0.3465
     11 C           2.5750   -0.2500    0.0000 C.ar    1  LIG1        0.0866
     12 C           3.4290    0.2540    0.0000 C.ar    1  LIG1        0.0639
     13 CL          3.4290    1.2540    0.0000 Cl      1  LIG1       -0.0820
     14 C           4.2960   -0.2460    0.0000 C.ar    1  LIG1        0.0116
     15 C           4.2960   -1.2460    0.0000 C.ar    1  LIG1        0.0009
     16 C           3.4290   -1.7500    0.0000 C.ar    1  LIG1        0.0003
     17 C           2.5630   -1.2500    0.0000 C.ar    1  LIG1        0.0073
     18 O           1.7080    1.2500    0.0000 O.2     1  LIG1       -0.2445
     19 C          -0.9000   -0.2500    0.0000 C.ar    1  LIG1        0.0473
     20 O          -4.3000    0.7380    0.0000 O.2     1  LIG1       -0.2366
@<TRIPOS>BOND
     1     1     2   ar
     2     1     5   ar
     3     1    20    2
     4     2     3   ar
     5     3     4   ar
     6     3    19   ar
     7     4     5   ar
     8     4     6   ar
     9     6     7   ar
    10     7     8   ar
    11     8     9    1
    12     8    19   ar
    13     9    10    1
    14    10    11    1
    15    10    18    2
    16    11    12   ar
    17    11    17   ar
    18    12    13    1
    19    12    14   ar
    20    14    15   ar
    21    15    16   ar
    22    16    17   ar
