@<TRIPOS>MOLECULE
32463_ChemDiv_6016-3032
 31 34 0 0 0
SMALL
GASTEIGER
Energy = 0

@<TRIPOS>ATOM
      1 N          -0.8580   -2.2130    0.0000 N.ar    1  LIG1       -0.1668
      2 N          -0.8580   -3.2580    0.0000 N.ar    1  LIG1       -0.2146
      3 C          -1.7250   -3.7580    0.0000 C.ar    1  LIG1        0.2764
      4 C          -2.5750   -3.2580    0.0000 C.ar    1  LIG1        0.0591
      5 C          -2.5750   -2.2580    0.0000 C.ar    1  LIG1        0.0240
      6 C          -1.7250   -1.7580    0.0000 C.ar    1  LIG1        0.1011
      7 C          -1.7250   -0.7500    0.0000 C.ar    1  LIG1        0.0191
      8 C          -0.8580   -0.2880    0.0000 C.ar    1  LIG1       -0.0016
      9 C          -0.8580    0.7500    0.0000 C.ar    1  LIG1       -0.0068
     10 C           0.0000    1.2540    0.0000 C.3     1  LIG1        0.1415
     11 N           0.0000    2.2630    0.0000 N.3     1  LIG1       -0.0730
     12 S           0.8630    2.7540    0.0000 S.O2    1  LIG1        0.0771
     13 C           1.7210    3.2540    0.0000 C.ar    1  LIG1        0.1236
     14 C           2.5710    2.7540    0.0000 C.ar    1  LIG1        0.0208
     15 C           3.4380    3.2540    0.0000 C.ar    1  LIG1        0.0128
     16 C           3.4380    4.2580    0.0000 C.ar    1  LIG1        0.0578
     17 C           2.5710    4.7630    0.0000 C.ar    1  LIG1        0.0128
     18 C           1.7210    4.2580    0.0000 C.ar    1  LIG1        0.0208
     19 CL          4.2960    4.7630    0.0000 Cl      1  LIG1       -0.0822
     20 O           1.3630    1.9040    0.0000 O.2     1  LIG1       -0.1516
     21 O           0.3540    3.6250    0.0000 O.2     1  LIG1       -0.1516
     22 C          -1.7250    1.2540    0.0000 C.ar    1  LIG1       -0.0244
     23 C          -2.5750    0.7500    0.0000 C.ar    1  LIG1       -0.0045
     24 C          -2.5750   -0.2460    0.0000 C.ar    1  LIG1        0.0012
     25 C          -1.7250    2.2630    0.0000 C.3     1  LIG1        0.0307
     26 C          -3.4330   -1.7580    0.0000 C.ar    1  LIG1        0.0017
     27 C          -4.3000   -2.2130    0.0000 C.ar    1  LIG1        0.0001
     28 C          -4.3000   -3.2580    0.0000 C.ar    1  LIG1        0.0002
     29 C          -3.4330   -3.7580    0.0000 C.ar    1  LIG1        0.0048
     30 O          -1.7250   -4.7630    0.0000 O.2     1  LIG1       -0.2655
     31 C           0.0000   -3.7960    0.0000 C.3     1  LIG1        0.1571
@<TRIPOS>BOND
     1     1     2   ar
     2     1     6   ar
     3     2     3   ar
     4     2    31    1
     5     3     4   ar
     6     3    30    2
     7     4     5   ar
     8     4    29   ar
     9     5     6   ar
    10     5    26   ar
    11     6     7    1
    12     7     8   ar
    13     7    24   ar
    14     8     9   ar
    15     9    10    1
    16     9    22   ar
    17    10    11    1
    18    11    12    1
    19    12    13    1
    20    12    20    2
    21    12    21    2
    22    13    14   ar
    23    13    18   ar
    24    14    15   ar
    25    15    16   ar
    26    16    17   ar
    27    16    19    1
    28    17    18   ar
    29    22    23   ar
    30    22    25    1
    31    23    24   ar
    32    26    27   ar
    33    27    28   ar
    34    28    29   ar
