@<TRIPOS>MOLECULE
32467_ChemDiv_6049-2213
 27 30 0 0 0
SMALL
GASTEIGER
Energy = 0

@<TRIPOS>ATOM
      1 C           2.7790    0.4540    0.0000 C.3     1  LIG1        0.0862
      2 C           2.2790    1.2920    0.0000 C.2     1  LIG1        0.2262
      3 N           1.3000    1.2920    0.0000 N.am    1  LIG1       -0.2681
      4 C           0.8040    0.4460    0.0000 C.3     1  LIG1        0.1565
      5 C          -0.1920    0.4080    0.0000 C.3     1  LIG1        0.1610
      6 N          -0.7000    1.2920    0.0000 N.4     1  LIG1        0.3834
      7 C          -0.2130    2.1460    0.0000 C.3     1  LIG1        0.1610
      8 C           0.7920    2.1540    0.0000 C.3     1  LIG1        0.1565
      9 C          -1.7670    1.2920    0.0000 C.3     1  LIG1        0.1662
     10 C          -2.2540    0.4080    0.0000 C.2     1  LIG1        0.0359
     11 C          -3.2460    0.4080    0.0000 C.2     1  LIG1        0.0013
     12 C          -3.7330   -0.4460    0.0000 C.ar    1  LIG1       -0.0001
     13 C          -4.7250   -0.4460    0.0000 C.ar    1  LIG1       -0.0000
     14 C          -5.2330   -1.3290    0.0000 C.ar    1  LIG1       -0.0000
     15 C          -4.7250   -2.1960    0.0000 C.ar    1  LIG1       -0.0000
     16 C          -3.7330   -2.1790    0.0000 C.ar    1  LIG1       -0.0000
     17 C          -3.2460   -1.3290    0.0000 C.ar    1  LIG1       -0.0000
     18 O           2.7540    2.1460    0.0000 O.2     1  LIG1       -0.2749
     19 C           2.3040   -0.3750    0.0000 C.3     1  LIG1        0.0310
     20 C           2.7960   -1.2330    0.0000 C.2     1  LIG1       -0.0305
     21 C           3.7540   -1.2080    0.0000 C.2     1  LIG1       -0.0306
     22 C           4.2380   -0.3580    0.0000 C.3     1  LIG1        0.0277
     23 C           3.7540    0.4540    0.0000 C.3     1  LIG1        0.0495
     24 C           4.2630    1.3080    0.0000 C.2     1  LIG1        0.0508
     25 O           3.7880    2.2000    0.0000 O.co2   1  LIG1       -0.5492
     26 O           5.2290    1.2000    0.0000 O.co2   1  LIG1       -0.5492
     27 C           3.3130   -0.9420    0.0000 C.3     1  LIG1        0.0095
@<TRIPOS>BOND
     1     1     2    1
     2     1    19    1
     3     1    23    1
     4     2     3   am
     5     2    18    2
     6     3     4    1
     7     3     8    1
     8     4     5    1
     9     5     6    1
    10     6     7    1
    11     6     9    1
    12     7     8    1
    13     9    10    1
    14    10    11    2
    15    11    12    1
    16    12    13   ar
    17    12    17   ar
    18    13    14   ar
    19    14    15   ar
    20    15    16   ar
    21    16    17   ar
    22    19    20    1
    23    19    27    1
    24    20    21    2
    25    21    22    1
    26    22    23    1
    27    22    27    1
    28    23    24    1
    29    24    25   ar
    30    24    26   ar
