@<TRIPOS>MOLECULE
32472_ChemDiv_7202-0072
 25 28 0 0 0
SMALL
GASTEIGER
Energy = 0

@<TRIPOS>ATOM
      1 S          -0.7880   -0.3790    0.0000 S.O2    1  LIG1       -0.0563
      2 C          -1.6500    0.1170    0.0000 C.ar    1  LIG1        0.1068
      3 C          -2.5130   -0.3920    0.0000 C.ar    1  LIG1        0.0969
      4 N          -2.5040   -1.3790    0.0000 N.ar    1  LIG1       -0.2426
      5 C          -3.3580   -1.8880    0.0000 C.ar    1  LIG1        0.0989
      6 C          -4.2290   -1.3960    0.0000 C.ar    1  LIG1        0.0207
      7 C          -4.2380   -0.4000    0.0000 C.ar    1  LIG1        0.0031
      8 C          -3.3750    0.1000    0.0000 C.ar    1  LIG1        0.0189
      9 C          -3.3830    1.1080    0.0000 C.ar    1  LIG1        0.0016
     10 C          -2.5210    1.6130    0.0000 C.ar    1  LIG1        0.0014
     11 C          -1.6500    1.1170    0.0000 C.ar    1  LIG1        0.0184
     12 N           0.0830   -0.8830    0.0000 N.pl3   1  LIG1       -0.5358
     13 C           0.9630   -0.3710    0.0000 C.ar    1  LIG1       -0.1122
     14 C           1.8330   -0.8710    0.0000 C.ar    1  LIG1       -0.0191
     15 C           2.6960   -0.3710    0.0000 C.ar    1  LIG1        0.0581
     16 C           3.6500   -0.6830    0.0000 C.2     1  LIG1        0.2716
     17 N           4.2330    0.1210    0.0000 N.am    1  LIG1       -0.1371
     18 C           3.6500    0.9380    0.0000 C.2     1  LIG1        0.2717
     19 C           2.6960    0.6290    0.0000 C.ar    1  LIG1        0.0598
     20 C           1.8330    1.1250    0.0000 C.ar    1  LIG1        0.0029
     21 C           0.9630    0.6290    0.0000 C.ar    1  LIG1       -0.0237
     22 O           3.9540    1.8920    0.0000 O.2     1  LIG1       -0.2679
     23 O           3.9540   -1.6330    0.0000 O.2     1  LIG1       -0.2679
     24 O          -0.2830    0.4880    0.0000 O.2     1  LIG1       -0.1841
     25 O          -1.2830   -1.2540    0.0000 O.2     1  LIG1       -0.1841
@<TRIPOS>BOND
     1     1     2    1
     2     1    12    1
     3     1    24    2
     4     1    25    2
     5     2     3   ar
     6     2    11   ar
     7     3     4   ar
     8     3     8   ar
     9     4     5   ar
    10     5     6   ar
    11     6     7   ar
    12     7     8   ar
    13     8     9   ar
    14     9    10   ar
    15    10    11   ar
    16    12    13    1
    17    13    14   ar
    18    13    21   ar
    19    14    15   ar
    20    15    16    1
    21    15    19   ar
    22    16    17   am
    23    16    23    2
    24    17    18   am
    25    18    19    1
    26    18    22    2
    27    19    20   ar
    28    20    21   ar
