@<TRIPOS>MOLECULE
32470_ChemDiv_6144-0587
 32 35 0 0 0
SMALL
GASTEIGER
Energy = 0

@<TRIPOS>ATOM
      1 S          -1.3000    1.0170    0.0000 S.O2    1  LIG1       -0.0563
      2 C          -2.1710    1.5330    0.0000 C.ar    1  LIG1        0.1068
      3 C          -3.0380    1.0330    0.0000 C.ar    1  LIG1        0.0969
      4 N          -3.0380    0.0330    0.0000 N.ar    1  LIG1       -0.2426
      5 C          -3.9000   -0.4630    0.0000 C.ar    1  LIG1        0.0989
      6 C          -4.7710    0.0330    0.0000 C.ar    1  LIG1        0.0207
      7 C          -4.7630    1.0380    0.0000 C.ar    1  LIG1        0.0031
      8 C          -3.9000    1.5330    0.0000 C.ar    1  LIG1        0.0189
      9 C          -3.9000    2.5290    0.0000 C.ar    1  LIG1        0.0016
     10 C          -3.0380    3.0250    0.0000 C.ar    1  LIG1        0.0014
     11 C          -2.1710    2.5290    0.0000 C.ar    1  LIG1        0.0184
     12 N          -0.4330    0.5080    0.0000 N.pl3   1  LIG1       -0.5358
     13 C           0.4460    1.0170    0.0000 C.ar    1  LIG1       -0.1123
     14 C           1.3040    0.5040    0.0000 C.ar    1  LIG1       -0.0237
     15 C           2.1790    1.0040    0.0000 C.ar    1  LIG1        0.0027
     16 C           2.1830    2.0000    0.0000 C.ar    1  LIG1        0.0553
     17 C           3.0540    2.5000    0.0000 C.2     1  LIG1        0.2690
     18 N           3.9170    2.0000    0.0000 N.am    1  LIG1       -0.1754
     19 C           3.9080    0.9920    0.0000 C.ar    1  LIG1        0.0739
     20 C           3.0460    0.5040    0.0000 C.ar    1  LIG1        0.0197
     21 C           3.0420   -0.4960    0.0000 C.ar    1  LIG1        0.0382
     22 C           3.9000   -0.9920    0.0000 C.ar    1  LIG1        0.1386
     23 C           4.7670   -0.4960    0.0000 C.ar    1  LIG1        0.0382
     24 C           4.7670    0.5040    0.0000 C.ar    1  LIG1        0.0197
     25 O           3.8920   -1.9920    0.0000 O.3     1  LIG1       -0.4755
     26 C           3.0290   -2.4920    0.0000 C.3     1  LIG1        0.2055
     27 C           3.0290   -3.4880    0.0000 C.3     1  LIG1        0.0512
     28 O           3.0540    3.4920    0.0000 O.2     1  LIG1       -0.2680
     29 C           1.3040    2.5040    0.0000 C.ar    1  LIG1        0.0027
     30 C           0.4460    2.0040    0.0000 C.ar    1  LIG1       -0.0237
     31 O          -1.8080    0.1460    0.0000 O.2     1  LIG1       -0.1841
     32 O          -0.7960    1.8960    0.0000 O.2     1  LIG1       -0.1841
@<TRIPOS>BOND
     1     1     2    1
     2     1    12    1
     3     1    31    2
     4     1    32    2
     5     2     3   ar
     6     2    11   ar
     7     3     4   ar
     8     3     8   ar
     9     4     5   ar
    10     5     6   ar
    11     6     7   ar
    12     7     8   ar
    13     8     9   ar
    14     9    10   ar
    15    10    11   ar
    16    12    13    1
    17    13    14   ar
    18    13    30   ar
    19    14    15   ar
    20    15    16   ar
    21    16    17    1
    22    16    29   ar
    23    17    18   am
    24    17    28    2
    25    18    19    1
    26    19    20   ar
    27    19    24   ar
    28    20    21   ar
    29    21    22   ar
    30    22    23   ar
    31    22    25    1
    32    23    24   ar
    33    25    26    1
    34    26    27    1
    35    29    30   ar
