@<TRIPOS>MOLECULE
32477_ChemDiv_6049-2341
 23 25 0 0 0
SMALL
GASTEIGER
Energy = 0

@<TRIPOS>ATOM
      1 C          -1.4540    0.7210    0.0000 C.ar    1  LIG1        0.1983
      2 C          -1.9460    1.5830    0.0000 C.2     1  LIG1        0.2838
      3 N          -2.9460    1.5830    0.0000 N.am    1  LIG1       -0.2718
      4 C          -3.4330    0.7130    0.0000 C.3     1  LIG1        0.1055
      5 C          -4.4290    0.7080    0.0000 C.3     1  LIG1        0.0791
      6 S          -4.9290    1.5750    0.0000 S.3     1  LIG1       -0.1366
      7 C          -4.4380    2.4420    0.0000 C.3     1  LIG1        0.0791
      8 C          -3.4330    2.4630    0.0000 C.3     1  LIG1        0.1055
      9 O          -1.4460    2.4500    0.0000 O.2     1  LIG1       -0.2666
     10 O          -0.4460    0.5750    0.0000 O.2     1  LIG1       -0.4494
     11 C          -0.2630   -0.4080    0.0000 C.ar    1  LIG1        0.1670
     12 C          -1.1380   -0.8670    0.0000 C.ar    1  LIG1        0.0401
     13 C          -1.8540   -0.1500    0.0000 C.ar    1  LIG1        0.0451
     14 C           0.5880   -0.9380    0.0000 C.3     1  LIG1        0.2690
     15 O           1.4540   -0.4170    0.0000 O.3     1  LIG1       -0.4664
     16 C           2.3170   -0.9460    0.0000 C.ar    1  LIG1        0.1505
     17 C           3.1580   -0.4420    0.0000 C.ar    1  LIG1        0.0492
     18 C           4.0290   -0.9380    0.0000 C.ar    1  LIG1        0.0607
     19 C           4.0250   -1.9380    0.0000 C.ar    1  LIG1        0.0125
     20 C           3.1710   -2.4420    0.0000 C.ar    1  LIG1        0.0153
     21 C           2.2920   -1.9210    0.0000 C.ar    1  LIG1        0.0916
     22 CL          1.4250   -2.4580    0.0000 Cl      1  LIG1       -0.0791
     23 CL          4.9250   -0.4540    0.0000 Cl      1  LIG1       -0.0821
@<TRIPOS>BOND
     1     1     2    1
     2     1    10   ar
     3     1    13   ar
     4     2     3   am
     5     2     9    2
     6     3     4    1
     7     3     8    1
     8     4     5    1
     9     5     6    1
    10     6     7    1
    11     7     8    1
    12    10    11   ar
    13    11    12   ar
    14    11    14    1
    15    12    13   ar
    16    14    15    1
    17    15    16    1
    18    16    17   ar
    19    16    21   ar
    20    17    18   ar
    21    18    19   ar
    22    18    23    1
    23    19    20   ar
    24    20    21   ar
    25    21    22    1
