@<TRIPOS>MOLECULE
32479_ChemDiv_6228-1449
 24 26 0 0 0
SMALL
GASTEIGER
Energy = 0

@<TRIPOS>ATOM
      1 C          -1.2630   -1.4420    0.0000 C.ar    1  LIG1        0.1983
      2 C          -1.1040   -2.4330    0.0000 C.2     1  LIG1        0.2838
      3 N          -1.5170   -3.3290    0.0000 N.am    1  LIG1       -0.2718
      4 C          -0.9920   -4.1000    0.0000 C.3     1  LIG1        0.1055
      5 C          -1.3960   -4.9380    0.0000 C.3     1  LIG1        0.0791
      6 S          -2.3290   -5.0130    0.0000 S.3     1  LIG1       -0.1366
      7 C          -2.8500   -4.2380    0.0000 C.3     1  LIG1        0.0791
      8 C          -2.4460   -3.4000    0.0000 C.3     1  LIG1        0.1055
      9 O          -0.1040   -2.3170    0.0000 O.2     1  LIG1       -0.2666
     10 O          -0.9540   -0.4960    0.0000 O.2     1  LIG1       -0.4494
     11 C          -1.7580    0.0880    0.0000 C.ar    1  LIG1        0.1670
     12 C          -2.5630   -0.4960    0.0000 C.ar    1  LIG1        0.0401
     13 C          -2.2540   -1.4420    0.0000 C.ar    1  LIG1        0.0451
     14 C          -1.4630    0.9830    0.0000 C.3     1  LIG1        0.2689
     15 O          -0.4920    1.1920    0.0000 O.3     1  LIG1       -0.4673
     16 C          -0.1790    2.1330    0.0000 C.ar    1  LIG1        0.1392
     17 C           0.7920    2.3330    0.0000 C.ar    1  LIG1        0.0366
     18 C           1.1040    3.2790    0.0000 C.ar    1  LIG1       -0.0012
     19 C           0.4420    4.0130    0.0000 C.ar    1  LIG1       -0.0220
     20 C          -0.5290    3.8130    0.0000 C.ar    1  LIG1       -0.0012
     21 C          -0.8420    2.8750    0.0000 C.ar    1  LIG1        0.0366
     22 C           0.7540    4.9540    0.0000 C.3     1  LIG1        0.0264
     23 C           2.3210    5.0130    0.0000 C.3     1  LIG1        0.0047
     24 C           2.8460    4.1670    0.0000 C.3     1  LIG1        0.0004
@<TRIPOS>BOND
     1     1     2    1
     2     1    10   ar
     3     1    13   ar
     4     2     3   am
     5     2     9    2
     6     3     4    1
     7     3     8    1
     8     4     5    1
     9     5     6    1
    10     6     7    1
    11     7     8    1
    12    10    11   ar
    13    11    12   ar
    14    11    14    1
    15    12    13   ar
    16    14    15    1
    17    15    16    1
    18    16    17   ar
    19    16    21   ar
    20    17    18   ar
    21    18    19   ar
    22    19    20   ar
    23    19    22    1
    24    20    21   ar
    25    22    23    1
    26    23    24    1
