@<TRIPOS>MOLECULE
32471_ChemDiv_8008-9201
 25 27 0 0 0
SMALL
GASTEIGER
Energy = 0

@<TRIPOS>ATOM
      1 C          -4.2040    1.7080    0.0000 C.3     1  LIG1        0.0277
      2 C          -3.2330    1.7080    0.0000 C.3     1  LIG1        0.0495
      3 C          -2.7290    0.8540    0.0000 C.3     1  LIG1        0.0877
      4 C          -3.2330   -0.0130    0.0000 C.3     1  LIG1        0.0310
      5 C          -4.2380   -0.0130    0.0000 C.2     1  LIG1       -0.0305
      6 C          -4.6880    0.8540    0.0000 C.2     1  LIG1       -0.0306
      7 C          -4.1250    0.6130    0.0000 C.3     1  LIG1        0.0095
      8 C          -1.7080    0.8540    0.0000 C.2     1  LIG1        0.2416
      9 O          -1.2170    1.7080    0.0000 O.2     1  LIG1       -0.2733
     10 N          -1.1790   -0.0130    0.0000 N.am    1  LIG1       -0.2051
     11 C          -0.2080   -0.0130    0.0000 C.3     1  LIG1        0.1198
     12 C           0.2750   -0.8750    0.0000 C.3     1  LIG1        0.0499
     13 C           1.2670   -0.8750    0.0000 C.ar    1  LIG1       -0.0172
     14 C           1.7540   -1.7290    0.0000 C.ar    1  LIG1        0.0358
     15 C           2.7420   -1.7290    0.0000 C.ar    1  LIG1        0.1721
     16 C           3.2080   -0.8750    0.0000 C.ar    1  LIG1        0.1724
     17 C           2.7210   -0.0130    0.0000 C.ar    1  LIG1        0.0397
     18 C           1.7540   -0.0130    0.0000 C.ar    1  LIG1       -0.0009
     19 O           4.1960   -0.8750    0.0000 O.3     1  LIG1       -0.4684
     20 C           4.6830   -0.0130    0.0000 C.3     1  LIG1        0.2526
     21 O           3.2580   -2.5920    0.0000 O.3     1  LIG1       -0.4684
     22 C           2.7750   -3.4580    0.0000 C.3     1  LIG1        0.2526
     23 C          -2.7290    2.6130    0.0000 C.2     1  LIG1        0.0508
     24 O          -3.2330    3.4630    0.0000 O.co2   1  LIG1       -0.5492
     25 O          -1.7080    2.6130    0.0000 O.co2   1  LIG1       -0.5492
@<TRIPOS>BOND
     1     1     2    1
     2     1     6    1
     3     1     7    1
     4     2     3    1
     5     2    23    1
     6     3     4    1
     7     3     8    1
     8     4     5    1
     9     4     7    1
    10     5     6    2
    11     8     9    2
    12     8    10   am
    13    10    11    1
    14    11    12    1
    15    12    13    1
    16    13    14   ar
    17    13    18   ar
    18    14    15   ar
    19    15    16   ar
    20    15    21    1
    21    16    17   ar
    22    16    19    1
    23    17    18   ar
    24    19    20    1
    25    21    22    1
    26    23    24   ar
    27    23    25   ar
