@<TRIPOS>MOLECULE
32497_ChemDiv_6049-2332
 23 25 0 0 0
SMALL
GASTEIGER
Energy = 0

@<TRIPOS>ATOM
      1 N          -2.4960    0.3420    0.0000 N.ar    1  LIG1       -0.2015
      2 N          -3.1080   -0.4630    0.0000 N.ar    1  LIG1       -0.1666
      3 C          -4.0250   -0.1710    0.0000 C.ar    1  LIG1        0.0910
      4 C          -4.0830    0.8580    0.0000 C.ar    1  LIG1        0.0865
      5 C          -3.0540    1.1250    0.0000 C.ar    1  LIG1        0.0754
      6 C          -2.6500    2.0210    0.0000 C.3     1  LIG1        0.0532
      7 CL         -4.8920    1.4250    0.0000 Cl      1  LIG1       -0.0797
      8 C          -4.7750   -0.8130    0.0000 C.3     1  LIG1        0.0549
      9 C          -1.5000    0.3420    0.0000 C.2     1  LIG1        0.2564
     10 C          -0.9710   -0.5250    0.0000 C.3     1  LIG1        0.0855
     11 C          -0.1000   -1.0250    0.0000 C.3     1  LIG1        0.0317
     12 C          -0.9710   -1.5210    0.0000 C.3     1  LIG1        0.0145
     13 C           0.8920   -1.0250    0.0000 C.ar    1  LIG1       -0.0220
     14 C           1.4210   -1.8920    0.0000 C.ar    1  LIG1       -0.0046
     15 C           2.4170   -1.8920    0.0000 C.ar    1  LIG1       -0.0046
     16 C           2.9130   -1.0250    0.0000 C.ar    1  LIG1       -0.0228
     17 C           3.9040   -1.0250    0.0000 C.3     1  LIG1        0.0189
     18 C           4.8880   -1.0250    0.0000 C.3     1  LIG1        0.0044
     19 C           3.9040   -2.0170    0.0000 C.3     1  LIG1        0.0044
     20 C           3.9040   -0.0290    0.0000 C.3     1  LIG1        0.0044
     21 C           2.4170   -0.1540    0.0000 C.ar    1  LIG1       -0.0046
     22 C           1.3880   -0.1540    0.0000 C.ar    1  LIG1       -0.0046
     23 O          -1.0040    1.2130    0.0000 O.2     1  LIG1       -0.2702
@<TRIPOS>BOND
     1     1     2   ar
     2     1     5   ar
     3     1     9   am
     4     2     3   ar
     5     3     4   ar
     6     3     8    1
     7     4     5   ar
     8     4     7    1
     9     5     6    1
    10     9    10    1
    11     9    23    2
    12    10    11    1
    13    10    12    1
    14    11    12    1
    15    11    13    1
    16    13    14   ar
    17    13    22   ar
    18    14    15   ar
    19    15    16   ar
    20    16    17    1
    21    16    21   ar
    22    17    18    1
    23    17    19    1
    24    17    20    1
    25    21    22   ar
