@<TRIPOS>MOLECULE
32493_ChemDiv_6028-3091
 30 34 0 0 0
SMALL
GASTEIGER
Energy = 0

@<TRIPOS>ATOM
      1 S          -0.4040    1.4580    0.0000 S.O2    1  LIG1        0.0665
      2 N           0.4790    0.9540    0.0000 N.3     1  LIG1       -0.1287
      3 C           0.4790   -0.0380    0.0000 C.3     1  LIG1        0.1941
      4 N          -0.4040   -0.5830    0.0000 N.pl3   1  LIG1       -0.2156
      5 C          -1.2960   -0.0670    0.0000 C.ar    1  LIG1        0.0857
      6 C          -1.2880    0.9540    0.0000 C.ar    1  LIG1        0.1370
      7 C          -2.1710    1.4580    0.0000 C.ar    1  LIG1        0.0212
      8 C          -3.0540    0.9420    0.0000 C.ar    1  LIG1        0.0015
      9 C          -3.0540   -0.0790    0.0000 C.ar    1  LIG1        0.0014
     10 C          -2.1710   -0.5830    0.0000 C.ar    1  LIG1        0.0175
     11 C           1.3380   -0.5250    0.0000 C.ar    1  LIG1        0.0171
     12 C           1.3380   -1.5080    0.0000 C.ar    1  LIG1        0.0357
     13 C           2.2040   -1.9830    0.0000 C.ar    1  LIG1        0.1382
     14 O           2.2080   -2.9630    0.0000 O.3     1  LIG1       -0.4774
     15 C           1.3540   -3.4630    0.0000 C.3     1  LIG1        0.1873
     16 C           0.3920   -3.2290    0.0000 C.3     1  LIG1        0.1020
     17 S           0.1380   -4.1580    0.0000 S.3     1  LIG1       -0.1326
     18 C           1.0960   -4.4130    0.0000 C.3     1  LIG1        0.1020
     19 C           3.0500   -1.4830    0.0000 C.ar    1  LIG1        0.0369
     20 C           3.0290   -0.5000    0.0000 C.ar    1  LIG1        0.0029
     21 C           2.1790   -0.0210    0.0000 C.ar    1  LIG1       -0.0010
     22 C           1.3670    1.4500    0.0000 C.3     1  LIG1        0.1243
     23 C           1.3670    2.4380    0.0000 C.ar    1  LIG1       -0.0044
     24 C           0.5130    2.9380    0.0000 C.ar    1  LIG1       -0.0029
     25 C           0.5130    3.9170    0.0000 C.ar    1  LIG1       -0.0003
     26 C           1.3670    4.4130    0.0000 C.ar    1  LIG1       -0.0000
     27 C           2.2250    3.9250    0.0000 C.ar    1  LIG1       -0.0003
     28 C           2.2250    2.9380    0.0000 C.ar    1  LIG1       -0.0029
     29 O          -1.1380    2.1960    0.0000 O.2     1  LIG1       -0.1527
     30 O           0.3130    2.1960    0.0000 O.2     1  LIG1       -0.1527
@<TRIPOS>BOND
     1     1     2    1
     2     1     6    1
     3     1    29    2
     4     1    30    2
     5     2     3    1
     6     2    22    1
     7     3     4    1
     8     3    11    1
     9     4     5    1
    10     5     6   ar
    11     5    10   ar
    12     6     7   ar
    13     7     8   ar
    14     8     9   ar
    15     9    10   ar
    16    11    12   ar
    17    11    21   ar
    18    12    13   ar
    19    13    14    1
    20    13    19   ar
    21    14    15    1
    22    15    16    1
    23    15    18    1
    24    16    17    1
    25    17    18    1
    26    19    20   ar
    27    20    21   ar
    28    22    23    1
    29    23    24   ar
    30    23    28   ar
    31    24    25   ar
    32    25    26   ar
    33    26    27   ar
    34    27    28   ar
