@<TRIPOS>MOLECULE
32506_ChemDiv_6150-0134
 31 34 0 0 0
SMALL
GASTEIGER
Energy = 0

@<TRIPOS>ATOM
      1 S           2.3630    0.2830    0.0000 S.O2    1  LIG1       -0.0568
      2 N           3.3290    0.5380    0.0000 N.pl3   1  LIG1       -0.5205
      3 C           4.1920    1.0420    0.0000 C.ar    1  LIG1       -0.0262
      4 N           4.1750    2.0330    0.0000 N.ar    1  LIG1       -0.2674
      5 C           5.0380    2.5500    0.0000 C.ar    1  LIG1        0.0967
      6 C           5.9080    2.0500    0.0000 C.ar    1  LIG1        0.0205
      7 C           5.9130    1.0540    0.0000 C.ar    1  LIG1        0.0012
      8 C           5.0540    0.5540    0.0000 C.ar    1  LIG1       -0.0050
      9 C           1.4040    0.0170    0.0000 C.ar    1  LIG1        0.0894
     10 C           1.1540   -0.9540    0.0000 C.ar    1  LIG1        0.0182
     11 C           0.1880   -1.2130    0.0000 C.ar    1  LIG1        0.0179
     12 C          -0.5130   -0.5040    0.0000 C.ar    1  LIG1        0.0735
     13 N          -1.4750   -0.7710    0.0000 N.am    1  LIG1       -0.1790
     14 C          -2.4460   -1.0290    0.0000 C.2     1  LIG1        0.2486
     15 C          -3.3080   -0.5210    0.0000 C.3     1  LIG1        0.0944
     16 C          -4.1790   -1.0330    0.0000 C.ar    1  LIG1       -0.0144
     17 C          -4.1790   -2.0460    0.0000 C.ar    1  LIG1       -0.0038
     18 C          -5.0460   -2.5460    0.0000 C.ar    1  LIG1       -0.0003
     19 C          -5.9170   -2.0460    0.0000 C.ar    1  LIG1       -0.0000
     20 C          -5.9170   -1.0420    0.0000 C.ar    1  LIG1       -0.0003
     21 C          -5.0460   -0.5330    0.0000 C.ar    1  LIG1       -0.0038
     22 C          -2.4460   -0.0380    0.0000 C.3     1  LIG1        0.0449
     23 C          -2.4460    0.9670    0.0000 C.3     1  LIG1        0.1430
     24 O          -3.3080    1.4750    0.0000 O.3     1  LIG1       -0.3537
     25 C          -4.1790    0.9670    0.0000 C.3     1  LIG1        0.1430
     26 C          -4.1790   -0.0380    0.0000 C.3     1  LIG1        0.0449
     27 O          -2.5790   -2.0250    0.0000 O.2     1  LIG1       -0.2727
     28 C          -0.2670    0.4540    0.0000 C.ar    1  LIG1        0.0179
     29 C           0.6960    0.7210    0.0000 C.ar    1  LIG1        0.0182
     30 O           2.1040    1.2380    0.0000 O.2     1  LIG1       -0.1841
     31 O           2.6330   -0.6830    0.0000 O.2     1  LIG1       -0.1841
@<TRIPOS>BOND
     1     1     2    1
     2     1     9    1
     3     1    30    2
     4     1    31    2
     5     2     3    1
     6     3     4   ar
     7     3     8   ar
     8     4     5   ar
     9     5     6   ar
    10     6     7   ar
    11     7     8   ar
    12     9    10   ar
    13     9    29   ar
    14    10    11   ar
    15    11    12   ar
    16    12    13    1
    17    12    28   ar
    18    13    14   am
    19    14    15    1
    20    14    27    2
    21    15    16    1
    22    15    22    1
    23    15    26    1
    24    16    17   ar
    25    16    21   ar
    26    17    18   ar
    27    18    19   ar
    28    19    20   ar
    29    20    21   ar
    30    22    23    1
    31    23    24    1
    32    24    25    1
    33    25    26    1
    34    28    29   ar
