@<TRIPOS>MOLECULE
32503_ChemDiv_6049-2453
 15 16 0 0 0
SMALL
GASTEIGER
Energy = 0

@<TRIPOS>ATOM
      1 N1         -1.0880    0.3000    0.0000 N.4     1  <1>         0.4561
      2 C1         -0.5000   -0.4920    0.0000 C.3     1  <1>         0.2231
      3 C2          0.4960   -0.4920    0.0000 C.ar    1  <1>         0.0742
      4 S1          1.0500   -1.3080    0.0000 S.2     1  <1>        -0.0890
      5 C3          2.0380   -1.0000    0.0000 C.ar    1  <1>         0.0072
      6 C4          2.0250    0.0080    0.0000 C.ar    1  <1>         0.0026
      7 C5          1.0630    0.3170    0.0000 C.ar    1  <1>         0.0090
      8 C6          2.8630   -1.5580    0.0000 C.3     1  <1>         0.0330
      9 C7          3.7630   -1.1380    0.0000 C.3     1  <1>         0.0056
     10 S2         -1.0880   -1.3210    0.0000 S.3     1  <1>        -0.0681
     11 C8         -2.0210   -1.0130    0.0000 C.3     1  <1>         0.1320
     12 C9         -2.0210   -0.0040    0.0000 C.3     1  <1>         0.1933
     13 C10        -2.8500    0.5540    0.0000 C.2     1  <1>         0.1082
     14 O1         -2.7500    1.5630    0.0000 O.co2   1  <1>        -0.5436
     15 O2         -3.7670    0.1540    0.0000 O.co2   1  <1>        -0.5436
@<TRIPOS>BOND
     1     1     2    1
     2     1    12    1
     3     2     3    1
     4     2    10    1
     5     3     4   ar
     6     3     7   ar
     7     4     5   ar
     8     5     6   ar
     9     5     8    1
    10     6     7   ar
    11     8     9    1
    12    10    11    1
    13    11    12    1
    14    12    13    1
    15    13    14   ar
    16    13    15   ar
