@<TRIPOS>MOLECULE
32501_ChemDiv_6049-2359
 31 36 0 0 0
SMALL
GASTEIGER
Energy = 0

@<TRIPOS>ATOM
      1 N          -1.3670    0.3710    0.0000 N.am    1  LIG1       -0.2593
      2 C           0.8500    0.3710    0.0000 C.2     1  LIG1        0.2373
      3 C           1.3290   -0.4670    0.0000 C.3     1  LIG1        0.1272
      4 C           2.2920   -0.4710    0.0000 C.ar    1  LIG1        0.0249
      5 C           2.7830   -1.3000    0.0000 C.ar    1  LIG1        0.1420
      6 O           2.2790   -2.1420    0.0000 O.3     1  LIG1       -0.4541
      7 C           1.3210   -2.1380    0.0000 C.ar    1  LIG1        0.1420
      8 C           0.8330   -1.2960    0.0000 C.ar    1  LIG1        0.0249
      9 C          -0.1250   -1.2960    0.0000 C.ar    1  LIG1       -0.0005
     10 C          -0.6130   -2.1210    0.0000 C.ar    1  LIG1       -0.0001
     11 C          -0.1420   -2.9670    0.0000 C.ar    1  LIG1        0.0031
     12 C           0.8330   -2.9670    0.0000 C.ar    1  LIG1        0.0372
     13 C           3.7460   -1.3000    0.0000 C.ar    1  LIG1        0.0372
     14 C           4.2330   -0.4830    0.0000 C.ar    1  LIG1        0.0031
     15 C           3.7630    0.3630    0.0000 C.ar    1  LIG1       -0.0001
     16 C           2.7830    0.3540    0.0000 C.ar    1  LIG1       -0.0005
     17 O           1.3540    1.1920    0.0000 O.2     1  LIG1       -0.2738
     18 C          -1.9790    1.1330    0.0000 C.3     1  LIG1        0.0955
     19 C          -2.8670    0.7920    0.0000 C.3     1  LIG1        0.0991
     20 C          -2.7790   -0.1330    0.0000 C.ar    1  LIG1       -0.0017
     21 C          -1.8830   -0.3580    0.0000 C.ar    1  LIG1        0.0500
     22 C          -1.5790   -1.3000    0.0000 C.ar    1  LIG1        0.0143
     23 C          -2.2040   -2.0130    0.0000 C.ar    1  LIG1       -0.0030
     24 C          -3.1290   -1.7880    0.0000 C.ar    1  LIG1       -0.0221
     25 C          -3.4380   -0.8670    0.0000 C.ar    1  LIG1       -0.0070
     26 C          -3.8330   -2.5290    0.0000 C.3     1  LIG1        0.0310
     27 C          -3.6210    1.4040    0.0000 C.3     1  LIG1        0.1448
     28 N          -3.4960    2.3710    0.0000 N.4     1  LIG1        0.3823
     29 C          -2.5960    2.7500    0.0000 C.3     1  LIG1        0.1406
     30 C          -1.8540    2.1460    0.0000 C.3     1  LIG1        0.0834
     31 C          -4.2380    2.9710    0.0000 C.3     1  LIG1        0.2022
@<TRIPOS>BOND
     1     1     2   am
     2     1    18    1
     3     1    21    1
     4     2     3    1
     5     2    17    2
     6     3     4    1
     7     3     8    1
     8     4     5   ar
     9     4    16   ar
    10     5     6    1
    11     5    13   ar
    12     6     7    1
    13     7     8   ar
    14     7    12   ar
    15     8     9   ar
    16     9    10   ar
    17    10    11   ar
    18    11    12   ar
    19    13    14   ar
    20    14    15   ar
    21    15    16   ar
    22    18    19    1
    23    18    30    1
    24    19    20    1
    25    19    27    1
    26    20    21   ar
    27    20    25   ar
    28    21    22   ar
    29    22    23   ar
    30    23    24   ar
    31    24    25   ar
    32    24    26    1
    33    27    28    1
    34    28    29    1
    35    28    31    1
    36    29    30    1
