@<TRIPOS>MOLECULE
32504_ChemDiv_6150-0131
 30 33 0 0 0
SMALL
GASTEIGER
Energy = 0

@<TRIPOS>ATOM
      1 S           2.5920    0.8130    0.0000 S.O2    1  LIG1       -0.0565
      2 N           3.5540    1.0750    0.0000 N.pl3   1  LIG1       -0.5152
      3 C           4.2540    0.3750    0.0000 C.ar    1  LIG1        0.0047
      4 N           5.2380    0.5250    0.0000 N.ar    1  LIG1       -0.2605
      5 C           5.6920   -0.3630    0.0000 C.ar    1  LIG1        0.1042
      6 C           4.9920   -1.0630    0.0000 C.ar    1  LIG1        0.0556
      7 S           4.1040   -0.6080    0.0000 S.2     1  LIG1       -0.0898
      8 C           1.6250    0.5580    0.0000 C.ar    1  LIG1        0.0894
      9 C           0.9130    1.2580    0.0000 C.ar    1  LIG1        0.0182
     10 C          -0.0460    0.9960    0.0000 C.ar    1  LIG1        0.0179
     11 C          -0.2960    0.0290    0.0000 C.ar    1  LIG1        0.0735
     12 N          -1.2540   -0.2290    0.0000 N.am    1  LIG1       -0.1790
     13 C          -2.2330   -0.4880    0.0000 C.2     1  LIG1        0.2486
     14 C          -3.0960    0.0130    0.0000 C.3     1  LIG1        0.0944
     15 C          -3.9580   -0.5040    0.0000 C.ar    1  LIG1       -0.0144
     16 C          -4.8330    0.0000    0.0000 C.ar    1  LIG1       -0.0038
     17 C          -5.6960   -0.5040    0.0000 C.ar    1  LIG1       -0.0003
     18 C          -5.6960   -1.5130    0.0000 C.ar    1  LIG1       -0.0000
     19 C          -4.8330   -2.0080    0.0000 C.ar    1  LIG1       -0.0003
     20 C          -3.9580   -1.5130    0.0000 C.ar    1  LIG1       -0.0038
     21 C          -3.9580    0.5000    0.0000 C.3     1  LIG1        0.0449
     22 C          -3.9580    1.5080    0.0000 C.3     1  LIG1        0.1430
     23 O          -3.0960    2.0130    0.0000 O.3     1  LIG1       -0.3537
     24 C          -2.2330    1.5080    0.0000 C.3     1  LIG1        0.1430
     25 C          -2.2330    0.5000    0.0000 C.3     1  LIG1        0.0449
     26 O          -2.3540   -1.4880    0.0000 O.2     1  LIG1       -0.2727
     27 C           0.4130   -0.6790    0.0000 C.ar    1  LIG1        0.0179
     28 C           1.3750   -0.4130    0.0000 C.ar    1  LIG1        0.0182
     29 O           2.3290    1.7830    0.0000 O.2     1  LIG1       -0.1841
     30 O           2.8580   -0.1500    0.0000 O.2     1  LIG1       -0.1841
@<TRIPOS>BOND
     1     1     2    1
     2     1     8    1
     3     1    29    2
     4     1    30    2
     5     2     3    1
     6     3     4   ar
     7     3     7   ar
     8     4     5   ar
     9     5     6   ar
    10     6     7   ar
    11     8     9   ar
    12     8    28   ar
    13     9    10   ar
    14    10    11   ar
    15    11    12    1
    16    11    27   ar
    17    12    13   am
    18    13    14    1
    19    13    26    2
    20    14    15    1
    21    14    21    1
    22    14    25    1
    23    15    16   ar
    24    15    20   ar
    25    16    17   ar
    26    17    18   ar
    27    18    19   ar
    28    19    20   ar
    29    21    22    1
    30    22    23    1
    31    23    24    1
    32    24    25    1
    33    27    28   ar
