@<TRIPOS>MOLECULE
32518_ChemDiv_8016-0562
 18 20 0 0 0
SMALL
GASTEIGER
Energy = 0

@<TRIPOS>ATOM
      1 N          -0.0130    0.8080    0.0000 N.ar    1  LIG1       -0.1752
      2 C          -0.0130   -0.2040    0.0000 C.ar    1  LIG1        0.2228
      3 N           0.8580   -0.6920    0.0000 N.ar    1  LIG1       -0.2181
      4 C           1.7210   -0.2040    0.0000 C.ar    1  LIG1        0.0625
      5 C           1.7210    0.7880    0.0000 C.ar    1  LIG1        0.0493
      6 C           0.8580    1.3000    0.0000 C.ar    1  LIG1        0.2786
      7 O           0.8580    2.2960    0.0000 O.2     1  LIG1       -0.2654
      8 C           2.5670    1.3000    0.0000 C.3     1  LIG1        0.0325
      9 C           3.4460    0.8080    0.0000 C.3     1  LIG1        0.0053
     10 C           3.4460   -0.2040    0.0000 C.3     1  LIG1        0.0066
     11 C           2.5670   -0.6920    0.0000 C.3     1  LIG1        0.0457
     12 N          -0.8500   -0.7250    0.0000 N.pl3   1  LIG1       -0.2666
     13 C          -1.7330   -0.2290    0.0000 C.3     1  LIG1        0.1566
     14 C          -2.5830   -0.7420    0.0000 C.3     1  LIG1        0.1608
     15 N          -2.5830   -1.7540    0.0000 N.4     1  LIG1        0.3847
     16 C          -1.6960   -2.2250    0.0000 C.3     1  LIG1        0.1608
     17 C          -0.8500   -1.7380    0.0000 C.3     1  LIG1        0.1566
     18 C          -3.4500   -2.2920    0.0000 C.3     1  LIG1        0.2024
@<TRIPOS>BOND
     1     1     2   ar
     2     1     6   ar
     3     2     3   ar
     4     2    12    1
     5     3     4   ar
     6     4     5   ar
     7     4    11    1
     8     5     6   ar
     9     5     8    1
    10     6     7    2
    11     8     9    1
    12     9    10    1
    13    10    11    1
    14    12    13    1
    15    12    17    1
    16    13    14    1
    17    14    15    1
    18    15    16    1
    19    15    18    1
    20    16    17    1
