@<TRIPOS>MOLECULE
32512_ChemDiv_6445-0084
 24 27 0 0 0
SMALL
GASTEIGER
Energy = 0

@<TRIPOS>ATOM
      1 C           0.4000    0.4830    0.0000 C.ar    1  LIG1        0.1620
      2 N          -0.4500   -0.0040    0.0000 N.ar    1  LIG1       -0.3013
      3 C          -1.2830    0.4920    0.0000 C.ar    1  LIG1        0.0631
      4 C          -1.2830    1.4670    0.0000 C.ar    1  LIG1        0.0361
      5 C           0.4000    1.4750    0.0000 C.ar    1  LIG1        0.1167
      6 N           1.2460    1.9580    0.0000 N.ar    1  LIG1       -0.2408
      7 C           2.0960    1.4750    0.0000 C.ar    1  LIG1        0.0990
      8 C           2.1000    0.4920    0.0000 C.ar    1  LIG1        0.1005
      9 N           1.2500   -0.0040    0.0000 N.ar    1  LIG1       -0.2252
     10 C           2.9500    0.0080    0.0000 C.ar    1  LIG1        0.0207
     11 C           3.8000    0.5080    0.0000 C.ar    1  LIG1        0.0016
     12 C           3.7830    1.4880    0.0000 C.ar    1  LIG1        0.0016
     13 C           2.9330    1.9710    0.0000 C.ar    1  LIG1        0.0206
     14 C          -2.1250    1.9420    0.0000 C.ar    1  LIG1       -0.0012
     15 C          -2.9580    1.4580    0.0000 C.ar    1  LIG1       -0.0220
     16 C          -2.9580    0.4920    0.0000 C.ar    1  LIG1       -0.0028
     17 C          -2.1250    0.0080    0.0000 C.ar    1  LIG1        0.0170
     18 C          -3.8040    1.9420    0.0000 C.3     1  LIG1        0.0264
     19 C          -3.8040    2.9080    0.0000 C.3     1  LIG1        0.0050
     20 C          -0.4500   -0.9710    0.0000 C.3     1  LIG1        0.2177
     21 C           0.3880   -1.4540    0.0000 C.2     1  LIG1        0.3405
     22 O           1.3210   -1.2080    0.0000 O.2     1  LIG1       -0.2479
     23 O           0.3830   -2.4210    0.0000 O.3     1  LIG1       -0.4431
     24 C           1.2170   -2.9040    0.0000 C.3     1  LIG1        0.2557
@<TRIPOS>BOND
     1     1     2   ar
     2     1     5   ar
     3     1     9   ar
     4     2     3   ar
     5     2    20    1
     6     3     4   ar
     7     3    17   ar
     8     4     5   ar
     9     4    14   ar
    10     5     6   ar
    11     6     7   ar
    12     7     8   ar
    13     7    13   ar
    14     8     9   ar
    15     8    10   ar
    16    10    11   ar
    17    11    12   ar
    18    12    13   ar
    19    14    15   ar
    20    15    16   ar
    21    15    18    1
    22    16    17   ar
    23    18    19    1
    24    20    21    1
    25    21    22    2
    26    21    23    1
    27    23    24    1
