@<TRIPOS>MOLECULE
32511_ChemDiv_6049-2693
 22 25 0 0 0
SMALL
GASTEIGER
Energy = 0

@<TRIPOS>ATOM
      1 C          -0.1790    0.2290    0.0000 C.2     1  LIG1        0.3278
      2 N          -1.0170   -0.3210    0.0000 N.am    1  LIG1       -0.2508
      3 C          -1.8960    0.1330    0.0000 C.3     1  LIG1        0.1517
      4 C          -2.7420   -0.4290    0.0000 C.3     1  LIG1        0.1074
      5 N          -2.6710   -1.4170    0.0000 N.4     1  LIG1        0.3756
      6 C          -1.7880   -1.8710    0.0000 C.3     1  LIG1        0.1603
      7 C          -0.9460   -1.3130    0.0000 C.3     1  LIG1        0.1578
      8 C          -3.6130   -1.7710    0.0000 C.3     1  LIG1        0.1386
      9 C          -4.2460   -1.0170    0.0000 C.3     1  LIG1        0.0687
     10 C          -3.7170   -0.1750    0.0000 C.3     1  LIG1        0.0646
     11 N           0.7170   -0.2170    0.0000 N.am    1  LIG1       -0.1622
     12 C           1.5500    0.3330    0.0000 C.ar    1  LIG1        0.0749
     13 C           2.4420   -0.1290    0.0000 C.ar    1  LIG1        0.0154
     14 C           3.2750    0.4380    0.0000 C.ar    1  LIG1        0.0013
     15 C           3.2250    1.4170    0.0000 C.ar    1  LIG1        0.0001
     16 C           2.3380    1.8750    0.0000 C.ar    1  LIG1        0.0013
     17 C           1.5000    1.3210    0.0000 C.ar    1  LIG1        0.0166
     18 C           4.1710   -0.0080    0.0000 C.ar    1  LIG1        0.0000
     19 C           4.2420   -1.0170    0.0000 C.ar    1  LIG1        0.0000
     20 C           3.4130   -1.5750    0.0000 C.ar    1  LIG1        0.0000
     21 C           2.5130   -1.1330    0.0000 C.ar    1  LIG1        0.0013
     22 O          -0.2330    1.2250    0.0000 O.2     1  LIG1       -0.2504
@<TRIPOS>BOND
     1     1     2   am
     2     1    11   am
     3     1    22    2
     4     2     3    1
     5     2     7    1
     6     3     4    1
     7     4     5    1
     8     4    10    1
     9     5     6    1
    10     5     8    1
    11     6     7    1
    12     8     9    1
    13     9    10    1
    14    11    12    1
    15    12    13   ar
    16    12    17   ar
    17    13    14   ar
    18    13    21   ar
    19    14    15   ar
    20    14    18   ar
    21    15    16   ar
    22    16    17   ar
    23    18    19   ar
    24    19    20   ar
    25    20    21   ar
