@<TRIPOS>MOLECULE
32510_ChemDiv_6153-0122
 22 25 0 0 0
SMALL
GASTEIGER
Energy = 0

@<TRIPOS>ATOM
      1 C           0.6790    0.2380    0.0000 C.ar    1  LIG1        0.1619
      2 N           0.1080   -0.6080    0.0000 N.ar    1  LIG1       -0.3061
      3 C          -0.8210   -0.3080    0.0000 C.ar    1  LIG1        0.0629
      4 C          -0.8290    0.7460    0.0000 C.ar    1  LIG1        0.0361
      5 C           0.1040    1.0750    0.0000 C.ar    1  LIG1        0.1167
      6 N           0.4920    2.0290    0.0000 N.ar    1  LIG1       -0.2408
      7 C           1.4630    2.1380    0.0000 C.ar    1  LIG1        0.0990
      8 C           2.0380    1.3080    0.0000 C.ar    1  LIG1        0.1005
      9 N           1.6460    0.3420    0.0000 N.ar    1  LIG1       -0.2252
     10 C           3.0000    1.4130    0.0000 C.ar    1  LIG1        0.0207
     11 C           3.3920    2.3630    0.0000 C.ar    1  LIG1        0.0016
     12 C           2.8130    3.2000    0.0000 C.ar    1  LIG1        0.0016
     13 C           1.8500    3.0830    0.0000 C.ar    1  LIG1        0.0206
     14 C          -1.6790    1.2670    0.0000 C.ar    1  LIG1       -0.0012
     15 C          -2.5250    0.7420    0.0000 C.ar    1  LIG1       -0.0217
     16 C          -2.5250   -0.3080    0.0000 C.ar    1  LIG1       -0.0028
     17 C          -1.6710   -0.8250    0.0000 C.ar    1  LIG1        0.0170
     18 C          -3.3960    1.2250    0.0000 C.3     1  LIG1        0.0310
     19 C           0.3580   -1.5460    0.0000 C.3     1  LIG1        0.1491
     20 C          -0.3290   -2.2250    0.0000 C.2     1  LIG1        0.0732
     21 O          -0.3330   -3.1960    0.0000 O.co2   1  LIG1       -0.5472
     22 O          -1.1630   -1.7460    0.0000 O.co2   1  LIG1       -0.5472
@<TRIPOS>BOND
     1     1     2   ar
     2     1     5   ar
     3     1     9   ar
     4     2     3   ar
     5     2    19    1
     6     3     4   ar
     7     3    17   ar
     8     4     5   ar
     9     4    14   ar
    10     5     6   ar
    11     6     7   ar
    12     7     8   ar
    13     7    13   ar
    14     8     9   ar
    15     8    10   ar
    16    10    11   ar
    17    11    12   ar
    18    12    13   ar
    19    14    15   ar
    20    15    16   ar
    21    15    18    1
    22    16    17   ar
    23    19    20    1
    24    20    21   ar
    25    20    22   ar
