@<TRIPOS>MOLECULE
32517_ChemDiv_6042-0089
 25 27 0 0 0
SMALL
GASTEIGER
Energy = 0

@<TRIPOS>ATOM
      1 N          -0.2170   -1.1920    0.0000 N.ar    1  LIG1       -0.3272
      2 C          -1.0500   -0.6080    0.0000 C.ar    1  LIG1        0.0599
      3 C          -0.7080    0.3790    0.0000 C.ar    1  LIG1        0.0172
      4 C           0.2630    0.3790    0.0000 C.ar    1  LIG1        0.0172
      5 C           0.6040   -0.5380    0.0000 C.ar    1  LIG1        0.0599
      6 C           1.5750   -0.7130    0.0000 C.ar    1  LIG1        0.0172
      7 C           2.2210    0.0540    0.0000 C.ar    1  LIG1        0.0026
      8 C           1.8830    0.9920    0.0000 C.ar    1  LIG1        0.0141
      9 C           0.8750    1.1670    0.0000 C.ar    1  LIG1        0.0026
     10 C           2.5420    1.7250    0.0000 C.2     1  LIG1        0.0729
     11 O           2.2250    2.6790    0.0000 O.co2   1  LIG1       -0.5446
     12 O           3.4710    1.4710    0.0000 O.co2   1  LIG1       -0.5446
     13 C          -1.3750    1.1460    0.0000 C.ar    1  LIG1        0.0026
     14 C          -2.3830    0.9080    0.0000 C.ar    1  LIG1        0.0141
     15 C          -3.0830    1.6250    0.0000 C.2     1  LIG1        0.0729
     16 O          -4.0540    1.3710    0.0000 O.co2   1  LIG1       -0.5446
     17 O          -2.7580    2.5330    0.0000 O.co2   1  LIG1       -0.5446
     18 C          -2.6880   -0.0500    0.0000 C.ar    1  LIG1        0.0026
     19 C          -2.0130   -0.8290    0.0000 C.ar    1  LIG1        0.0172
     20 C          -0.2170   -2.1920    0.0000 C.3     1  LIG1        0.1060
     21 C           0.6500   -2.6750    0.0000 C.3     1  LIG1        0.0245
     22 C           1.5080   -2.1750    0.0000 C.3     1  LIG1        0.0020
     23 C           2.3630   -2.6710    0.0000 C.3     1  LIG1        0.0001
     24 C           3.2130   -2.1750    0.0000 C.3     1  LIG1        0.0000
     25 C           4.0500   -2.6710    0.0000 C.3     1  LIG1        0.0000
@<TRIPOS>BOND
     1     1     2   ar
     2     1     5   ar
     3     1    20    1
     4     2     3   ar
     5     2    19   ar
     6     3     4   ar
     7     3    13   ar
     8     4     5   ar
     9     4     9   ar
    10     5     6   ar
    11     6     7   ar
    12     7     8   ar
    13     8     9   ar
    14     8    10    1
    15    10    11   ar
    16    10    12   ar
    17    13    14   ar
    18    14    15    1
    19    14    18   ar
    20    15    16   ar
    21    15    17   ar
    22    18    19   ar
    23    20    21    1
    24    21    22    1
    25    22    23    1
    26    23    24    1
    27    24    25    1
