@<TRIPOS>MOLECULE
32516_ChemDiv_6208-0003
 17 19 0 0 0
SMALL
GASTEIGER
Energy = 0

@<TRIPOS>ATOM
      1 C          -0.8170    0.2420    0.0000 C.ar    1  LIG1        0.0675
      2 C          -0.8170   -0.7540    0.0000 C.ar    1  LIG1        0.0661
      3 N           0.0330   -1.2500    0.0000 N.ar    1  LIG1       -0.2167
      4 C           0.9040   -0.7540    0.0000 C.ar    1  LIG1        0.2362
      5 N           0.9040    0.2420    0.0000 N.ar    1  LIG1       -0.2108
      6 C           0.0330    0.7420    0.0000 C.ar    1  LIG1        0.1059
      7 N           1.7920   -1.2750    0.0000 N.pl3   1  LIG1       -0.2056
      8 C           2.6630   -0.7540    0.0000 C.3     1  LIG1        0.0956
      9 C           3.5290   -0.2580    0.0000 C.3     1  LIG1        0.0234
     10 C           2.6630    0.2420    0.0000 C.3     1  LIG1        0.0234
     11 C          -1.6830   -1.2500    0.0000 C.3     1  LIG1        0.0465
     12 C          -2.5540   -0.7540    0.0000 C.3     1  LIG1        0.0128
     13 C          -2.5540    0.2420    0.0000 C.3     1  LIG1        0.0696
     14 C          -1.6830    0.7420    0.0000 C.2     1  LIG1        0.1757
     15 O          -1.6830    1.7420    0.0000 O.2     1  LIG1       -0.2912
     16 C          -3.5330   -0.6630    0.0000 C.3     1  LIG1        0.0008
     17 C          -2.7580   -1.7380    0.0000 C.3     1  LIG1        0.0008
@<TRIPOS>BOND
     1     1     2   ar
     2     1     6   ar
     3     1    14    1
     4     2     3   ar
     5     2    11    1
     6     3     4   ar
     7     4     5   ar
     8     4     7    1
     9     5     6   ar
    10     7     8    1
    11     8     9    1
    12     8    10    1
    13     9    10    1
    14    11    12    1
    15    12    13    1
    16    12    16    1
    17    12    17    1
    18    13    14    1
    19    14    15    2
