@<TRIPOS>MOLECULE
32519_ChemDiv_6042-0103
 19 21 0 0 0
SMALL
GASTEIGER
Energy = 0

@<TRIPOS>ATOM
      1 N          -0.6040   -0.6880    0.0000 N.ar    1  LIG1       -0.3272
      2 C           0.2130   -0.0380    0.0000 C.ar    1  LIG1        0.0599
      3 C          -0.1290    0.8750    0.0000 C.ar    1  LIG1        0.0172
      4 C          -1.0960    0.8750    0.0000 C.ar    1  LIG1        0.0172
      5 C          -1.4380   -0.1040    0.0000 C.ar    1  LIG1        0.0599
      6 C          -2.3960   -0.3250    0.0000 C.ar    1  LIG1        0.0172
      7 C          -3.0670    0.4500    0.0000 C.ar    1  LIG1        0.0015
      8 C          -2.7630    1.4000    0.0000 C.ar    1  LIG1        0.0001
      9 C          -1.7630    1.6380    0.0000 C.ar    1  LIG1        0.0015
     10 C           0.4830    1.6630    0.0000 C.ar    1  LIG1        0.0026
     11 C           1.4830    1.4880    0.0000 C.ar    1  LIG1        0.0141
     12 C           2.1420    2.2170    0.0000 C.2     1  LIG1        0.0729
     13 O           1.8250    3.1670    0.0000 O.co2   1  LIG1       -0.5446
     14 O           3.0630    1.9630    0.0000 O.co2   1  LIG1       -0.5446
     15 C           1.8170    0.5500    0.0000 C.ar    1  LIG1        0.0026
     16 C           1.1790   -0.2130    0.0000 C.ar    1  LIG1        0.0172
     17 C          -0.6040   -1.6880    0.0000 C.3     1  LIG1        0.1060
     18 C           0.2540   -2.1670    0.0000 C.3     1  LIG1        0.0245
     19 C           0.2540   -3.1630    0.0000 C.3     1  LIG1        0.0021
@<TRIPOS>BOND
     1     1     2   ar
     2     1     5   ar
     3     1    17    1
     4     2     3   ar
     5     2    16   ar
     6     3     4   ar
     7     3    10   ar
     8     4     5   ar
     9     4     9   ar
    10     5     6   ar
    11     6     7   ar
    12     7     8   ar
    13     8     9   ar
    14    10    11   ar
    15    11    12    1
    16    11    15   ar
    17    12    13   ar
    18    12    14   ar
    19    15    16   ar
    20    17    18    1
    21    18    19    1
