@<TRIPOS>MOLECULE
32520_ChemDiv_6208-0068
 27 31 0 0 0
SMALL
GASTEIGER
Energy = 0

@<TRIPOS>ATOM
      1 N          -0.9580    0.2540    0.0000 N.ar    1  LIG1       -0.2223
      2 C          -1.8080   -0.2500    0.0000 C.ar    1  LIG1        0.1943
      3 N          -1.8630   -1.2040    0.0000 N.ar    1  LIG1       -0.2205
      4 C          -2.8460   -1.4580    0.0000 C.ar    1  LIG1        0.0895
      5 C          -3.3710   -0.6000    0.0000 C.ar    1  LIG1        0.0500
      6 S          -2.7000    0.1460    0.0000 S.2     1  LIG1       -0.0472
      7 C          -4.3500   -0.6250    0.0000 C.ar    1  LIG1        0.0081
      8 C          -4.8670   -1.5290    0.0000 C.ar    1  LIG1        0.0006
      9 C          -4.3500   -2.3750    0.0000 C.ar    1  LIG1        0.0016
     10 C          -3.3170   -2.3210    0.0000 C.ar    1  LIG1        0.0197
     11 C          -0.0580   -0.1460    0.0000 C.ar    1  LIG1        0.0034
     12 C           0.6170    0.5830    0.0000 C.ar    1  LIG1        0.0355
     13 C           1.5920    0.3710    0.0000 C.ar    1  LIG1        0.0859
     14 N           1.9130   -0.5670    0.0000 N.ar    1  LIG1       -0.2451
     15 C           2.8830   -0.7670    0.0000 C.ar    1  LIG1        0.0843
     16 C           3.5750   -0.0210    0.0000 C.ar    1  LIG1        0.0566
     17 C           3.2420    0.9210    0.0000 C.ar    1  LIG1        0.1986
     18 C           2.2710    1.1330    0.0000 C.ar    1  LIG1        0.0612
     19 O           3.8920    1.7000    0.0000 O.2     1  LIG1       -0.2865
     20 C           4.5460   -0.2130    0.0000 C.ar    1  LIG1        0.0047
     21 C           4.8630   -1.1710    0.0000 C.ar    1  LIG1        0.0002
     22 C           4.1830   -1.9170    0.0000 C.ar    1  LIG1        0.0015
     23 C           3.2170   -1.7250    0.0000 C.ar    1  LIG1        0.0192
     24 C           0.1040    1.4540    0.0000 C.ar    1  LIG1        0.0810
     25 N          -0.8710    1.2380    0.0000 N.ar    1  LIG1       -0.1688
     26 C           0.4920    2.3790    0.0000 C.3     1  LIG1        0.0540
     27 O           0.1290   -1.1380    0.0000 O.co2   1  LIG1       -0.8596
@<TRIPOS>BOND
     1     1     2    1
     2     1    11   ar
     3     1    25   ar
     4     2     3   ar
     5     2     6   ar
     6     3     4   ar
     7     4     5   ar
     8     4    10   ar
     9     5     6   ar
    10     5     7   ar
    11     7     8   ar
    12     8     9   ar
    13     9    10   ar
    14    11    12   ar
    15    11    27    1
    16    12    13    1
    17    12    24   ar
    18    13    14   ar
    19    13    18   ar
    20    14    15   ar
    21    15    16   ar
    22    15    23   ar
    23    16    17   ar
    24    16    20   ar
    25    17    18   ar
    26    17    19    2
    27    20    21   ar
    28    21    22   ar
    29    22    23   ar
    30    24    25   ar
    31    24    26    1
