@<TRIPOS>MOLECULE
32523_ChemDiv_6048-0222
 29 33 0 0 0
SMALL
GASTEIGER
Energy = 0

@<TRIPOS>ATOM
      1 C          -1.1710    0.5500    0.0000 C.ar    1  LIG1        0.1066
      2 C          -2.0630    0.6540    0.0000 C.ar    1  LIG1        0.0743
      3 C          -2.2750    1.4960    0.0000 C.ar    1  LIG1       -0.0139
      4 C          -1.5130    2.1040    0.0000 C.ar    1  LIG1        0.0047
      5 S          -0.7210    1.4000    0.0000 S.2     1  LIG1       -0.0750
      6 C          -1.5130    3.2290    0.0000 C.3     1  LIG1        0.0327
      7 C          -2.4250    3.7290    0.0000 C.3     1  LIG1        0.0055
      8 C          -3.3710    3.1630    0.0000 C.3     1  LIG1        0.0050
      9 C          -3.2830    2.0380    0.0000 C.3     1  LIG1        0.0268
     10 C          -2.7330   -0.2040    0.0000 C.2     1  LIG1        0.2856
     11 O          -2.4000   -1.2710    0.0000 O.2     1  LIG1       -0.2666
     12 N          -3.8130   -0.0420    0.0000 N.am    1  LIG1       -0.0837
     13 N          -0.5040   -0.4000    0.0000 N.am    1  LIG1       -0.1719
     14 C           0.4580   -0.4000    0.0000 C.2     1  LIG1        0.2540
     15 C           0.9380   -1.2330    0.0000 C.3     1  LIG1        0.1288
     16 C           0.4580   -2.0500    0.0000 C.ar    1  LIG1        0.0250
     17 C           0.9540   -2.8920    0.0000 C.ar    1  LIG1        0.1420
     18 O           1.8920   -2.8920    0.0000 O.3     1  LIG1       -0.4541
     19 C           2.3880   -2.0630    0.0000 C.ar    1  LIG1        0.1420
     20 C           1.8920   -1.2330    0.0000 C.ar    1  LIG1        0.0250
     21 C           2.3500   -0.4170    0.0000 C.ar    1  LIG1       -0.0005
     22 C           3.3170   -0.4170    0.0000 C.ar    1  LIG1       -0.0001
     23 C           3.8080   -1.2540    0.0000 C.ar    1  LIG1        0.0031
     24 C           3.3170   -2.0750    0.0000 C.ar    1  LIG1        0.0372
     25 C           0.4710   -3.7250    0.0000 C.ar    1  LIG1        0.0372
     26 C          -0.5000   -3.7250    0.0000 C.ar    1  LIG1        0.0031
     27 C          -0.9960   -2.8750    0.0000 C.ar    1  LIG1       -0.0001
     28 C          -0.5000   -2.0500    0.0000 C.ar    1  LIG1       -0.0005
     29 O           0.9540    0.4330    0.0000 O.2     1  LIG1       -0.2723
@<TRIPOS>BOND
     1     1     2   ar
     2     1     5   ar
     3     1    13    1
     4     2     3   ar
     5     2    10    1
     6     3     4   ar
     7     3     9    1
     8     4     5   ar
     9     4     6    1
    10     6     7    1
    11     7     8    1
    12     8     9    1
    13    10    11    2
    14    10    12   am
    15    13    14   am
    16    14    15    1
    17    14    29    2
    18    15    16    1
    19    15    20    1
    20    16    17   ar
    21    16    28   ar
    22    17    18    1
    23    17    25   ar
    24    18    19    1
    25    19    20   ar
    26    19    24   ar
    27    20    21   ar
    28    21    22   ar
    29    22    23   ar
    30    23    24   ar
    31    25    26   ar
    32    26    27   ar
    33    27    28   ar
