@<TRIPOS>MOLECULE
32529_ChemDiv_6049-2695
 32 35 0 0 0
SMALL
GASTEIGER
Energy = 0

@<TRIPOS>ATOM
      1 C           0.5460   -0.2670    0.0000 C.ar    1  LIG1        0.1069
      2 C          -0.4500   -0.1630    0.0000 C.ar    1  LIG1        0.0782
      3 C          -0.6710    0.8130    0.0000 C.ar    1  LIG1        0.0083
      4 C           0.2040    1.3170    0.0000 C.ar    1  LIG1        0.0090
      5 S           0.9420    0.6630    0.0000 S.2     1  LIG1       -0.0746
      6 C           0.3170    2.3000    0.0000 C.3     1  LIG1        0.0382
      7 C          -1.6000    1.1960    0.0000 C.ar    1  LIG1        0.0004
      8 C          -1.7250    2.1750    0.0000 C.ar    1  LIG1       -0.0003
      9 C          -2.6420    2.5670    0.0000 C.ar    1  LIG1       -0.0043
     10 C          -3.4380    1.9710    0.0000 C.ar    1  LIG1       -0.0228
     11 C          -4.3630    2.3580    0.0000 C.3     1  LIG1        0.0189
     12 C          -5.2790    2.7420    0.0000 C.3     1  LIG1        0.0044
     13 C          -4.7500    1.4330    0.0000 C.3     1  LIG1        0.0044
     14 C          -3.9710    3.2830    0.0000 C.3     1  LIG1        0.0044
     15 C          -3.3170    0.9960    0.0000 C.ar    1  LIG1       -0.0043
     16 C          -2.3920    0.5960    0.0000 C.ar    1  LIG1       -0.0003
     17 C          -1.1130   -0.9290    0.0000 C.2     1  LIG1        0.2859
     18 O          -0.7670   -1.8790    0.0000 O.2     1  LIG1       -0.2666
     19 N          -2.0830   -0.7460    0.0000 N.am    1  LIG1       -0.0836
     20 N           1.0630   -1.1330    0.0000 N.am    1  LIG1       -0.1725
     21 C           2.0630   -1.1330    0.0000 C.2     1  LIG1        0.2459
     22 C           3.0040   -1.4960    0.0000 C.3     1  LIG1        0.0837
     23 C           3.5580   -1.4540    0.0000 C.3     1  LIG1        0.0452
     24 C           4.5960   -2.1210    0.0000 C.3     1  LIG1        0.0057
     25 C           5.2750   -1.4210    0.0000 C.3     1  LIG1        0.0009
     26 C           4.0880   -2.1670    0.0000 C.3     1  LIG1        0.0090
     27 C           4.2380   -3.2790    0.0000 C.3     1  LIG1        0.0005
     28 C           4.7210   -3.2460    0.0000 C.3     1  LIG1        0.0004
     29 C           3.7040   -0.4540    0.0000 C.2     1  LIG1        0.0504
     30 O           2.8790    0.2000    0.0000 O.co2   1  LIG1       -0.5492
     31 O           4.6580   -0.1670    0.0000 O.co2   1  LIG1       -0.5492
     32 O           2.3750   -0.4380    0.0000 O.2     1  LIG1       -0.2730
@<TRIPOS>BOND
     1     1     2   ar
     2     1     5   ar
     3     1    20    1
     4     2     3   ar
     5     2    17    1
     6     3     4   ar
     7     3     7    1
     8     4     5   ar
     9     4     6    1
    10     7     8   ar
    11     7    16   ar
    12     8     9   ar
    13     9    10   ar
    14    10    11    1
    15    10    15   ar
    16    11    12    1
    17    11    13    1
    18    11    14    1
    19    15    16   ar
    20    17    18    2
    21    17    19   am
    22    20    21   am
    23    21    22    1
    24    21    32    2
    25    22    23    1
    26    22    26    1
    27    23    24    1
    28    23    29    1
    29    24    25    1
    30    24    28    1
    31    25    26    1
    32    26    27    1
    33    27    28    1
    34    29    30   ar
    35    29    31   ar
