@<TRIPOS>MOLECULE
32522_ChemDiv_6208-0071
 28 32 0 0 0
SMALL
GASTEIGER
Energy = 0

@<TRIPOS>ATOM
      1 N           0.8580   -0.1830    0.0000 N.ar    1  LIG1       -0.1707
      2 C           1.8130    0.1420    0.0000 C.ar    1  LIG1        0.1983
      3 N           2.0750    1.1130    0.0000 N.ar    1  LIG1       -0.2203
      4 C           3.0710    1.1540    0.0000 C.ar    1  LIG1        0.0895
      5 C           3.4130    0.2500    0.0000 C.ar    1  LIG1        0.0500
      6 S           2.6380   -0.4130    0.0000 S.2     1  LIG1       -0.0471
      7 C           4.4080    0.1000    0.0000 C.ar    1  LIG1        0.0081
      8 C           5.0330    0.8750    0.0000 C.ar    1  LIG1        0.0006
      9 C           4.6670    1.7790    0.0000 C.ar    1  LIG1        0.0016
     10 C           3.6960    1.9380    0.0000 C.ar    1  LIG1        0.0197
     11 C           0.0630    0.4250    0.0000 C.ar    1  LIG1        0.2846
     12 C          -0.7630   -0.1420    0.0000 C.ar    1  LIG1        0.0891
     13 C          -0.4580   -1.1170    0.0000 C.ar    1  LIG1        0.1119
     14 N           0.5330   -1.1170    0.0000 N.ar    1  LIG1       -0.1604
     15 C          -1.1460   -1.8460    0.0000 C.ar    1  LIG1        0.0818
     16 C          -2.1000   -1.6290    0.0000 C.ar    1  LIG1        0.2625
     17 N          -2.4250   -0.6830    0.0000 N.ar    1  LIG1       -0.2948
     18 C          -1.7540    0.0750    0.0000 C.ar    1  LIG1        0.0467
     19 C          -2.0790    1.0250    0.0000 C.3     1  LIG1        0.0503
     20 C          -3.4170   -0.4670    0.0000 C.3     1  LIG1        0.1354
     21 C          -3.7420    0.5080    0.0000 C.ar    1  LIG1        0.0005
     22 C          -3.0920    1.2420    0.0000 C.ar    1  LIG1       -0.0024
     23 C          -3.4000    2.1750    0.0000 C.ar    1  LIG1       -0.0003
     24 C          -4.3710    2.3880    0.0000 C.ar    1  LIG1       -0.0000
     25 C          -5.0380    1.6540    0.0000 C.ar    1  LIG1       -0.0003
     26 C          -4.7380    0.7000    0.0000 C.ar    1  LIG1       -0.0024
     27 O          -2.7670   -2.3830    0.0000 O.3     1  LIG1       -0.2669
     28 O           0.0830    1.4380    0.0000 O.2     1  LIG1       -0.2650
@<TRIPOS>BOND
     1     1     2    1
     2     1    11   ar
     3     1    14   ar
     4     2     3   ar
     5     2     6   ar
     6     3     4   ar
     7     4     5   ar
     8     4    10   ar
     9     5     6   ar
    10     5     7   ar
    11     7     8   ar
    12     8     9   ar
    13     9    10   ar
    14    11    12   ar
    15    11    28    2
    16    12    13   ar
    17    12    18   ar
    18    13    14   ar
    19    13    15   ar
    20    15    16   ar
    21    16    17   ar
    22    16    27    1
    23    17    18   ar
    24    17    20    1
    25    18    19    1
    26    20    21    1
    27    21    22   ar
    28    21    26   ar
    29    22    23   ar
    30    23    24   ar
    31    24    25   ar
    32    25    26   ar
