@<TRIPOS>MOLECULE
32526_ChemDiv_6208-0311
 31 35 0 0 0
SMALL
GASTEIGER
Energy = 0

@<TRIPOS>ATOM
      1 N           2.1750   -0.7420    0.0000 N.ar    1  LIG1       -0.1707
      2 C           3.1170   -0.3500    0.0000 C.ar    1  LIG1        0.1983
      3 N           3.2920    0.6330    0.0000 N.ar    1  LIG1       -0.2203
      4 C           4.2580    0.7540    0.0000 C.ar    1  LIG1        0.0895
      5 C           4.7040   -0.1710    0.0000 C.ar    1  LIG1        0.0500
      6 S           3.9920   -0.8460    0.0000 S.2     1  LIG1       -0.0471
      7 C           5.7130   -0.2330    0.0000 C.ar    1  LIG1        0.0081
      8 C           6.2790    0.6000    0.0000 C.ar    1  LIG1        0.0006
      9 C           5.8290    1.4920    0.0000 C.ar    1  LIG1        0.0016
     10 C           4.8210    1.5830    0.0000 C.ar    1  LIG1        0.0197
     11 C           1.4750   -0.0380    0.0000 C.ar    1  LIG1        0.2846
     12 C           0.6170   -0.5250    0.0000 C.ar    1  LIG1        0.0891
     13 C           0.8210   -1.5130    0.0000 C.ar    1  LIG1        0.1119
     14 N           1.8130   -1.5830    0.0000 N.ar    1  LIG1       -0.1604
     15 C           0.1080   -2.1830    0.0000 C.ar    1  LIG1        0.0818
     16 C          -0.8790   -1.8710    0.0000 C.ar    1  LIG1        0.2623
     17 N          -1.0960   -0.8880    0.0000 N.ar    1  LIG1       -0.2986
     18 C          -0.3250   -0.2040    0.0000 C.ar    1  LIG1        0.0464
     19 C          -0.5250    0.7710    0.0000 C.3     1  LIG1        0.0503
     20 C          -2.0380   -0.5750    0.0000 C.3     1  LIG1        0.1134
     21 C          -2.2460    0.4000    0.0000 C.3     1  LIG1        0.0509
     22 C          -3.2040    0.7080    0.0000 C.ar    1  LIG1       -0.0200
     23 C          -3.9540    0.0380    0.0000 C.ar    1  LIG1       -0.0011
     24 C          -4.9330    0.3500    0.0000 C.ar    1  LIG1        0.0366
     25 C          -5.1170    1.3130    0.0000 C.ar    1  LIG1        0.1387
     26 C          -4.3750    2.0040    0.0000 C.ar    1  LIG1        0.0366
     27 C          -3.4080    1.6670    0.0000 C.ar    1  LIG1       -0.0011
     28 O          -6.0540    1.6130    0.0000 O.3     1  LIG1       -0.4714
     29 C          -6.2790    2.5920    0.0000 C.3     1  LIG1        0.2525
     30 O          -1.6000   -2.5880    0.0000 O.3     1  LIG1       -0.2669
     31 O           1.5920    0.9380    0.0000 O.2     1  LIG1       -0.2650
@<TRIPOS>BOND
     1     1     2    1
     2     1    11   ar
     3     1    14   ar
     4     2     3   ar
     5     2     6   ar
     6     3     4   ar
     7     4     5   ar
     8     4    10   ar
     9     5     6   ar
    10     5     7   ar
    11     7     8   ar
    12     8     9   ar
    13     9    10   ar
    14    11    12   ar
    15    11    31    2
    16    12    13   ar
    17    12    18   ar
    18    13    14   ar
    19    13    15   ar
    20    15    16   ar
    21    16    17   ar
    22    16    30    1
    23    17    18   ar
    24    17    20    1
    25    18    19    1
    26    20    21    1
    27    21    22    1
    28    22    23   ar
    29    22    27   ar
    30    23    24   ar
    31    24    25   ar
    32    25    26   ar
    33    25    28    1
    34    26    27   ar
    35    28    29    1
