@<TRIPOS>MOLECULE
32525_ChemDiv_6048-0339
 27 30 0 0 0
SMALL
GASTEIGER
Energy = 0

@<TRIPOS>ATOM
      1 C          -0.8920   -0.0750    0.0000 C.ar    1  LIG1        0.1066
      2 C          -1.8460    0.0000    0.0000 C.ar    1  LIG1        0.0743
      3 C          -2.0670    0.9000    0.0000 C.ar    1  LIG1       -0.0139
      4 C          -1.2790    1.4540    0.0000 C.ar    1  LIG1        0.0047
      5 S          -0.5080    0.8420    0.0000 S.2     1  LIG1       -0.0750
      6 C          -1.0330    2.4330    0.0000 C.3     1  LIG1        0.0327
      7 C          -1.5920    3.2830    0.0000 C.3     1  LIG1        0.0052
      8 C          -2.5750    3.5000    0.0000 C.3     1  LIG1        0.0004
      9 C          -3.4380    2.9500    0.0000 C.3     1  LIG1        0.0004
     10 C          -3.6130    2.0210    0.0000 C.3     1  LIG1        0.0047
     11 C          -3.0630    1.1380    0.0000 C.3     1  LIG1        0.0267
     12 C          -2.4710   -0.7920    0.0000 C.2     1  LIG1        0.2856
     13 O          -2.1830   -1.8080    0.0000 O.2     1  LIG1       -0.2666
     14 N          -3.3460   -0.5540    0.0000 N.am    1  LIG1       -0.0837
     15 N          -0.3750   -0.9500    0.0000 N.am    1  LIG1       -0.1725
     16 C           0.6250   -0.9500    0.0000 C.2     1  LIG1        0.2462
     17 C           1.1290   -1.7830    0.0000 C.3     1  LIG1        0.0880
     18 C           0.6540   -2.6380    0.0000 C.3     1  LIG1        0.0311
     19 C           1.1460   -3.4960    0.0000 C.2     1  LIG1       -0.0305
     20 C           2.1130   -3.4750    0.0000 C.2     1  LIG1       -0.0306
     21 C           2.6040   -2.6040    0.0000 C.3     1  LIG1        0.0277
     22 C           2.1130   -1.7830    0.0000 C.3     1  LIG1        0.0495
     23 C           2.6330   -0.9420    0.0000 C.2     1  LIG1        0.0508
     24 O           2.1500   -0.0250    0.0000 O.co2   1  LIG1       -0.5492
     25 O           3.6080   -1.0420    0.0000 O.co2   1  LIG1       -0.5492
     26 C           1.6710   -3.2040    0.0000 C.3     1  LIG1        0.0095
     27 O           1.1040   -0.0830    0.0000 O.2     1  LIG1       -0.2730
@<TRIPOS>BOND
     1     1     2   ar
     2     1     5   ar
     3     1    15    1
     4     2     3   ar
     5     2    12    1
     6     3     4   ar
     7     3    11    1
     8     4     5   ar
     9     4     6    1
    10     6     7    1
    11     7     8    1
    12     8     9    1
    13     9    10    1
    14    10    11    1
    15    12    13    2
    16    12    14   am
    17    15    16   am
    18    16    17    1
    19    16    27    2
    20    17    18    1
    21    17    22    1
    22    18    19    1
    23    18    26    1
    24    19    20    2
    25    20    21    1
    26    21    22    1
    27    21    26    1
    28    22    23    1
    29    23    24   ar
    30    23    25   ar
