@<TRIPOS>MOLECULE
32534_ChemDiv_D011-1941
 24 27 0 0 0
SMALL
GASTEIGER
Energy = 0

@<TRIPOS>ATOM
      1 C           0.6710    1.1460    0.0000 C.ar    1  LIG1        0.1620
      2 N           0.0880    0.3290    0.0000 N.ar    1  LIG1       -0.3013
      3 C          -0.8630    0.6330    0.0000 C.ar    1  LIG1        0.0631
      4 C          -0.8750    1.6330    0.0000 C.ar    1  LIG1        0.0361
      5 C           0.0790    1.9500    0.0000 C.ar    1  LIG1        0.1167
      6 N           0.4750    2.8630    0.0000 N.ar    1  LIG1       -0.2408
      7 C           1.4710    2.9710    0.0000 C.ar    1  LIG1        0.0990
      8 C           2.0630    2.1670    0.0000 C.ar    1  LIG1        0.1005
      9 N           1.6630    1.2500    0.0000 N.ar    1  LIG1       -0.2252
     10 C           3.0540    2.2710    0.0000 C.ar    1  LIG1        0.0207
     11 C           3.4580    3.2000    0.0000 C.ar    1  LIG1        0.0016
     12 C           2.8630    4.0040    0.0000 C.ar    1  LIG1        0.0016
     13 C           1.8670    3.8880    0.0000 C.ar    1  LIG1        0.0206
     14 C          -1.7380    2.1290    0.0000 C.ar    1  LIG1       -0.0012
     15 C          -2.6000    1.6330    0.0000 C.ar    1  LIG1       -0.0217
     16 C          -2.6000    0.6290    0.0000 C.ar    1  LIG1       -0.0028
     17 C          -1.7380    0.1330    0.0000 C.ar    1  LIG1        0.0170
     18 C          -3.4630    2.1290    0.0000 C.3     1  LIG1        0.0310
     19 C           0.4040   -0.6170    0.0000 C.3     1  LIG1        0.2177
     20 C          -0.2580   -1.3630    0.0000 C.2     1  LIG1        0.3404
     21 O          -1.2330   -1.1630    0.0000 O.2     1  LIG1       -0.2479
     22 O           0.0580   -2.3080    0.0000 O.3     1  LIG1       -0.4472
     23 C          -0.6080   -3.0540    0.0000 C.3     1  LIG1        0.2086
     24 C          -0.2920   -4.0040    0.0000 C.3     1  LIG1        0.0513
@<TRIPOS>BOND
     1     1     2   ar
     2     1     5   ar
     3     1     9   ar
     4     2     3   ar
     5     2    19    1
     6     3     4   ar
     7     3    17   ar
     8     4     5   ar
     9     4    14   ar
    10     5     6   ar
    11     6     7   ar
    12     7     8   ar
    13     7    13   ar
    14     8     9   ar
    15     8    10   ar
    16    10    11   ar
    17    11    12   ar
    18    12    13   ar
    19    14    15   ar
    20    15    16   ar
    21    15    18    1
    22    16    17   ar
    23    19    20    1
    24    20    21    2
    25    20    22    1
    26    22    23    1
    27    23    24    1
