@<TRIPOS>MOLECULE
32532_ChemDiv_D011-1816
 28 32 0 0 0
SMALL
GASTEIGER
Energy = 0

@<TRIPOS>ATOM
      1 C           1.3540    0.3710    0.0000 C.ar    1  LIG1        0.1620
      2 N           0.7710   -0.4460    0.0000 N.ar    1  LIG1       -0.3013
      3 C          -0.1790   -0.1420    0.0000 C.ar    1  LIG1        0.0631
      4 C          -0.1920    0.8580    0.0000 C.ar    1  LIG1        0.0364
      5 C           0.7580    1.1750    0.0000 C.ar    1  LIG1        0.1167
      6 N           1.1580    2.0920    0.0000 N.ar    1  LIG1       -0.2408
      7 C           2.1500    2.1960    0.0000 C.ar    1  LIG1        0.0990
      8 C           2.7460    1.3920    0.0000 C.ar    1  LIG1        0.1005
      9 N           2.3460    0.4750    0.0000 N.ar    1  LIG1       -0.2252
     10 C           3.7380    1.4960    0.0000 C.ar    1  LIG1        0.0207
     11 C           4.1420    2.4250    0.0000 C.ar    1  LIG1        0.0016
     12 C           3.5460    3.2380    0.0000 C.ar    1  LIG1        0.0016
     13 C           2.5500    3.1130    0.0000 C.ar    1  LIG1        0.0206
     14 C          -1.0580    1.3580    0.0000 C.ar    1  LIG1        0.0030
     15 C          -1.9210    0.8580    0.0000 C.ar    1  LIG1        0.0001
     16 C          -1.9210   -0.1460    0.0000 C.ar    1  LIG1        0.0015
     17 C          -1.0580   -0.6420    0.0000 C.ar    1  LIG1        0.0173
     18 C           1.0880   -1.3920    0.0000 C.3     1  LIG1        0.2177
     19 C           0.4250   -2.1380    0.0000 C.2     1  LIG1        0.3407
     20 O           0.7420   -3.0880    0.0000 O.2     1  LIG1       -0.2479
     21 O          -0.5500   -1.9420    0.0000 O.3     1  LIG1       -0.4422
     22 C          -1.2170   -2.6880    0.0000 C.3     1  LIG1        0.2351
     23 C          -2.2040   -2.4880    0.0000 C.ar    1  LIG1        0.0213
     24 C          -2.5080   -1.5420    0.0000 C.ar    1  LIG1       -0.0007
     25 C          -3.4880   -1.3420    0.0000 C.ar    1  LIG1       -0.0002
     26 C          -4.1460   -2.0880    0.0000 C.ar    1  LIG1       -0.0000
     27 C          -3.8290   -3.0380    0.0000 C.ar    1  LIG1       -0.0002
     28 C          -2.8540   -3.2330    0.0000 C.ar    1  LIG1       -0.0007
@<TRIPOS>BOND
     1     1     2   ar
     2     1     5   ar
     3     1     9   ar
     4     2     3   ar
     5     2    18    1
     6     3     4   ar
     7     3    17   ar
     8     4     5   ar
     9     4    14   ar
    10     5     6   ar
    11     6     7   ar
    12     7     8   ar
    13     7    13   ar
    14     8     9   ar
    15     8    10   ar
    16    10    11   ar
    17    11    12   ar
    18    12    13   ar
    19    14    15   ar
    20    15    16   ar
    21    16    17   ar
    22    18    19    1
    23    19    20    2
    24    19    21    1
    25    21    22    1
    26    22    23    1
    27    23    24   ar
    28    23    28   ar
    29    24    25   ar
    30    25    26   ar
    31    26    27   ar
    32    27    28   ar
