@<TRIPOS>MOLECULE
32538_ChemDiv_6157-0025
 29 34 0 0 0
SMALL
GASTEIGER
Energy = 0

@<TRIPOS>ATOM
      1 C           0.3920    1.5790    0.0000 C.ar    1  LIG1        0.1617
      2 N          -0.4080    0.9710    0.0000 N.ar    1  LIG1       -0.3095
      3 C          -1.2380    1.5630    0.0000 C.ar    1  LIG1        0.0626
      4 C          -0.9330    2.5170    0.0000 C.ar    1  LIG1        0.0364
      5 C           0.0750    2.5250    0.0000 C.ar    1  LIG1        0.1167
      6 N           0.7330    3.2750    0.0000 N.ar    1  LIG1       -0.2408
      7 C           1.7170    3.0790    0.0000 C.ar    1  LIG1        0.0990
      8 C           2.0380    2.1330    0.0000 C.ar    1  LIG1        0.1005
      9 N           1.3710    1.3750    0.0000 N.ar    1  LIG1       -0.2252
     10 C           3.0130    1.9380    0.0000 C.ar    1  LIG1        0.0207
     11 C           3.6710    2.6880    0.0000 C.ar    1  LIG1        0.0016
     12 C           3.3500    3.6330    0.0000 C.ar    1  LIG1        0.0016
     13 C           2.3710    3.8290    0.0000 C.ar    1  LIG1        0.0206
     14 C          -1.6040    3.2630    0.0000 C.ar    1  LIG1        0.0030
     15 C          -2.5920    3.0420    0.0000 C.ar    1  LIG1        0.0001
     16 C          -2.8880    2.0880    0.0000 C.ar    1  LIG1        0.0015
     17 C          -2.2130    1.3540    0.0000 C.ar    1  LIG1        0.0173
     18 C          -0.3960   -0.0210    0.0000 C.3     1  LIG1        0.1321
     19 C          -1.2580   -0.5380    0.0000 C.3     1  LIG1        0.1367
     20 N          -1.2460   -1.5290    0.0000 N.ar    1  LIG1       -0.2601
     21 C          -0.4290   -2.1130    0.0000 C.ar    1  LIG1        0.4220
     22 O          -0.7290   -3.0670    0.0000 O.2     1  LIG1       -0.4068
     23 C          -1.7210   -3.0790    0.0000 C.ar    1  LIG1        0.1660
     24 C          -2.0420   -2.1290    0.0000 C.ar    1  LIG1        0.1000
     25 C          -3.0170   -1.9330    0.0000 C.ar    1  LIG1        0.0205
     26 C          -3.6750   -2.6750    0.0000 C.ar    1  LIG1        0.0017
     27 C          -3.3540   -3.6290    0.0000 C.ar    1  LIG1        0.0032
     28 C          -2.3790   -3.8250    0.0000 C.ar    1  LIG1        0.0392
     29 O           0.5380   -1.8540    0.0000 O.2     1  LIG1       -0.2226
@<TRIPOS>BOND
     1     1     2   ar
     2     1     5   ar
     3     1     9   ar
     4     2     3   ar
     5     2    18    1
     6     3     4   ar
     7     3    17   ar
     8     4     5   ar
     9     4    14   ar
    10     5     6   ar
    11     6     7   ar
    12     7     8   ar
    13     7    13   ar
    14     8     9   ar
    15     8    10   ar
    16    10    11   ar
    17    11    12   ar
    18    12    13   ar
    19    14    15   ar
    20    15    16   ar
    21    16    17   ar
    22    18    19    1
    23    19    20    1
    24    20    21   ar
    25    20    24   ar
    26    21    22   ar
    27    21    29    2
    28    22    23   ar
    29    23    24   ar
    30    23    28   ar
    31    24    25   ar
    32    25    26   ar
    33    26    27   ar
    34    27    28   ar
