@<TRIPOS>MOLECULE
32539_ChemDiv_6055-0088
 26 28 0 0 0
SMALL
GASTEIGER
Energy = 0

@<TRIPOS>ATOM
      1 C          -0.7290   -0.3250    0.0000 C.ar    1  LIG1        0.0894
      2 C          -0.7290   -1.3250    0.0000 C.ar    1  LIG1        0.0871
      3 N          -1.5960   -1.8250    0.0000 N.ar    1  LIG1       -0.2776
      4 C          -2.4500   -1.3250    0.0000 C.ar    1  LIG1        0.3339
      5 N          -2.4500   -0.3250    0.0000 N.ar    1  LIG1       -0.2467
      6 C          -1.5960    0.1750    0.0000 C.ar    1  LIG1        0.2671
      7 O          -1.5960    1.1790    0.0000 O.2     1  LIG1       -0.2667
      8 C          -3.3250    0.1750    0.0000 C.3     1  LIG1        0.1382
      9 O          -3.3250   -1.8250    0.0000 O.2     1  LIG1       -0.2462
     10 C          -1.5960   -2.8250    0.0000 C.3     1  LIG1        0.1351
     11 C           0.2250   -1.6380    0.0000 C.ar    1  LIG1        0.0937
     12 N           0.8170   -0.8250    0.0000 N.ar    1  LIG1       -0.3208
     13 C           0.2250   -0.0170    0.0000 C.ar    1  LIG1        0.0661
     14 C           0.5380    0.9330    0.0000 C.ar    1  LIG1        0.0160
     15 C          -0.1290    1.6790    0.0000 C.ar    1  LIG1        0.0014
     16 C           0.1750    2.6170    0.0000 C.ar    1  LIG1        0.0000
     17 C           1.1500    2.8290    0.0000 C.ar    1  LIG1        0.0000
     18 C           1.8290    2.0880    0.0000 C.ar    1  LIG1        0.0000
     19 C           1.5130    1.1460    0.0000 C.ar    1  LIG1        0.0014
     20 C           1.8170   -0.8250    0.0000 C.3     1  LIG1        0.1598
     21 C           2.3170   -1.6880    0.0000 C.3     1  LIG1        0.2078
     22 O           3.3210   -1.6880    0.0000 O.3     1  LIG1       -0.2182
     23 C           2.3170    0.0420    0.0000 C.3     1  LIG1        0.2078
     24 O           3.3210    0.0420    0.0000 O.3     1  LIG1       -0.2182
     25 C           1.5580   -1.7960    0.0000 C.3     1  LIG1        0.2078
     26 O           2.2670   -2.5040    0.0000 O.3     1  LIG1       -0.2182
@<TRIPOS>BOND
     1     1     2   ar
     2     1     6   ar
     3     1    13   ar
     4     2     3   ar
     5     2    11   ar
     6     3     4   ar
     7     3    10    1
     8     4     5   ar
     9     4     9    2
    10     5     6   ar
    11     5     8    1
    12     6     7    2
    13    11    12   ar
    14    12    13   ar
    15    12    20    1
    16    13    14    1
    17    14    15   ar
    18    14    19   ar
    19    15    16   ar
    20    16    17   ar
    21    17    18   ar
    22    18    19   ar
    23    20    21    1
    24    20    23    1
    25    20    25    1
    26    21    22    1
    27    23    24    1
    28    25    26    1
