@<TRIPOS>MOLECULE
32531_ChemDiv_6049-2923
 27 31 0 0 0
SMALL
GASTEIGER
Energy = 0

@<TRIPOS>ATOM
      1 C           0.4880    0.4290    0.0000 C.2     1  LIG1        0.2496
      2 C           0.9790   -0.4290    0.0000 C.3     1  LIG1        0.1284
      3 C           1.9790   -0.4380    0.0000 C.ar    1  LIG1        0.0250
      4 C           2.4830   -1.3000    0.0000 C.ar    1  LIG1        0.1420
      5 O           1.9670   -2.1710    0.0000 O.3     1  LIG1       -0.4541
      6 C           0.9710   -2.1630    0.0000 C.ar    1  LIG1        0.1420
      7 C           0.4670   -1.2960    0.0000 C.ar    1  LIG1        0.0250
      8 C          -0.5250   -1.2960    0.0000 C.ar    1  LIG1       -0.0005
      9 C          -1.0290   -2.1500    0.0000 C.ar    1  LIG1       -0.0001
     10 C          -0.5460   -3.0250    0.0000 C.ar    1  LIG1        0.0031
     11 C           0.4670   -3.0250    0.0000 C.ar    1  LIG1        0.0372
     12 C           3.4790   -1.3000    0.0000 C.ar    1  LIG1        0.0372
     13 C           3.9880   -0.4500    0.0000 C.ar    1  LIG1        0.0031
     14 C           3.5040    0.4250    0.0000 C.ar    1  LIG1       -0.0001
     15 C           2.4830    0.4170    0.0000 C.ar    1  LIG1       -0.0005
     16 N          -0.5130    0.4290    0.0000 N.am    1  LIG1       -0.2022
     17 C          -0.9920    1.2880    0.0000 C.3     1  LIG1        0.1172
     18 C          -1.9920    1.2880    0.0000 C.ar    1  LIG1       -0.0065
     19 C          -2.4880    2.1630    0.0000 C.ar    1  LIG1       -0.0245
     20 C          -1.9830    3.0290    0.0000 C.3     1  LIG1        0.0262
     21 C          -0.9920    3.0290    0.0000 C.3     1  LIG1        0.0068
     22 C          -0.4880    2.1540    0.0000 C.3     1  LIG1        0.0265
     23 C          -3.4830    2.1710    0.0000 C.ar    1  LIG1       -0.0045
     24 C          -3.9920    1.3130    0.0000 C.ar    1  LIG1       -0.0003
     25 C          -3.4960    0.4380    0.0000 C.ar    1  LIG1       -0.0003
     26 C          -2.4880    0.4250    0.0000 C.ar    1  LIG1       -0.0029
     27 O           1.0040    1.2830    0.0000 O.2     1  LIG1       -0.2726
@<TRIPOS>BOND
     1     1     2    1
     2     1    16   am
     3     1    27    2
     4     2     3    1
     5     2     7    1
     6     3     4   ar
     7     3    15   ar
     8     4     5    1
     9     4    12   ar
    10     5     6    1
    11     6     7   ar
    12     6    11   ar
    13     7     8   ar
    14     8     9   ar
    15     9    10   ar
    16    10    11   ar
    17    12    13   ar
    18    13    14   ar
    19    14    15   ar
    20    16    17    1
    21    17    18    1
    22    17    22    1
    23    18    19   ar
    24    18    26   ar
    25    19    20    1
    26    19    23   ar
    27    20    21    1
    28    21    22    1
    29    23    24   ar
    30    24    25   ar
    31    25    26   ar
