@<TRIPOS>MOLECULE
32537_ChemDiv_6055-0086
 25 27 0 0 0
SMALL
GASTEIGER
Energy = 0

@<TRIPOS>ATOM
      1 C          -1.4790   -0.3290    0.0000 C.ar    1  LIG1        0.0894
      2 C          -1.4790   -1.3290    0.0000 C.ar    1  LIG1        0.0871
      3 N          -2.3460   -1.8250    0.0000 N.ar    1  LIG1       -0.2776
      4 C          -3.2000   -1.3290    0.0000 C.ar    1  LIG1        0.3339
      5 N          -3.2000   -0.3290    0.0000 N.ar    1  LIG1       -0.2467
      6 C          -2.3460    0.1750    0.0000 C.ar    1  LIG1        0.2671
      7 O          -2.3460    1.1790    0.0000 O.2     1  LIG1       -0.2667
      8 C          -4.0750    0.1710    0.0000 C.3     1  LIG1        0.1382
      9 O          -4.0750   -1.8290    0.0000 O.2     1  LIG1       -0.2462
     10 C          -2.3460   -2.8250    0.0000 C.3     1  LIG1        0.1351
     11 C          -0.5250   -1.6330    0.0000 C.ar    1  LIG1        0.0940
     12 N           0.0670   -0.8290    0.0000 N.ar    1  LIG1       -0.3148
     13 C          -0.5250   -0.0130    0.0000 C.ar    1  LIG1        0.0664
     14 C          -0.2130    0.9290    0.0000 C.ar    1  LIG1        0.0160
     15 C           0.7630    1.1420    0.0000 C.ar    1  LIG1        0.0014
     16 C           1.0790    2.0880    0.0000 C.ar    1  LIG1        0.0000
     17 C           0.4000    2.8290    0.0000 C.ar    1  LIG1        0.0000
     18 C          -0.5750    2.6170    0.0000 C.ar    1  LIG1        0.0000
     19 C          -0.8790    1.6750    0.0000 C.ar    1  LIG1        0.0014
     20 C           1.0670   -0.8290    0.0000 C.3     1  LIG1        0.2166
     21 C           1.5670   -1.6960    0.0000 C.2     1  LIG1        0.3404
     22 O           1.0670   -2.5580    0.0000 O.2     1  LIG1       -0.2479
     23 O           2.5710   -1.6960    0.0000 O.3     1  LIG1       -0.4472
     24 C           3.0710   -0.8290    0.0000 C.3     1  LIG1        0.2086
     25 C           4.0710   -0.8290    0.0000 C.3     1  LIG1        0.0513
@<TRIPOS>BOND
     1     1     2   ar
     2     1     6   ar
     3     1    13   ar
     4     2     3   ar
     5     2    11   ar
     6     3     4   ar
     7     3    10    1
     8     4     5   ar
     9     4     9    2
    10     5     6   ar
    11     5     8    1
    12     6     7    2
    13    11    12   ar
    14    12    13   ar
    15    12    20    1
    16    13    14    1
    17    14    15   ar
    18    14    19   ar
    19    15    16   ar
    20    16    17   ar
    21    17    18   ar
    22    18    19   ar
    23    20    21    1
    24    21    22    2
    25    21    23    1
    26    23    24    1
    27    24    25    1
