@<TRIPOS>MOLECULE
32530_ChemDiv_6706-0136
 28 32 0 0 0
SMALL
GASTEIGER
Energy = 0

@<TRIPOS>ATOM
      1 C           0.2380    1.8290    0.0000 C.ar    1  LIG1        0.1617
      2 C          -0.3580    2.6460    0.0000 C.ar    1  LIG1        0.1167
      3 N           0.0460    3.5630    0.0000 N.ar    1  LIG1       -0.2408
      4 C           1.0460    3.6710    0.0000 C.ar    1  LIG1        0.0990
      5 C           1.6380    2.8580    0.0000 C.ar    1  LIG1        0.1005
      6 N           1.2330    1.9420    0.0000 N.ar    1  LIG1       -0.2252
      7 C           2.6330    2.9670    0.0000 C.ar    1  LIG1        0.0207
      8 C           3.0330    3.8830    0.0000 C.ar    1  LIG1        0.0016
      9 C           2.4380    4.6920    0.0000 C.ar    1  LIG1        0.0016
     10 C           1.4460    4.5790    0.0000 C.ar    1  LIG1        0.0206
     11 C          -1.3130    2.3290    0.0000 C.ar    1  LIG1        0.0364
     12 C          -1.3040    1.3250    0.0000 C.ar    1  LIG1        0.0627
     13 N          -0.3500    1.0210    0.0000 N.ar    1  LIG1       -0.3076
     14 C           0.3540    0.3170    0.0000 C.3     1  LIG1        0.1548
     15 C           0.0960   -0.6500    0.0000 C.3     1  LIG1        0.2332
     16 O           0.7960   -1.3580    0.0000 O.3     1  LIG1       -0.4433
     17 C           0.5380   -2.3130    0.0000 C.2     1  LIG1        0.3428
     18 C           1.2330   -3.0210    0.0000 C.ar    1  LIG1        0.0948
     19 C           2.1960   -2.7580    0.0000 C.ar    1  LIG1        0.1053
     20 N           2.9000   -3.4630    0.0000 N.ar    1  LIG1       -0.2421
     21 C           2.6420   -4.4380    0.0000 C.ar    1  LIG1        0.0989
     22 C           1.6750   -4.6920    0.0000 C.ar    1  LIG1        0.0209
     23 C           0.9670   -3.9790    0.0000 C.ar    1  LIG1        0.0096
     24 O          -0.4330   -2.5670    0.0000 O.2     1  LIG1       -0.2448
     25 C          -2.1790    0.8250    0.0000 C.ar    1  LIG1        0.0173
     26 C          -3.0380    1.3250    0.0000 C.ar    1  LIG1        0.0015
     27 C          -3.0380    2.3210    0.0000 C.ar    1  LIG1        0.0001
     28 C          -2.1790    2.8210    0.0000 C.ar    1  LIG1        0.0030
@<TRIPOS>BOND
     1     1     2   ar
     2     1     6   ar
     3     1    13   ar
     4     2     3   ar
     5     2    11   ar
     6     3     4   ar
     7     4     5   ar
     8     4    10   ar
     9     5     6   ar
    10     5     7   ar
    11     7     8   ar
    12     8     9   ar
    13     9    10   ar
    14    11    12   ar
    15    11    28   ar
    16    12    13   ar
    17    12    25   ar
    18    13    14    1
    19    14    15    1
    20    15    16    1
    21    16    17    1
    22    17    18    1
    23    17    24    2
    24    18    19   ar
    25    18    23   ar
    26    19    20   ar
    27    20    21   ar
    28    21    22   ar
    29    22    23   ar
    30    25    26   ar
    31    26    27   ar
    32    27    28   ar
