@<TRIPOS>MOLECULE
32533_ChemDiv_6049-2932
 28 32 0 0 0
SMALL
GASTEIGER
Energy = 0

@<TRIPOS>ATOM
      1 S          -1.5330    0.8710    0.0000 S.2     1  LIG1       -0.0287
      2 C          -0.5080    0.7710    0.0000 C.ar    1  LIG1        0.2080
      3 N           0.0250   -0.0960    0.0000 N.am    1  LIG1       -0.1523
      4 C           1.0250   -0.0960    0.0000 C.2     1  LIG1        0.2553
      5 C           1.5210   -0.9630    0.0000 C.3     1  LIG1        0.1288
      6 C           1.0080   -1.8210    0.0000 C.ar    1  LIG1        0.0250
      7 C           1.5130   -2.6920    0.0000 C.ar    1  LIG1        0.1420
      8 O           2.5040   -2.6960    0.0000 O.3     1  LIG1       -0.4541
      9 C           3.0250   -1.8290    0.0000 C.ar    1  LIG1        0.1420
     10 C           2.5170   -0.9630    0.0000 C.ar    1  LIG1        0.0250
     11 C           3.0250   -0.1130    0.0000 C.ar    1  LIG1       -0.0005
     12 C           4.0420   -0.1040    0.0000 C.ar    1  LIG1       -0.0001
     13 C           4.5290   -0.9790    0.0000 C.ar    1  LIG1        0.0031
     14 C           4.0250   -1.8290    0.0000 C.ar    1  LIG1        0.0372
     15 C           1.0080   -3.5540    0.0000 C.ar    1  LIG1        0.0372
     16 C          -0.0040   -3.5540    0.0000 C.ar    1  LIG1        0.0031
     17 C          -0.4920   -2.6790    0.0000 C.ar    1  LIG1       -0.0001
     18 C           0.0170   -1.8210    0.0000 C.ar    1  LIG1       -0.0005
     19 O           1.5460    0.7580    0.0000 O.2     1  LIG1       -0.2722
     20 N          -0.1170    1.7000    0.0000 N.ar    1  LIG1       -0.1236
     21 N          -0.8750    2.3290    0.0000 N.ar    1  LIG1       -0.1395
     22 C          -1.7460    1.8170    0.0000 C.ar    1  LIG1        0.1350
     23 C          -2.6670    2.1960    0.0000 C.ar    1  LIG1        0.0288
     24 C          -3.4380    1.6000    0.0000 C.ar    1  LIG1        0.0227
     25 C          -4.3830    1.9670    0.0000 C.ar    1  LIG1        0.0990
     26 N          -4.5330    2.9380    0.0000 N.ar    1  LIG1       -0.2423
     27 C          -3.7210    3.5580    0.0000 C.ar    1  LIG1        0.0990
     28 C          -2.8000    3.1710    0.0000 C.ar    1  LIG1        0.0227
@<TRIPOS>BOND
     1     1     2   ar
     2     1    22   ar
     3     2     3    1
     4     2    20   ar
     5     3     4   am
     6     4     5    1
     7     4    19    2
     8     5     6    1
     9     5    10    1
    10     6     7   ar
    11     6    18   ar
    12     7     8    1
    13     7    15   ar
    14     8     9    1
    15     9    10   ar
    16     9    14   ar
    17    10    11   ar
    18    11    12   ar
    19    12    13   ar
    20    13    14   ar
    21    15    16   ar
    22    16    17   ar
    23    17    18   ar
    24    20    21   ar
    25    21    22   ar
    26    22    23    1
    27    23    24   ar
    28    23    28   ar
    29    24    25   ar
    30    25    26   ar
    31    26    27   ar
    32    27    28   ar
