@<TRIPOS>MOLECULE
32535_ChemDiv_6049-2938
 23 26 0 0 0
SMALL
GASTEIGER
Energy = 0

@<TRIPOS>ATOM
      1 C           2.1250   -0.5290    0.0000 C.3     1  LIG1        0.1173
      2 C           2.6790   -0.4880    0.0000 C.3     1  LIG1        0.0793
      3 C           3.7170   -1.1500    0.0000 C.3     1  LIG1        0.1429
      4 O           4.3960   -0.4540    0.0000 O.3     1  LIG1       -0.3491
      5 C           3.2080   -1.2000    0.0000 C.3     1  LIG1        0.1463
      6 C           3.3580   -2.3080    0.0000 C.2     1  LIG1        0.0012
      7 C           3.8420   -2.2750    0.0000 C.2     1  LIG1        0.0011
      8 C           2.8250    0.5130    0.0000 C.2     1  LIG1        0.0532
      9 O           2.0000    1.1630    0.0000 O.co2   1  LIG1       -0.5491
     10 O           3.7790    0.8040    0.0000 O.co2   1  LIG1       -0.5491
     11 C           1.1830   -0.1710    0.0000 C.2     1  LIG1        0.2444
     12 N           0.1830   -0.1710    0.0000 N.am    1  LIG1       -0.2005
     13 C          -0.3040    0.7000    0.0000 C.3     1  LIG1        0.1416
     14 C          -1.3080    0.7000    0.0000 C.ar    1  LIG1        0.0027
     15 C          -1.8040    1.5580    0.0000 C.ar    1  LIG1        0.0376
     16 C          -2.8080    1.5580    0.0000 C.ar    1  LIG1        0.1762
     17 C          -3.2960    0.7000    0.0000 C.ar    1  LIG1        0.1764
     18 O          -4.2920    0.9000    0.0000 O.3     1  LIG1       -0.4346
     19 C          -4.4000    1.8790    0.0000 C.3     1  LIG1        0.4294
     20 O          -3.5000    2.3130    0.0000 O.3     1  LIG1       -0.4346
     21 C          -2.7920   -0.1710    0.0000 C.ar    1  LIG1        0.0399
     22 C          -1.8040   -0.1710    0.0000 C.ar    1  LIG1        0.0008
     23 O           1.4960    0.5290    0.0000 O.2     1  LIG1       -0.2732
@<TRIPOS>BOND
     1     1     2    1
     2     1     5    1
     3     1    11    1
     4     2     3    1
     5     2     8    1
     6     3     4    1
     7     3     7    1
     8     4     5    1
     9     5     6    1
    10     6     7    2
    11     8     9   ar
    12     8    10   ar
    13    11    12   am
    14    11    23    2
    15    12    13    1
    16    13    14    1
    17    14    15   ar
    18    14    22   ar
    19    15    16   ar
    20    16    17   ar
    21    16    20    1
    22    17    18    1
    23    17    21   ar
    24    18    19    1
    25    19    20    1
    26    21    22   ar
