@<TRIPOS>MOLECULE
32545_ChemDiv_6049-0242
 25 28 0 0 0
SMALL
GASTEIGER
Energy = 0

@<TRIPOS>ATOM
      1 C          -1.7420    0.6130    0.0000 C.ar    1  LIG1        0.0169
      2 C          -2.4210   -0.1210    0.0000 C.ar    1  LIG1        0.0185
      3 C          -2.1170   -1.0750    0.0000 C.ar    1  LIG1        0.0813
      4 N          -1.1330   -1.2920    0.0000 N.ar    1  LIG1       -0.2454
      5 C          -0.4670   -0.5540    0.0000 C.ar    1  LIG1        0.0813
      6 C          -0.7710    0.4170    0.0000 C.ar    1  LIG1        0.0203
      7 C           0.5250   -0.7710    0.0000 C.ar    1  LIG1        0.0177
      8 C           1.1920   -0.0290    0.0000 C.ar    1  LIG1        0.0030
      9 C           2.1580   -0.2290    0.0000 C.ar    1  LIG1        0.0176
     10 C           2.4630   -1.1880    0.0000 C.ar    1  LIG1        0.0655
     11 N           3.4380   -1.3790    0.0000 N.ar    1  LIG1       -0.2864
     12 C           4.1670   -0.6960    0.0000 C.ar    1  LIG1        0.1828
     13 N           5.0460   -1.2040    0.0000 N.ar    1  LIG1       -0.2220
     14 C           4.8380   -2.1540    0.0000 C.ar    1  LIG1        0.1196
     15 C           3.8670   -2.3000    0.0000 C.ar    1  LIG1        0.1022
     16 C           1.8000   -1.9380    0.0000 C.ar    1  LIG1        0.0176
     17 C           0.8290   -1.7250    0.0000 C.ar    1  LIG1        0.0030
     18 C          -2.7830   -1.8130    0.0000 C.ar    1  LIG1        0.0188
     19 C          -3.7540   -1.6170    0.0000 C.ar    1  LIG1       -0.0027
     20 C          -4.0580   -0.6420    0.0000 C.ar    1  LIG1       -0.0218
     21 C          -3.3960    0.0920    0.0000 C.ar    1  LIG1       -0.0027
     22 C          -5.0500   -0.4290    0.0000 C.3     1  LIG1        0.0310
     23 C          -2.0210    1.5790    0.0000 C.2     1  LIG1        0.0730
     24 O          -1.3460    2.3040    0.0000 O.co2   1  LIG1       -0.5446
     25 O          -3.0000    1.8130    0.0000 O.co2   1  LIG1       -0.5446
@<TRIPOS>BOND
     1     1     2   ar
     2     1     6   ar
     3     1    23    1
     4     2     3   ar
     5     2    21   ar
     6     3     4   ar
     7     3    18   ar
     8     4     5   ar
     9     5     6   ar
    10     5     7    1
    11     7     8   ar
    12     7    17   ar
    13     8     9   ar
    14     9    10   ar
    15    10    11    1
    16    10    16   ar
    17    11    12   ar
    18    11    15   ar
    19    12    13   ar
    20    13    14   ar
    21    14    15   ar
    22    16    17   ar
    23    18    19   ar
    24    19    20   ar
    25    20    21   ar
    26    20    22    1
    27    23    24   ar
    28    23    25   ar
