@<TRIPOS>MOLECULE
32543_ChemDiv_6055-0106
 23 25 0 0 0
SMALL
GASTEIGER
Energy = 0

@<TRIPOS>ATOM
      1 C          -0.7250   -0.8080    0.0000 C.ar    1  LIG1        0.0894
      2 C          -0.7250   -1.8080    0.0000 C.ar    1  LIG1        0.0871
      3 N          -1.5920   -2.3040    0.0000 N.ar    1  LIG1       -0.2776
      4 C          -2.4500   -1.8080    0.0000 C.ar    1  LIG1        0.3339
      5 N          -2.4500   -0.8080    0.0000 N.ar    1  LIG1       -0.2467
      6 C          -1.5920   -0.3000    0.0000 C.ar    1  LIG1        0.2671
      7 O          -1.5920    0.7000    0.0000 O.2     1  LIG1       -0.2667
      8 C          -3.3210   -0.3080    0.0000 C.3     1  LIG1        0.1382
      9 O          -3.3210   -2.3080    0.0000 O.2     1  LIG1       -0.2462
     10 C          -1.5920   -3.3040    0.0000 C.3     1  LIG1        0.1351
     11 C           0.2290   -2.1130    0.0000 C.ar    1  LIG1        0.0936
     12 N           0.8130   -1.3080    0.0000 N.ar    1  LIG1       -0.3247
     13 C           0.2290   -0.4880    0.0000 C.ar    1  LIG1        0.0660
     14 C           0.5380    0.4500    0.0000 C.ar    1  LIG1        0.0160
     15 C           1.5210    0.6630    0.0000 C.ar    1  LIG1        0.0011
     16 C           1.8290    1.6080    0.0000 C.ar    1  LIG1       -0.0042
     17 C           1.1540    2.3540    0.0000 C.ar    1  LIG1       -0.0218
     18 C           0.1750    2.1420    0.0000 C.ar    1  LIG1       -0.0042
     19 C          -0.1290    1.1960    0.0000 C.ar    1  LIG1        0.0011
     20 C           1.4630    3.3080    0.0000 C.3     1  LIG1        0.0310
     21 C           1.8130   -1.3080    0.0000 C.3     1  LIG1        0.1061
     22 C           2.3130   -2.1710    0.0000 C.3     1  LIG1        0.0245
     23 C           3.3170   -2.1710    0.0000 C.3     1  LIG1        0.0021
@<TRIPOS>BOND
     1     1     2   ar
     2     1     6   ar
     3     1    13   ar
     4     2     3   ar
     5     2    11   ar
     6     3     4   ar
     7     3    10    1
     8     4     5   ar
     9     4     9    2
    10     5     6   ar
    11     5     8    1
    12     6     7    2
    13    11    12   ar
    14    12    13   ar
    15    12    21    1
    16    13    14    1
    17    14    15   ar
    18    14    19   ar
    19    15    16   ar
    20    16    17   ar
    21    17    18   ar
    22    17    20    1
    23    18    19   ar
    24    21    22    1
    25    22    23    1
