@<TRIPOS>MOLECULE
32541_ChemDiv_6055-0097
 24 27 0 0 0
SMALL
GASTEIGER
Energy = 0

@<TRIPOS>ATOM
      1 C          -0.7460   -0.3290    0.0000 C.ar    1  LIG1        0.0913
      2 C          -0.7460   -1.3290    0.0000 C.ar    1  LIG1        0.0890
      3 N          -1.6080   -1.8250    0.0000 N.ar    1  LIG1       -0.2776
      4 C          -2.4710   -1.3290    0.0000 C.ar    1  LIG1        0.3339
      5 N          -2.4710   -0.3290    0.0000 N.ar    1  LIG1       -0.2467
      6 C          -1.6080    0.1750    0.0000 C.ar    1  LIG1        0.2672
      7 O          -1.6080    1.1790    0.0000 O.2     1  LIG1       -0.2667
      8 C          -3.3380    0.1710    0.0000 C.3     1  LIG1        0.1382
      9 O          -3.3380   -1.8290    0.0000 O.2     1  LIG1       -0.2462
     10 C          -1.6080   -2.8250    0.0000 C.3     1  LIG1        0.1351
     11 C           0.2080   -1.6330    0.0000 C.ar    1  LIG1        0.1164
     12 N           0.7920   -0.8290    0.0000 N.ar    1  LIG1       -0.2394
     13 C           0.2080   -0.0130    0.0000 C.ar    1  LIG1        0.0875
     14 C           0.5170    0.9290    0.0000 C.ar    1  LIG1        0.0179
     15 C          -0.1500    1.6710    0.0000 C.ar    1  LIG1        0.0015
     16 C           0.1540    2.6170    0.0000 C.ar    1  LIG1        0.0000
     17 C           1.1330    2.8290    0.0000 C.ar    1  LIG1        0.0000
     18 C           1.8080    2.0880    0.0000 C.ar    1  LIG1        0.0000
     19 C           1.5000    1.1420    0.0000 C.ar    1  LIG1        0.0015
     20 N           1.7920   -0.8250    0.0000 N.ar    1  LIG1       -0.2017
     21 C           2.3790   -1.6330    0.0000 C.ar    1  LIG1        0.2230
     22 N           3.3330   -1.3250    0.0000 N.ar    1  LIG1       -0.1236
     23 N           3.3330   -0.3250    0.0000 N.ar    1  LIG1       -0.1236
     24 C           2.3790   -0.0130    0.0000 C.ar    1  LIG1        0.2230
@<TRIPOS>BOND
     1     1     2   ar
     2     1     6   ar
     3     1    13   ar
     4     2     3   ar
     5     2    11   ar
     6     3     4   ar
     7     3    10    1
     8     4     5   ar
     9     4     9    2
    10     5     6   ar
    11     5     8    1
    12     6     7    2
    13    11    12   ar
    14    12    13   ar
    15    12    20    1
    16    13    14    1
    17    14    15   ar
    18    14    19   ar
    19    15    16   ar
    20    16    17   ar
    21    17    18   ar
    22    18    19   ar
    23    20    21   ar
    24    20    24   ar
    25    21    22   ar
    26    22    23   ar
    27    23    24   ar
