@<TRIPOS>MOLECULE
32547_ChemDiv_6049-0258
 30 34 0 0 0
SMALL
GASTEIGER
Energy = 0

@<TRIPOS>ATOM
      1 N          -0.2880   -0.9210    0.0000 N.ar    1  LIG1       -0.2724
      2 C          -0.2750   -1.8670    0.0000 C.ar    1  LIG1        0.1764
      3 N          -1.0750   -2.3460    0.0000 N.2     1  LIG1       -0.2131
      4 C          -1.9080   -1.8830    0.0000 C.3     1  LIG1        0.2316
      5 C          -1.9170   -0.9540    0.0000 C.3     1  LIG1        0.1825
      6 C          -1.1130   -0.4670    0.0000 C.3     1  LIG1        0.1316
      7 C          -1.1210    0.4790    0.0000 C.ar    1  LIG1        0.0332
      8 C          -1.9380    0.9290    0.0000 C.ar    1  LIG1        0.1383
      9 O          -2.6000    0.2750    0.0000 O.3     1  LIG1       -0.4619
     10 C          -1.9540    1.8750    0.0000 C.ar    1  LIG1        0.0367
     11 C          -1.1460    2.3580    0.0000 C.ar    1  LIG1        0.0031
     12 C          -0.3250    1.9080    0.0000 C.ar    1  LIG1       -0.0001
     13 C          -0.3040    0.9670    0.0000 C.ar    1  LIG1        0.0006
     14 C          -3.3500   -0.3000    0.0000 C.2     1  LIG1        0.3243
     15 O          -3.3500    0.6670    0.0000 O.2     1  LIG1       -0.2498
     16 O          -4.2000   -0.8250    0.0000 O.3     1  LIG1       -0.4442
     17 C          -4.2040   -1.7580    0.0000 C.3     1  LIG1        0.2556
     18 C          -2.7250   -2.3540    0.0000 C.3     1  LIG1        0.0707
     19 S           0.6250   -2.1420    0.0000 S.2     1  LIG1       -0.0457
     20 C           1.1630   -1.3830    0.0000 C.ar    1  LIG1        0.0884
     21 C           0.6040   -0.6210    0.0000 C.ar    1  LIG1        0.2686
     22 O           0.8830    0.2830    0.0000 O.2     1  LIG1       -0.2664
     23 C           2.1040   -1.3790    0.0000 C.2     1  LIG1        0.0141
     24 C           2.6250   -0.6000    0.0000 C.ar    1  LIG1        0.0346
     25 C           3.5380   -0.3880    0.0000 C.ar    1  LIG1        0.0804
     26 N           3.6210    0.5500    0.0000 N.ar    1  LIG1       -0.1736
     27 N           2.7580    0.9210    0.0000 N.ar    1  LIG1       -0.2477
     28 C           2.1420    0.2080    0.0000 C.ar    1  LIG1        0.0963
     29 C           2.5210    1.8250    0.0000 C.3     1  LIG1        0.1537
     30 C           4.2000   -1.0460    0.0000 C.3     1  LIG1        0.0540
@<TRIPOS>BOND
     1     1     2   ar
     2     1     6    1
     3     1    21   ar
     4     2     3    2
     5     2    19   ar
     6     3     4    1
     7     4     5    1
     8     4     9    1
     9     4    18    1
    10     5     6    1
    11     5    14    1
    12     6     7    1
    13     7     8   ar
    14     7    13   ar
    15     8     9    1
    16     8    10   ar
    17    10    11   ar
    18    11    12   ar
    19    12    13   ar
    20    14    15    2
    21    14    16    1
    22    16    17    1
    23    19    20   ar
    24    20    21   ar
    25    20    23    2
    26    21    22    2
    27    23    24    1
    28    24    25   ar
    29    24    28   ar
    30    25    26   ar
    31    25    30    1
    32    26    27   ar
    33    27    28   ar
    34    27    29    1
