@<TRIPOS>MOLECULE
32558_ChemDiv_6214-0460
 28 30 0 0 0
SMALL
GASTEIGER
Energy = 0

@<TRIPOS>ATOM
      1 S          -0.0830    1.5460    0.0000 S.O2    1  LIG1       -0.0083
      2 C          -0.4000    0.5920    0.0000 C.3     1  LIG1        0.1705
      3 C           0.4170    0.0000    0.0000 C.3     1  LIG1        0.1013
      4 N           0.4170   -0.9960    0.0000 N.am    1  LIG1       -0.2718
      5 C          -0.4420   -1.5040    0.0000 C.2     1  LIG1        0.2494
      6 C          -1.3130   -1.0170    0.0000 C.ar    1  LIG1        0.0566
      7 C          -2.1670   -1.5040    0.0000 C.ar    1  LIG1        0.0414
      8 C          -3.0330   -1.0170    0.0000 C.ar    1  LIG1        0.1387
      9 O          -3.8920   -1.5250    0.0000 O.3     1  LIG1       -0.4755
     10 C          -4.7630   -1.0330    0.0000 C.3     1  LIG1        0.2055
     11 C          -5.6170   -1.5250    0.0000 C.3     1  LIG1        0.0512
     12 C          -3.0330   -0.0170    0.0000 C.ar    1  LIG1        0.0369
     13 C          -2.1670    0.4830    0.0000 C.ar    1  LIG1        0.0033
     14 C          -1.3130    0.0000    0.0000 C.ar    1  LIG1        0.0047
     15 O          -0.4420   -2.5130    0.0000 O.2     1  LIG1       -0.2699
     16 C           1.2880   -1.5040    0.0000 C.3     1  LIG1        0.1204
     17 C           2.1540   -0.9960    0.0000 C.ar    1  LIG1       -0.0023
     18 C           3.0210   -1.4960    0.0000 C.ar    1  LIG1       -0.0029
     19 C           3.8750   -0.9960    0.0000 C.ar    1  LIG1       -0.0045
     20 C           3.8750    0.0040    0.0000 C.ar    1  LIG1       -0.0222
     21 C           3.0080    0.5080    0.0000 C.ar    1  LIG1       -0.0045
     22 C           2.1380    0.0000    0.0000 C.ar    1  LIG1       -0.0029
     23 C           4.7420    0.5130    0.0000 C.3     1  LIG1        0.0264
     24 C           5.6130    0.0210    0.0000 C.3     1  LIG1        0.0050
     25 C           1.2290    0.5920    0.0000 C.3     1  LIG1        0.0469
     26 C           0.9130    1.5460    0.0000 C.3     1  LIG1        0.1527
     27 O          -1.0420    1.8040    0.0000 O.2     1  LIG1       -0.1729
     28 O           0.1830    2.5170    0.0000 O.2     1  LIG1       -0.1729
@<TRIPOS>BOND
     1     1     2    1
     2     1    26    1
     3     1    27    2
     4     1    28    2
     5     2     3    1
     6     3     4    1
     7     3    25    1
     8     4     5   am
     9     4    16    1
    10     5     6    1
    11     5    15    2
    12     6     7   ar
    13     6    14   ar
    14     7     8   ar
    15     8     9    1
    16     8    12   ar
    17     9    10    1
    18    10    11    1
    19    12    13   ar
    20    13    14   ar
    21    16    17    1
    22    17    18   ar
    23    17    22   ar
    24    18    19   ar
    25    19    20   ar
    26    20    21   ar
    27    20    23    1
    28    21    22   ar
    29    23    24    1
    30    25    26    1
