@<TRIPOS>MOLECULE
32553_ChemDiv_6049-0483
 20 21 0 0 0
SMALL
GASTEIGER
Energy = 0

@<TRIPOS>ATOM
      1 C          -0.1750   -0.5170    0.0000 C.ar    1  LIG1        0.1248
      2 C          -1.1250   -0.2580    0.0000 C.ar    1  LIG1        0.1125
      3 C          -1.6960   -1.1040    0.0000 C.ar    1  LIG1        0.0752
      4 N          -1.0630   -1.8830    0.0000 N.ar    1  LIG1       -0.2120
      5 S          -0.1330   -1.5250    0.0000 S.2     1  LIG1        0.0296
      6 C          -2.7000   -1.1580    0.0000 C.3     1  LIG1        0.0531
      7 C          -1.4830    0.6710    0.0000 C.2     1  LIG1        0.3442
      8 O          -0.8790    1.4250    0.0000 O.2     1  LIG1       -0.2448
      9 O          -2.4880    0.8080    0.0000 O.3     1  LIG1       -0.4454
     10 C          -2.8540    1.7250    0.0000 C.3     1  LIG1        0.2089
     11 C          -3.8330    1.8880    0.0000 C.3     1  LIG1        0.0513
     12 N           0.5290    0.1830    0.0000 N.pl3   1  LIG1       -0.2034
     13 C           1.4960   -0.0880    0.0000 C.ar    1  LIG1        0.0825
     14 C           2.2000    0.6380    0.0000 C.ar    1  LIG1        0.0288
     15 C           3.1670    0.3920    0.0000 C.ar    1  LIG1        0.0590
     16 C           3.4670   -0.5830    0.0000 C.ar    1  LIG1        0.0123
     17 C           2.7380   -1.2790    0.0000 C.ar    1  LIG1        0.0136
     18 C           1.7670   -1.0420    0.0000 C.ar    1  LIG1        0.0729
     19 CL          1.0790   -1.7670    0.0000 Cl      1  LIG1       -0.0809
     20 CL          3.8290    1.1420    0.0000 Cl      1  LIG1       -0.0822
@<TRIPOS>BOND
     1     1     2   ar
     2     1     5   ar
     3     1    12    1
     4     2     3   ar
     5     2     7    1
     6     3     4   ar
     7     3     6    1
     8     4     5   ar
     9     7     8    2
    10     7     9    1
    11     9    10    1
    12    10    11    1
    13    12    13    1
    14    13    14   ar
    15    13    18   ar
    16    14    15   ar
    17    15    16   ar
    18    15    20    1
    19    16    17   ar
    20    17    18   ar
    21    18    19    1
