@<TRIPOS>MOLECULE
32550_ChemDiv_6208-0484
 35 39 0 0 0
SMALL
GASTEIGER
Energy = 0

@<TRIPOS>ATOM
      1 C           3.0960   -1.2580    0.0000 C.ar    1  LIG1        0.0793
      2 C           3.9630   -1.7630    0.0000 C.ar    1  LIG1        0.0532
      3 C           4.8210   -1.2580    0.0000 C.ar    1  LIG1        0.0443
      4 C           4.8210   -0.2540    0.0000 C.ar    1  LIG1        0.1766
      5 C           3.9630    0.2460    0.0000 C.ar    1  LIG1        0.1777
      6 C           3.0960   -0.2540    0.0000 C.ar    1  LIG1        0.0569
      7 O           4.1630    1.2210    0.0000 O.3     1  LIG1       -0.4346
      8 C           5.1420    1.3250    0.0000 C.3     1  LIG1        0.4294
      9 O           5.5630    0.4250    0.0000 O.3     1  LIG1       -0.4346
     10 C           3.9630   -2.7540    0.0000 C.2     1  LIG1        0.1748
     11 O           3.0960   -3.2420    0.0000 O.2     1  LIG1       -0.2913
     12 C           4.8170   -3.2420    0.0000 C.3     1  LIG1        0.0773
     13 N           2.2330   -1.7630    0.0000 N.am    1  LIG1       -0.1778
     14 C           1.3880   -1.2580    0.0000 C.2     1  LIG1        0.2619
     15 C           0.5000   -1.7630    0.0000 C.3     1  LIG1        0.1609
     16 N          -0.3580   -1.2580    0.0000 N.3     1  LIG1       -0.2548
     17 C          -1.2250   -1.7630    0.0000 C.3     1  LIG1        0.1362
     18 C          -2.0880   -1.2580    0.0000 C.3     1  LIG1        0.1569
     19 N          -2.0880   -0.2540    0.0000 N.4     1  LIG1        0.3814
     20 C          -2.9540    0.2460    0.0000 C.3     1  LIG1        0.1331
     21 C          -3.8210   -0.2460    0.0000 C.ar    1  LIG1        0.0328
     22 C          -3.8210   -1.2460    0.0000 C.ar    1  LIG1        0.0016
     23 C          -4.7000   -1.7500    0.0000 C.ar    1  LIG1       -0.0001
     24 C          -5.5670   -1.2330    0.0000 C.ar    1  LIG1       -0.0000
     25 C          -5.5670   -0.2330    0.0000 C.ar    1  LIG1       -0.0001
     26 C          -4.6880    0.2580    0.0000 C.ar    1  LIG1        0.0016
     27 C          -2.9540    1.2380    0.0000 C.ar    1  LIG1        0.0328
     28 C          -2.0880    1.7420    0.0000 C.ar    1  LIG1        0.0016
     29 C          -2.0880    2.7420    0.0000 C.ar    1  LIG1       -0.0001
     30 C          -2.9540    3.2460    0.0000 C.ar    1  LIG1       -0.0000
     31 C          -3.8210    2.7420    0.0000 C.ar    1  LIG1       -0.0001
     32 C          -3.8210    1.7250    0.0000 C.ar    1  LIG1        0.0016
     33 C          -1.2250    0.2460    0.0000 C.3     1  LIG1        0.1569
     34 C          -0.3580   -0.2540    0.0000 C.3     1  LIG1        0.1362
     35 O           1.3880   -0.2540    0.0000 O.2     1  LIG1       -0.2715
@<TRIPOS>BOND
     1     1     2   ar
     2     1     6   ar
     3     1    13    1
     4     2     3   ar
     5     2    10    1
     6     3     4   ar
     7     4     5   ar
     8     4     9    1
     9     5     6   ar
    10     5     7    1
    11     7     8    1
    12     8     9    1
    13    10    11    2
    14    10    12    1
    15    13    14   am
    16    14    15    1
    17    14    35    2
    18    15    16    1
    19    16    17    1
    20    16    34    1
    21    17    18    1
    22    18    19    1
    23    19    20    1
    24    19    33    1
    25    20    21    1
    26    20    27    1
    27    21    22   ar
    28    21    26   ar
    29    22    23   ar
    30    23    24   ar
    31    24    25   ar
    32    25    26   ar
    33    27    28   ar
    34    27    32   ar
    35    28    29   ar
    36    29    30   ar
    37    30    31   ar
    38    31    32   ar
    39    33    34    1
