@<TRIPOS>MOLECULE
32559_ChemDiv_6049-1623
 24 28 0 0 0
SMALL
GASTEIGER
Energy = 0

@<TRIPOS>ATOM
      1 C           0.9670   -0.8670    0.0000 C.ar    1  LIG1        0.2034
      2 O           1.9630   -0.8380    0.0000 O.2     1  LIG1       -0.4163
      3 C           2.4290    0.0250    0.0000 C.ar    1  LIG1        0.3458
      4 C           1.8750    0.8790    0.0000 C.ar    1  LIG1        0.0761
      5 C           0.9170    0.8290    0.0000 C.ar    1  LIG1        0.0094
      6 C           0.4540   -0.0460    0.0000 C.ar    1  LIG1        0.0426
      7 C           0.3920    1.6670    0.0000 C.ar    1  LIG1        0.0003
      8 C           0.8130    2.5500    0.0000 C.ar    1  LIG1        0.0000
      9 C           1.8250    2.5880    0.0000 C.ar    1  LIG1        0.0002
     10 C           2.3250    1.7580    0.0000 C.ar    1  LIG1        0.0065
     11 O           3.4250    0.0920    0.0000 O.2     1  LIG1       -0.2445
     12 C           0.4920   -1.7290    0.0000 C.2     1  LIG1        0.2995
     13 N          -0.5080   -1.7290    0.0000 N.am    1  LIG1       -0.2025
     14 C          -0.9830   -0.8670    0.0000 C.3     1  LIG1        0.0790
     15 C          -0.4670   -0.0170    0.0000 C.3     1  LIG1        0.0200
     16 C          -0.9460    0.8670    0.0000 C.3     1  LIG1        0.0017
     17 C          -1.8460    0.5920    0.0000 C.3     1  LIG1        0.0001
     18 C          -2.4830   -0.4460    0.0000 C.3     1  LIG1        0.0017
     19 C          -2.0630   -1.2460    0.0000 C.3     1  LIG1        0.0200
     20 C          -3.4290   -0.2210    0.0000 C.3     1  LIG1        0.0001
     21 C          -2.4710    0.0170    0.0000 C.3     1  LIG1        0.0017
     22 C          -1.9750   -0.8670    0.0000 C.3     1  LIG1        0.0200
     23 C          -1.9380    0.8960    0.0000 C.3     1  LIG1        0.0001
     24 O           1.0080   -2.5830    0.0000 O.2     1  LIG1       -0.2650
@<TRIPOS>BOND
     1     1     2   ar
     2     1     6   ar
     3     1    12    1
     4     2     3   ar
     5     3     4   ar
     6     3    11    2
     7     4     5   ar
     8     4    10   ar
     9     5     6   ar
    10     5     7   ar
    11     7     8   ar
    12     8     9   ar
    13     9    10   ar
    14    12    13   am
    15    12    24    2
    16    13    14    1
    17    14    15    1
    18    14    19    1
    19    14    22    1
    20    15    16    1
    21    16    17    1
    22    16    23    1
    23    17    18    1
    24    18    19    1
    25    18    20    1
    26    20    21    1
    27    21    22    1
    28    21    23    1
