@<TRIPOS>MOLECULE
32557_ChemDiv_6049-1069
 29 32 0 0 0
SMALL
GASTEIGER
Energy = 0

@<TRIPOS>ATOM
      1 C           2.0210   -0.8750    0.0000 C.ar    1  LIG1        0.2034
      2 O           3.0290   -0.8460    0.0000 O.2     1  LIG1       -0.4163
      3 C           3.4960    0.0250    0.0000 C.ar    1  LIG1        0.3458
      4 C           2.9380    0.8880    0.0000 C.ar    1  LIG1        0.0761
      5 C           1.9670    0.8330    0.0000 C.ar    1  LIG1        0.0094
      6 C           1.5000   -0.0540    0.0000 C.ar    1  LIG1        0.0426
      7 C           1.4420    1.6830    0.0000 C.ar    1  LIG1        0.0003
      8 C           1.8670    2.5750    0.0000 C.ar    1  LIG1        0.0000
      9 C           2.8830    2.6130    0.0000 C.ar    1  LIG1        0.0002
     10 C           3.3920    1.7750    0.0000 C.ar    1  LIG1        0.0065
     11 O           4.5080    0.0920    0.0000 O.2     1  LIG1       -0.2445
     12 C           1.5420   -1.7500    0.0000 C.2     1  LIG1        0.2996
     13 O           2.0580   -2.6080    0.0000 O.2     1  LIG1       -0.2650
     14 N           0.5330   -1.7500    0.0000 N.am    1  LIG1       -0.1990
     15 C           0.0290   -0.8790    0.0000 C.3     1  LIG1        0.1162
     16 C          -0.9580   -0.9250    0.0000 C.3     1  LIG1        0.0322
     17 C          -1.4880   -0.0790    0.0000 C.3     1  LIG1        0.0463
     18 C          -2.4830   -0.0920    0.0000 C.ar    1  LIG1       -0.0184
     19 C          -3.0130    0.7710    0.0000 C.ar    1  LIG1       -0.0040
     20 C          -4.0040    0.7290    0.0000 C.ar    1  LIG1       -0.0003
     21 C          -4.5130   -0.1500    0.0000 C.ar    1  LIG1       -0.0000
     22 C          -3.9710   -0.9960    0.0000 C.ar    1  LIG1       -0.0003
     23 C          -2.9630   -0.9420    0.0000 C.ar    1  LIG1       -0.0040
     24 C          -1.0210    0.8170    0.0000 C.ar    1  LIG1       -0.0184
     25 C          -0.0250    0.8460    0.0000 C.ar    1  LIG1       -0.0040
     26 C           0.4540    1.7290    0.0000 C.ar    1  LIG1       -0.0003
     27 C          -0.0880    2.5920    0.0000 C.ar    1  LIG1       -0.0000
     28 C          -1.0880    2.5580    0.0000 C.ar    1  LIG1       -0.0003
     29 C          -1.5380    1.6580    0.0000 C.ar    1  LIG1       -0.0040
@<TRIPOS>BOND
     1     1     2   ar
     2     1     6   ar
     3     1    12    1
     4     2     3   ar
     5     3     4   ar
     6     3    11    2
     7     4     5   ar
     8     4    10   ar
     9     5     6   ar
    10     5     7   ar
    11     7     8   ar
    12     8     9   ar
    13     9    10   ar
    14    12    13    2
    15    12    14   am
    16    14    15    1
    17    15    16    1
    18    16    17    1
    19    17    18    1
    20    17    24    1
    21    18    19   ar
    22    18    23   ar
    23    19    20   ar
    24    20    21   ar
    25    21    22   ar
    26    22    23   ar
    27    24    25   ar
    28    24    29   ar
    29    25    26   ar
    30    26    27   ar
    31    27    28   ar
    32    28    29   ar
