@<TRIPOS>MOLECULE
32556_ChemDiv_6214-0134
 29 31 0 0 0
SMALL
GASTEIGER
Energy = 0

@<TRIPOS>ATOM
      1 S           0.3500    1.5460    0.0000 S.O2    1  LIG1       -0.0083
      2 C           0.0330    0.5960    0.0000 C.3     1  LIG1        0.1705
      3 C           0.8580    0.0000    0.0000 C.3     1  LIG1        0.1013
      4 N           0.8580   -1.0080    0.0000 N.am    1  LIG1       -0.2718
      5 C          -0.0080   -1.5130    0.0000 C.2     1  LIG1        0.2494
      6 C          -0.8750   -1.0130    0.0000 C.ar    1  LIG1        0.0566
      7 C          -1.7290   -1.5130    0.0000 C.ar    1  LIG1        0.0414
      8 C          -2.5960   -1.0290    0.0000 C.ar    1  LIG1        0.1387
      9 O          -3.4580   -1.5210    0.0000 O.3     1  LIG1       -0.4755
     10 C          -4.3250   -1.0330    0.0000 C.3     1  LIG1        0.2054
     11 C          -5.1790   -1.5330    0.0000 C.3     1  LIG1        0.0473
     12 C          -6.0420   -1.0500    0.0000 C.3     1  LIG1        0.0040
     13 C          -2.5960   -0.0210    0.0000 C.ar    1  LIG1        0.0369
     14 C          -1.7290    0.4880    0.0000 C.ar    1  LIG1        0.0033
     15 C          -0.8750   -0.0130    0.0000 C.ar    1  LIG1        0.0047
     16 O          -0.0080   -2.5170    0.0000 O.2     1  LIG1       -0.2699
     17 C           1.7250   -1.5000    0.0000 C.3     1  LIG1        0.1204
     18 C           2.5880   -0.9920    0.0000 C.ar    1  LIG1       -0.0021
     19 C           3.4540   -1.4920    0.0000 C.ar    1  LIG1        0.0005
     20 C           4.3210   -0.9920    0.0000 C.ar    1  LIG1        0.0366
     21 C           4.3080    0.0080    0.0000 C.ar    1  LIG1        0.1387
     22 C           3.4380    0.5080    0.0000 C.ar    1  LIG1        0.0366
     23 C           2.5710    0.0000    0.0000 C.ar    1  LIG1        0.0005
     24 O           5.1750    0.5170    0.0000 O.3     1  LIG1       -0.4714
     25 C           6.0420    0.0250    0.0000 C.3     1  LIG1        0.2525
     26 C           1.6630    0.5960    0.0000 C.3     1  LIG1        0.0469
     27 C           1.3580    1.5460    0.0000 C.3     1  LIG1        0.1527
     28 O          -0.6000    1.8080    0.0000 O.2     1  LIG1       -0.1729
     29 O           0.6170    2.5210    0.0000 O.2     1  LIG1       -0.1729
@<TRIPOS>BOND
     1     1     2    1
     2     1    27    1
     3     1    28    2
     4     1    29    2
     5     2     3    1
     6     3     4    1
     7     3    26    1
     8     4     5   am
     9     4    17    1
    10     5     6    1
    11     5    16    2
    12     6     7   ar
    13     6    15   ar
    14     7     8   ar
    15     8     9    1
    16     8    13   ar
    17     9    10    1
    18    10    11    1
    19    11    12    1
    20    13    14   ar
    21    14    15   ar
    22    17    18    1
    23    18    19   ar
    24    18    23   ar
    25    19    20   ar
    26    20    21   ar
    27    21    22   ar
    28    21    24    1
    29    22    23   ar
    30    24    25    1
    31    26    27    1
