@<TRIPOS>MOLECULE
32560_ChemDiv_6214-0639
 30 32 0 0 0
SMALL
GASTEIGER
Energy = 0

@<TRIPOS>ATOM
      1 S          -0.5000    1.5380    0.0000 S.O2    1  LIG1       -0.0083
      2 C          -0.8080    0.5880    0.0000 C.3     1  LIG1        0.1705
      3 C           0.0000   -0.0040    0.0000 C.3     1  LIG1        0.1013
      4 N          -0.0080   -1.0130    0.0000 N.am    1  LIG1       -0.2718
      5 C          -0.8750   -1.5130    0.0000 C.2     1  LIG1        0.2493
      6 C          -1.7380   -1.0130    0.0000 C.ar    1  LIG1        0.0536
      7 C          -1.7380   -0.0040    0.0000 C.ar    1  LIG1        0.0042
      8 C          -2.5960    0.4960    0.0000 C.ar    1  LIG1       -0.0041
      9 C          -3.4710    0.0000    0.0000 C.ar    1  LIG1       -0.0228
     10 C          -4.3290    0.5080    0.0000 C.3     1  LIG1        0.0189
     11 C          -3.8330    1.3670    0.0000 C.3     1  LIG1        0.0044
     12 C          -4.8170   -0.3630    0.0000 C.3     1  LIG1        0.0044
     13 C          -5.1920    1.0040    0.0000 C.3     1  LIG1        0.0044
     14 C          -3.4710   -1.0000    0.0000 C.ar    1  LIG1       -0.0041
     15 C          -2.6000   -1.5000    0.0000 C.ar    1  LIG1        0.0042
     16 O          -0.8750   -2.5080    0.0000 O.2     1  LIG1       -0.2699
     17 C           0.8580   -1.5080    0.0000 C.3     1  LIG1        0.1204
     18 C           1.7170   -1.0130    0.0000 C.ar    1  LIG1       -0.0022
     19 C           1.7170   -0.0170    0.0000 C.ar    1  LIG1       -0.0013
     20 C           2.5750    0.4920    0.0000 C.ar    1  LIG1        0.0142
     21 C           3.4500   -0.0170    0.0000 C.ar    1  LIG1        0.0479
     22 N           4.3210    0.4920    0.0000 N.pl3   1  LIG1       -0.3041
     23 C           5.1880   -0.0170    0.0000 C.3     1  LIG1        0.1122
     24 C           4.3210    1.4880    0.0000 C.3     1  LIG1        0.1122
     25 C           3.4500   -1.0170    0.0000 C.ar    1  LIG1        0.0142
     26 C           2.5880   -1.5130    0.0000 C.ar    1  LIG1       -0.0013
     27 C           0.8130    0.5830    0.0000 C.3     1  LIG1        0.0469
     28 C           0.5040    1.5330    0.0000 C.3     1  LIG1        0.1527
     29 O          -1.4540    1.8040    0.0000 O.2     1  LIG1       -0.1729
     30 O          -0.2290    2.5130    0.0000 O.2     1  LIG1       -0.1729
@<TRIPOS>BOND
     1     1     2    1
     2     1    28    1
     3     1    29    2
     4     1    30    2
     5     2     3    1
     6     3     4    1
     7     3    27    1
     8     4     5   am
     9     4    17    1
    10     5     6    1
    11     5    16    2
    12     6     7   ar
    13     6    15   ar
    14     7     8   ar
    15     8     9   ar
    16     9    10    1
    17     9    14   ar
    18    10    11    1
    19    10    12    1
    20    10    13    1
    21    14    15   ar
    22    17    18    1
    23    18    19   ar
    24    18    26   ar
    25    19    20   ar
    26    20    21   ar
    27    21    22    1
    28    21    25   ar
    29    22    23    1
    30    22    24    1
    31    25    26   ar
    32    27    28    1
