@<TRIPOS>MOLECULE
32565_ChemDiv_D252-0137
 27 29 0 0 0
SMALL
GASTEIGER
Energy = 0

@<TRIPOS>ATOM
      1 C          -0.7210   -0.3080    0.0000 C.ar    1  LIG1        0.0894
      2 C          -0.7210   -1.3080    0.0000 C.ar    1  LIG1        0.0871
      3 N          -1.5830   -1.8080    0.0000 N.ar    1  LIG1       -0.2776
      4 C          -2.4460   -1.3080    0.0000 C.ar    1  LIG1        0.3339
      5 N          -2.4460   -0.3080    0.0000 N.ar    1  LIG1       -0.2467
      6 C          -1.5830    0.1920    0.0000 C.ar    1  LIG1        0.2671
      7 O          -1.5830    1.1920    0.0000 O.2     1  LIG1       -0.2667
      8 C          -3.3250    0.1920    0.0000 C.3     1  LIG1        0.1382
      9 O          -3.3250   -1.8170    0.0000 O.2     1  LIG1       -0.2462
     10 C          -1.5830   -2.8080    0.0000 C.3     1  LIG1        0.1351
     11 C           0.2330   -1.6130    0.0000 C.ar    1  LIG1        0.0937
     12 N           0.8170   -0.8080    0.0000 N.ar    1  LIG1       -0.3208
     13 C           0.2330    0.0000    0.0000 C.ar    1  LIG1        0.0665
     14 C           0.5790    0.9330    0.0000 C.ar    1  LIG1        0.0222
     15 C          -0.0540    1.7040    0.0000 C.ar    1  LIG1        0.0359
     16 BR         -0.9170    2.2040    0.0000 Br      1  LIG1       -0.0490
     17 C           0.2920    2.6330    0.0000 C.ar    1  LIG1        0.0067
     18 C           1.2790    2.8130    0.0000 C.ar    1  LIG1        0.0005
     19 C           1.9130    2.0290    0.0000 C.ar    1  LIG1        0.0001
     20 C           1.5670    1.1000    0.0000 C.ar    1  LIG1        0.0019
     21 C           1.8170   -0.8080    0.0000 C.3     1  LIG1        0.1598
     22 C           2.3170   -1.6790    0.0000 C.3     1  LIG1        0.2078
     23 O           3.3170   -1.6790    0.0000 O.3     1  LIG1       -0.2182
     24 C           2.3210    0.0540    0.0000 C.3     1  LIG1        0.2078
     25 O           3.3210    0.0540    0.0000 O.3     1  LIG1       -0.2182
     26 C           1.5580   -1.7790    0.0000 C.3     1  LIG1        0.2078
     27 O           0.5920   -2.0330    0.0000 O.3     1  LIG1       -0.2182
@<TRIPOS>BOND
     1     1     2   ar
     2     1     6   ar
     3     1    13   ar
     4     2     3   ar
     5     2    11   ar
     6     3     4   ar
     7     3    10    1
     8     4     5   ar
     9     4     9    2
    10     5     6   ar
    11     5     8    1
    12     6     7    2
    13    11    12   ar
    14    12    13   ar
    15    12    21    1
    16    13    14    1
    17    14    15   ar
    18    14    20   ar
    19    15    16    1
    20    15    17   ar
    21    17    18   ar
    22    18    19   ar
    23    19    20   ar
    24    21    22    1
    25    21    24    1
    26    21    26    1
    27    22    23    1
    28    24    25    1
    29    26    27    1
