@<TRIPOS>MOLECULE
32563_ChemDiv_D077-0203
 24 26 0 0 0
SMALL
GASTEIGER
Energy = 0

@<TRIPOS>ATOM
      1 C          -0.5420   -0.6380    0.0000 C.ar    1  LIG1        0.0894
      2 C          -0.6670   -1.6330    0.0000 C.ar    1  LIG1        0.0871
      3 N          -1.5830   -2.0170    0.0000 N.ar    1  LIG1       -0.2776
      4 C          -2.3750   -1.4210    0.0000 C.ar    1  LIG1        0.3339
      5 N          -2.2630   -0.4250    0.0000 N.ar    1  LIG1       -0.2467
      6 C          -1.3330   -0.0330    0.0000 C.ar    1  LIG1        0.2671
      7 O          -1.2210    0.9580    0.0000 O.2     1  LIG1       -0.2667
      8 C          -3.0540    0.1710    0.0000 C.3     1  LIG1        0.1382
      9 O          -3.3040   -1.8040    0.0000 O.2     1  LIG1       -0.2462
     10 C          -1.7080   -3.0080    0.0000 C.3     1  LIG1        0.1351
     11 C           0.2460   -2.0580    0.0000 C.ar    1  LIG1        0.0939
     12 N           0.9250   -1.3170    0.0000 N.ar    1  LIG1       -0.3193
     13 C           0.4380   -0.4460    0.0000 C.ar    1  LIG1        0.0662
     14 C           0.8630    0.4500    0.0000 C.ar    1  LIG1        0.0161
     15 C           1.8630    0.5330    0.0000 C.ar    1  LIG1        0.0023
     16 C           2.2790    1.4460    0.0000 C.ar    1  LIG1        0.0114
     17 C           1.7130    2.2630    0.0000 C.ar    1  LIG1        0.0577
     18 C           0.7080    2.1710    0.0000 C.ar    1  LIG1        0.0114
     19 C           0.2880    1.2630    0.0000 C.ar    1  LIG1        0.0023
     20 CL          2.1290    3.1710    0.0000 Cl      1  LIG1       -0.0822
     21 C           1.9170   -1.4420    0.0000 C.3     1  LIG1        0.1478
     22 C           2.3080   -2.3580    0.0000 C.2     1  LIG1        0.0732
     23 O           1.7040   -3.1670    0.0000 O.co2   1  LIG1       -0.5472
     24 O           3.3000   -2.4830    0.0000 O.co2   1  LIG1       -0.5472
@<TRIPOS>BOND
     1     1     2   ar
     2     1     6   ar
     3     1    13   ar
     4     2     3   ar
     5     2    11   ar
     6     3     4   ar
     7     3    10    1
     8     4     5   ar
     9     4     9    2
    10     5     6   ar
    11     5     8    1
    12     6     7    2
    13    11    12   ar
    14    12    13   ar
    15    12    21    1
    16    13    14    1
    17    14    15   ar
    18    14    19   ar
    19    15    16   ar
    20    16    17   ar
    21    17    18   ar
    22    17    20    1
    23    18    19   ar
    24    21    22    1
    25    22    23   ar
    26    22    24   ar
