@<TRIPOS>MOLECULE
32561_ChemDiv_D077-0072
 27 30 0 0 0
SMALL
GASTEIGER
Energy = 0

@<TRIPOS>ATOM
      1 C          -0.8790   -0.5420    0.0000 C.ar    1  LIG1        0.0894
      2 C          -1.1080   -1.5170    0.0000 C.ar    1  LIG1        0.0871
      3 N          -2.0670   -1.8080    0.0000 N.ar    1  LIG1       -0.2776
      4 C          -2.7880   -1.1380    0.0000 C.ar    1  LIG1        0.3339
      5 N          -2.5750   -0.1580    0.0000 N.ar    1  LIG1       -0.2467
      6 C          -1.6170    0.1420    0.0000 C.ar    1  LIG1        0.2671
      7 O          -1.3920    1.1170    0.0000 O.2     1  LIG1       -0.2667
      8 C          -3.3040    0.5080    0.0000 C.3     1  LIG1        0.1382
      9 O          -3.7460   -1.4330    0.0000 O.2     1  LIG1       -0.2462
     10 C          -2.2790   -2.7880    0.0000 C.3     1  LIG1        0.1351
     11 C          -0.2380   -2.0290    0.0000 C.ar    1  LIG1        0.0935
     12 N           0.5080   -1.3630    0.0000 N.ar    1  LIG1       -0.3266
     13 C           0.1170   -0.4500    0.0000 C.ar    1  LIG1        0.0659
     14 C           0.6170    0.4170    0.0000 C.ar    1  LIG1        0.0160
     15 C           1.6130    0.3960    0.0000 C.ar    1  LIG1        0.0011
     16 C           2.1250    1.2540    0.0000 C.ar    1  LIG1       -0.0042
     17 C           1.6380    2.1250    0.0000 C.ar    1  LIG1       -0.0218
     18 C           0.6380    2.1380    0.0000 C.ar    1  LIG1       -0.0042
     19 C           0.1250    1.2750    0.0000 C.ar    1  LIG1        0.0011
     20 C           2.1460    2.9920    0.0000 C.3     1  LIG1        0.0310
     21 C           1.4880   -1.5830    0.0000 C.3     1  LIG1        0.0855
     22 C           2.1040   -0.7960    0.0000 C.3     1  LIG1        0.0226
     23 C           3.1040   -0.7960    0.0000 C.3     1  LIG1        0.0019
     24 C           3.7420   -1.5630    0.0000 C.3     1  LIG1        0.0001
     25 C           3.5210   -2.5380    0.0000 C.3     1  LIG1        0.0001
     26 C           2.6290   -2.9880    0.0000 C.3     1  LIG1        0.0019
     27 C           1.7210   -2.5630    0.0000 C.3     1  LIG1        0.0226
@<TRIPOS>BOND
     1     1     2   ar
     2     1     6   ar
     3     1    13   ar
     4     2     3   ar
     5     2    11   ar
     6     3     4   ar
     7     3    10    1
     8     4     5   ar
     9     4     9    2
    10     5     6   ar
    11     5     8    1
    12     6     7    2
    13    11    12   ar
    14    12    13   ar
    15    12    21    1
    16    13    14    1
    17    14    15   ar
    18    14    19   ar
    19    15    16   ar
    20    16    17   ar
    21    17    18   ar
    22    17    20    1
    23    18    19   ar
    24    21    22    1
    25    21    27    1
    26    22    23    1
    27    23    24    1
    28    24    25    1
    29    25    26    1
    30    26    27    1
