@<TRIPOS>MOLECULE
32578_ChemDiv_D038-0486
 29 32 0 0 0
SMALL
GASTEIGER
Energy = 0

@<TRIPOS>ATOM
      1 S          -1.6460    0.4960    0.0000 S.O2    1  LIG1       -0.0083
      2 C          -0.6920    0.1830    0.0000 C.3     1  LIG1        0.1705
      3 C          -0.0960    0.9960    0.0000 C.3     1  LIG1        0.1010
      4 N           0.9000    0.9960    0.0000 N.am    1  LIG1       -0.2750
      5 C           1.4080    0.1420    0.0000 C.2     1  LIG1        0.2304
      6 C           0.9000   -0.7250    0.0000 C.3     1  LIG1        0.1148
      7 C           1.4130   -1.5920    0.0000 C.ar    1  LIG1        0.0275
      8 C           1.0040   -2.5040    0.0000 C.ar    1  LIG1        0.0338
      9 C           1.7500   -3.1670    0.0000 C.ar    1  LIG1        0.1451
     10 O           2.6170   -2.6710    0.0000 O.2     1  LIG1       -0.4507
     11 C           2.4040   -1.7000    0.0000 C.ar    1  LIG1        0.1757
     12 C           1.5540   -4.1380    0.0000 C.ar    1  LIG1        0.0372
     13 C           0.6130   -4.4580    0.0000 C.ar    1  LIG1       -0.0011
     14 C          -0.1420   -3.7960    0.0000 C.ar    1  LIG1       -0.0217
     15 C           0.0670   -2.8130    0.0000 C.ar    1  LIG1       -0.0014
     16 C          -1.0880   -4.1040    0.0000 C.3     1  LIG1        0.0310
     17 O           2.4040    0.1420    0.0000 O.2     1  LIG1       -0.2745
     18 C           1.3960    1.8630    0.0000 C.3     1  LIG1        0.1210
     19 C           0.8960    2.7290    0.0000 C.ar    1  LIG1        0.0083
     20 C           1.3880    3.6080    0.0000 C.ar    1  LIG1        0.0553
     21 CL          2.3830    3.6080    0.0000 Cl      1  LIG1       -0.0825
     22 C           0.8830    4.4580    0.0000 C.ar    1  LIG1        0.0111
     23 C          -0.1130    4.4580    0.0000 C.ar    1  LIG1        0.0008
     24 C          -0.6210    3.5880    0.0000 C.ar    1  LIG1       -0.0002
     25 C          -0.1080    2.7210    0.0000 C.ar    1  LIG1       -0.0018
     26 C          -0.6920    1.8040    0.0000 C.3     1  LIG1        0.0469
     27 C          -1.6460    1.5040    0.0000 C.3     1  LIG1        0.1527
     28 O          -2.6210    0.7580    0.0000 O.2     1  LIG1       -0.1729
     29 O          -1.9130   -0.4710    0.0000 O.2     1  LIG1       -0.1729
@<TRIPOS>BOND
     1     1     2    1
     2     1    27    1
     3     1    28    2
     4     1    29    2
     5     2     3    1
     6     3     4    1
     7     3    26    1
     8     4     5   am
     9     4    18    1
    10     5     6    1
    11     5    17    2
    12     6     7    1
    13     7     8   ar
    14     7    11   ar
    15     8     9   ar
    16     8    15   ar
    17     9    10   ar
    18     9    12   ar
    19    10    11   ar
    20    12    13   ar
    21    13    14   ar
    22    14    15   ar
    23    14    16    1
    24    18    19    1
    25    19    20   ar
    26    19    25   ar
    27    20    21    1
    28    20    22   ar
    29    22    23   ar
    30    23    24   ar
    31    24    25   ar
    32    26    27    1
