@<TRIPOS>MOLECULE
32579_ChemDiv_C378-0083
 30 34 0 0 0
SMALL
GASTEIGER
Energy = 0

@<TRIPOS>ATOM
      1 C           0.8540    0.5210    0.0000 C.ar    1  LIG1        0.2033
      2 C           1.6960    1.0080    0.0000 C.ar    1  LIG1        0.0395
      3 C           2.5290    0.5210    0.0000 C.ar    1  LIG1        0.0093
      4 C           2.5290   -0.4420    0.0000 C.ar    1  LIG1        0.0761
      5 C           1.6960   -0.9290    0.0000 C.ar    1  LIG1        0.3458
      6 O           0.8540   -0.4420    0.0000 O.2     1  LIG1       -0.4163
      7 O           1.6960   -1.8920    0.0000 O.2     1  LIG1       -0.2445
      8 C           3.3710   -0.9290    0.0000 C.ar    1  LIG1        0.0065
      9 C           4.2130   -0.4420    0.0000 C.ar    1  LIG1        0.0002
     10 C           4.2130    0.5210    0.0000 C.ar    1  LIG1        0.0000
     11 C           3.3710    1.0080    0.0000 C.ar    1  LIG1        0.0003
     12 C           1.6960    1.9710    0.0000 C.ar    1  LIG1        0.0031
     13 C           0.8540    2.4580    0.0000 C.ar    1  LIG1        0.0001
     14 C           0.8540    3.4210    0.0000 C.ar    1  LIG1        0.0000
     15 C           1.6960    3.9080    0.0000 C.ar    1  LIG1        0.0000
     16 C           2.5290    3.4210    0.0000 C.ar    1  LIG1        0.0000
     17 C           2.5290    2.4580    0.0000 C.ar    1  LIG1        0.0001
     18 C           0.0210    1.0080    0.0000 C.2     1  LIG1        0.2999
     19 N          -0.8210    0.5210    0.0000 N.am    1  LIG1       -0.1942
     20 C          -0.7920   -0.4420    0.0000 C.3     1  LIG1        0.1420
     21 C          -1.5880   -0.9080    0.0000 C.ar    1  LIG1        0.0027
     22 C          -1.5790   -1.8920    0.0000 C.ar    1  LIG1        0.0376
     23 C          -2.4580   -2.4250    0.0000 C.ar    1  LIG1        0.1762
     24 C          -3.3580   -1.9040    0.0000 C.ar    1  LIG1        0.1764
     25 O          -4.2170   -3.3790    0.0000 O.3     1  LIG1       -0.4346
     26 C          -3.3080   -3.9040    0.0000 C.3     1  LIG1        0.4294
     27 O          -2.4580   -3.4290    0.0000 O.3     1  LIG1       -0.4346
     28 C          -3.3290   -0.8830    0.0000 C.ar    1  LIG1        0.0399
     29 C          -2.4880   -0.3880    0.0000 C.ar    1  LIG1        0.0008
     30 O           0.0210    1.9710    0.0000 O.2     1  LIG1       -0.2650
@<TRIPOS>BOND
     1     1     2   ar
     2     1     6   ar
     3     1    18    1
     4     2     3   ar
     5     2    12    1
     6     3     4   ar
     7     3    11   ar
     8     4     5   ar
     9     4     8   ar
    10     5     6   ar
    11     5     7    2
    12     8     9   ar
    13     9    10   ar
    14    10    11   ar
    15    12    13   ar
    16    12    17   ar
    17    13    14   ar
    18    14    15   ar
    19    15    16   ar
    20    16    17   ar
    21    18    19   am
    22    18    30    2
    23    19    20    1
    24    20    21    1
    25    21    22   ar
    26    21    29   ar
    27    22    23   ar
    28    23    24   ar
    29    23    27    1
    30    24    25    1
    31    24    28   ar
    32    25    26    1
    33    26    27    1
    34    28    29   ar
