@<TRIPOS>MOLECULE
32577_ChemDiv_6049-1097
 24 27 0 0 0
SMALL
GASTEIGER
Energy = 0

@<TRIPOS>ATOM
      1 C           1.8000   -0.4080    0.0000 C.ar    1  LIG1        0.2034
      2 O           2.8130   -0.3790    0.0000 O.2     1  LIG1       -0.4163
      3 C           3.2790    0.5000    0.0000 C.ar    1  LIG1        0.3458
      4 C           2.7170    1.3630    0.0000 C.ar    1  LIG1        0.0761
      5 C           1.7500    1.3130    0.0000 C.ar    1  LIG1        0.0094
      6 C           1.2790    0.4210    0.0000 C.ar    1  LIG1        0.0426
      7 C           1.2130    2.1630    0.0000 C.ar    1  LIG1        0.0003
      8 C           1.6420    3.0580    0.0000 C.ar    1  LIG1        0.0000
      9 C           2.6710    3.0960    0.0000 C.ar    1  LIG1        0.0002
     10 C           3.1750    2.2540    0.0000 C.ar    1  LIG1        0.0065
     11 O           4.2960    0.5670    0.0000 O.2     1  LIG1       -0.2445
     12 C           1.3170   -1.2830    0.0000 C.2     1  LIG1        0.2999
     13 N           0.3040   -1.2830    0.0000 N.am    1  LIG1       -0.1942
     14 C          -0.1920   -2.1670    0.0000 C.3     1  LIG1        0.1420
     15 C          -1.2250   -2.1670    0.0000 C.ar    1  LIG1        0.0027
     16 C          -1.7710   -1.3580    0.0000 C.ar    1  LIG1        0.0376
     17 C          -2.6830   -1.3670    0.0000 C.ar    1  LIG1        0.1762
     18 C          -3.1960   -2.2750    0.0000 C.ar    1  LIG1        0.1764
     19 O          -4.1920   -2.0460    0.0000 O.3     1  LIG1       -0.4346
     20 C          -4.3000   -1.0670    0.0000 C.3     1  LIG1        0.4294
     21 O          -3.4330   -0.6670    0.0000 O.3     1  LIG1       -0.4346
     22 C          -2.7040   -3.0920    0.0000 C.ar    1  LIG1        0.0399
     23 C          -1.7040   -3.0830    0.0000 C.ar    1  LIG1        0.0008
     24 O           1.8380   -2.1500    0.0000 O.2     1  LIG1       -0.2650
@<TRIPOS>BOND
     1     1     2   ar
     2     1     6   ar
     3     1    12    1
     4     2     3   ar
     5     3     4   ar
     6     3    11    2
     7     4     5   ar
     8     4    10   ar
     9     5     6   ar
    10     5     7   ar
    11     7     8   ar
    12     8     9   ar
    13     9    10   ar
    14    12    13   am
    15    12    24    2
    16    13    14    1
    17    14    15    1
    18    15    16   ar
    19    15    23   ar
    20    16    17   ar
    21    17    18   ar
    22    17    21    1
    23    18    19    1
    24    18    22   ar
    25    19    20    1
    26    20    21    1
    27    22    23   ar
