@<TRIPOS>MOLECULE
32575_ChemDiv_6060-0108
 23 24 0 0 0
SMALL
GASTEIGER
Energy = 0

@<TRIPOS>ATOM
      1 N           0.2080    1.2380    0.0000 N.ar    1  LIG1       -0.3208
      2 C          -0.6080    1.8170    0.0000 C.ar    1  LIG1        0.0601
      3 C          -0.3040    2.7750    0.0000 C.ar    1  LIG1        0.0183
      4 C           0.7080    2.7750    0.0000 C.ar    1  LIG1        0.0142
      5 C           1.0170    1.8170    0.0000 C.ar    1  LIG1        0.0379
      6 C           1.9670    1.5000    0.0000 C.3     1  LIG1        0.0497
      7 C           2.7130    2.1670    0.0000 C.3     1  LIG1        0.0479
      8 C           3.6670    1.8630    0.0000 C.2     1  LIG1        0.0507
      9 O           3.8710    0.8880    0.0000 O.co2   1  LIG1       -0.5492
     10 O           4.4080    2.5290    0.0000 O.co2   1  LIG1       -0.5492
     11 C          -1.5500    1.5000    0.0000 C.ar    1  LIG1        0.0159
     12 C          -2.3040    2.1670    0.0000 C.ar    1  LIG1        0.0023
     13 C          -3.2500    1.8630    0.0000 C.ar    1  LIG1        0.0114
     14 C          -3.4580    0.8880    0.0000 C.ar    1  LIG1        0.0577
     15 C          -2.7040    0.2210    0.0000 C.ar    1  LIG1        0.0114
     16 C          -1.7580    0.5290    0.0000 C.ar    1  LIG1        0.0023
     17 CL         -4.4130    0.5670    0.0000 Cl      1  LIG1       -0.0822
     18 C           0.2080    0.2250    0.0000 C.3     1  LIG1        0.2163
     19 C           1.0710   -0.2670    0.0000 C.2     1  LIG1        0.3403
     20 O           1.9250    0.2250    0.0000 O.2     1  LIG1       -0.2479
     21 O           1.0710   -1.2670    0.0000 O.3     1  LIG1       -0.4472
     22 C           0.2080   -1.7790    0.0000 C.3     1  LIG1        0.2086
     23 C           0.2080   -2.7710    0.0000 C.3     1  LIG1        0.0513
@<TRIPOS>BOND
     1     1     2   ar
     2     1     5   ar
     3     1    18    1
     4     2     3   ar
     5     2    11    1
     6     3     4   ar
     7     4     5   ar
     8     5     6    1
     9     6     7    1
    10     7     8    1
    11     8     9   ar
    12     8    10   ar
    13    11    12   ar
    14    11    16   ar
    15    12    13   ar
    16    13    14   ar
    17    14    15   ar
    18    14    17    1
    19    15    16   ar
    20    18    19    1
    21    19    20    2
    22    19    21    1
    23    21    22    1
    24    22    23    1
