@<TRIPOS>MOLECULE
32581_ChemDiv_C378-0374
 31 35 0 0 0
SMALL
GASTEIGER
Energy = 0

@<TRIPOS>ATOM
      1 C          -0.8750   -0.0420    0.0000 C.ar    1  LIG1        0.2033
      2 C          -1.7040   -0.5250    0.0000 C.ar    1  LIG1        0.0395
      3 C          -2.5460   -0.0420    0.0000 C.ar    1  LIG1        0.0093
      4 C          -2.5460    0.9290    0.0000 C.ar    1  LIG1        0.0761
      5 C          -1.7040    1.4130    0.0000 C.ar    1  LIG1        0.3458
      6 O          -0.8750    0.9290    0.0000 O.2     1  LIG1       -0.4163
      7 O          -1.7040    2.3790    0.0000 O.2     1  LIG1       -0.2445
      8 C          -3.3880    1.4130    0.0000 C.ar    1  LIG1        0.0065
      9 C          -4.2210    0.9290    0.0000 C.ar    1  LIG1        0.0002
     10 C          -4.2210   -0.0420    0.0000 C.ar    1  LIG1        0.0000
     11 C          -3.3880   -0.5250    0.0000 C.ar    1  LIG1        0.0003
     12 C          -1.7040   -1.4920    0.0000 C.ar    1  LIG1        0.0031
     13 C          -2.5460   -1.9750    0.0000 C.ar    1  LIG1       -0.0002
     14 C          -2.5460   -2.9420    0.0000 C.ar    1  LIG1       -0.0043
     15 C          -1.7040   -3.4250    0.0000 C.ar    1  LIG1       -0.0218
     16 C          -0.8750   -2.9420    0.0000 C.ar    1  LIG1       -0.0043
     17 C          -0.8750   -1.9750    0.0000 C.ar    1  LIG1       -0.0002
     18 C          -1.7040   -4.3960    0.0000 C.3     1  LIG1        0.0310
     19 C          -0.0330   -0.5250    0.0000 C.2     1  LIG1        0.2999
     20 N           0.8080   -0.0420    0.0000 N.am    1  LIG1       -0.1942
     21 C           0.7750    0.9290    0.0000 C.3     1  LIG1        0.1420
     22 C           1.5750    1.3920    0.0000 C.ar    1  LIG1        0.0027
     23 C           1.5670    2.3920    0.0000 C.ar    1  LIG1        0.0376
     24 C           2.4500    2.9170    0.0000 C.ar    1  LIG1        0.1762
     25 C           3.3540    2.3920    0.0000 C.ar    1  LIG1        0.1764
     26 O           4.2170    3.8750    0.0000 O.3     1  LIG1       -0.4346
     27 C           3.3130    4.3960    0.0000 C.3     1  LIG1        0.4294
     28 O           2.4580    3.9170    0.0000 O.3     1  LIG1       -0.4346
     29 C           3.3210    1.3710    0.0000 C.ar    1  LIG1        0.0399
     30 C           2.4790    0.8630    0.0000 C.ar    1  LIG1        0.0008
     31 O          -0.0330   -1.4920    0.0000 O.2     1  LIG1       -0.2650
@<TRIPOS>BOND
     1     1     2   ar
     2     1     6   ar
     3     1    19    1
     4     2     3   ar
     5     2    12    1
     6     3     4   ar
     7     3    11   ar
     8     4     5   ar
     9     4     8   ar
    10     5     6   ar
    11     5     7    2
    12     8     9   ar
    13     9    10   ar
    14    10    11   ar
    15    12    13   ar
    16    12    17   ar
    17    13    14   ar
    18    14    15   ar
    19    15    16   ar
    20    15    18    1
    21    16    17   ar
    22    19    20   am
    23    19    31    2
    24    20    21    1
    25    21    22    1
    26    22    23   ar
    27    22    30   ar
    28    23    24   ar
    29    24    25   ar
    30    24    28    1
    31    25    26    1
    32    25    29   ar
    33    26    27    1
    34    27    28    1
    35    29    30   ar
