@<TRIPOS>MOLECULE
32586_ChemDiv_D051-0279
 27 29 0 0 0
SMALL
GASTEIGER
Energy = 0

@<TRIPOS>ATOM
      1 S           3.1330   -1.9170    0.0000 S.O2    1  LIG1       -0.0083
      2 C           2.1750   -1.7130    0.0000 C.3     1  LIG1        0.1705
      3 C           2.0830   -0.7420    0.0000 C.3     1  LIG1        0.1014
      4 N           1.2290   -0.2460    0.0000 N.am    1  LIG1       -0.2689
      5 C           0.3830   -0.7290    0.0000 C.2     1  LIG1        0.2494
      6 C          -0.5080   -0.2250    0.0000 C.ar    1  LIG1        0.0555
      7 C          -0.5000    0.8210    0.0000 C.ar    1  LIG1        0.0190
      8 C          -1.4040    1.3380    0.0000 C.ar    1  LIG1        0.0925
      9 C          -2.2880    0.8080    0.0000 C.ar    1  LIG1        0.1594
     10 C          -2.2880   -0.2290    0.0000 C.ar    1  LIG1        0.0925
     11 C          -1.3880   -0.7420    0.0000 C.ar    1  LIG1        0.0190
     12 CL         -3.1830   -0.7460    0.0000 Cl      1  LIG1       -0.0791
     13 O          -3.1960    1.3210    0.0000 O.3     1  LIG1       -0.4738
     14 C          -3.1960    2.3500    0.0000 C.3     1  LIG1        0.2056
     15 C          -4.0920    2.8670    0.0000 C.3     1  LIG1        0.0512
     16 CL         -1.4040    2.3710    0.0000 Cl      1  LIG1       -0.0791
     17 O           0.3830   -1.7130    0.0000 O.2     1  LIG1       -0.2699
     18 C           1.2290    0.7380    0.0000 C.3     1  LIG1        0.1585
     19 C           2.0710    1.2330    0.0000 C.ar    1  LIG1        0.1430
     20 O           2.0710    2.2130    0.0000 O.2     1  LIG1       -0.4530
     21 C           2.9960    2.5080    0.0000 C.ar    1  LIG1        0.1792
     22 C           3.5630    1.7210    0.0000 C.ar    1  LIG1        0.0435
     23 C           2.9960    0.9290    0.0000 C.ar    1  LIG1        0.0379
     24 C           2.9670   -0.3460    0.0000 C.3     1  LIG1        0.0469
     25 C           3.6210   -1.0750    0.0000 C.3     1  LIG1        0.1527
     26 O           2.9250   -2.8630    0.0000 O.2     1  LIG1       -0.1729
     27 O           4.0880   -2.1250    0.0000 O.2     1  LIG1       -0.1729
@<TRIPOS>BOND
     1     1     2    1
     2     1    25    1
     3     1    26    2
     4     1    27    2
     5     2     3    1
     6     3     4    1
     7     3    24    1
     8     4     5   am
     9     4    18    1
    10     5     6    1
    11     5    17    2
    12     6     7   ar
    13     6    11   ar
    14     7     8   ar
    15     8     9   ar
    16     8    16    1
    17     9    10   ar
    18     9    13    1
    19    10    11   ar
    20    10    12    1
    21    13    14    1
    22    14    15    1
    23    18    19    1
    24    19    20   ar
    25    19    23   ar
    26    20    21   ar
    27    21    22   ar
    28    22    23   ar
    29    24    25    1
