@<TRIPOS>MOLECULE
32587_ChemDiv_6049-1117
 22 25 0 0 0
SMALL
GASTEIGER
Energy = 0

@<TRIPOS>ATOM
      1 N          -0.6500   -1.6630    0.0000 N.am    1  LIG1       -0.2526
      2 C           0.3580   -1.6630    0.0000 C.2     1  LIG1        0.2876
      3 C           0.8330   -0.7920    0.0000 C.ar    1  LIG1        0.2022
      4 O           1.8380   -0.7670    0.0000 O.2     1  LIG1       -0.4163
      5 C           2.3040    0.1040    0.0000 C.ar    1  LIG1        0.3458
      6 C           1.7460    0.9630    0.0000 C.ar    1  LIG1        0.0761
      7 C           0.7830    0.9080    0.0000 C.ar    1  LIG1        0.0094
      8 C           0.3170    0.0250    0.0000 C.ar    1  LIG1        0.0426
      9 C           0.2540    1.7500    0.0000 C.ar    1  LIG1        0.0003
     10 C           0.6790    2.6380    0.0000 C.ar    1  LIG1        0.0000
     11 C           1.6960    2.6750    0.0000 C.ar    1  LIG1        0.0002
     12 C           2.2000    1.8420    0.0000 C.ar    1  LIG1        0.0065
     13 O           3.3080    0.1670    0.0000 O.2     1  LIG1       -0.2445
     14 O           0.8750   -2.5210    0.0000 O.2     1  LIG1       -0.2662
     15 C          -1.4790   -1.1040    0.0000 C.ar    1  LIG1        0.0503
     16 C          -2.3000   -1.6920    0.0000 C.ar    1  LIG1       -0.0067
     17 C          -1.9630   -2.6710    0.0000 C.3     1  LIG1        0.0495
     18 C          -0.9830   -2.6710    0.0000 C.3     1  LIG1        0.1033
     19 C          -3.2040   -1.2670    0.0000 C.ar    1  LIG1       -0.0030
     20 C          -3.3130   -0.2880    0.0000 C.ar    1  LIG1       -0.0002
     21 C          -2.5170    0.3130    0.0000 C.ar    1  LIG1        0.0013
     22 C          -1.5960   -0.1080    0.0000 C.ar    1  LIG1        0.0146
@<TRIPOS>BOND
     1     1     2   am
     2     1    15    1
     3     1    18    1
     4     2     3    1
     5     2    14    2
     6     3     4   ar
     7     3     8   ar
     8     4     5   ar
     9     5     6   ar
    10     5    13    2
    11     6     7   ar
    12     6    12   ar
    13     7     8   ar
    14     7     9   ar
    15     9    10   ar
    16    10    11   ar
    17    11    12   ar
    18    15    16   ar
    19    15    22   ar
    20    16    17    1
    21    16    19   ar
    22    17    18    1
    23    19    20   ar
    24    20    21   ar
    25    21    22   ar
