@<TRIPOS>MOLECULE
32583_ChemDiv_D103-0732
 27 30 0 0 0
SMALL
GASTEIGER
Energy = 0

@<TRIPOS>ATOM
      1 C           1.9580   -2.0920    0.0000 C.ar    1  LIG1        0.1442
      2 O           0.9670   -2.0630    0.0000 O.2     1  LIG1       -0.4490
      3 C           0.4880   -1.1830    0.0000 C.ar    1  LIG1        0.2014
      4 C           1.0000   -0.3210    0.0000 C.ar    1  LIG1        0.0843
      5 C           2.0170   -0.3500    0.0000 C.ar    1  LIG1        0.2018
      6 C           2.4880   -1.2380    0.0000 C.ar    1  LIG1        0.0732
      7 C           3.4880   -1.2710    0.0000 C.ar    1  LIG1        0.0059
      8 C           3.9670   -2.1500    0.0000 C.ar    1  LIG1       -0.0043
      9 C           3.4420   -3.0130    0.0000 C.ar    1  LIG1       -0.0229
     10 C           2.4380   -2.9750    0.0000 C.ar    1  LIG1        0.0089
     11 C           1.9130   -3.8210    0.0000 C.3     1  LIG1        0.0339
     12 C           3.9130   -3.8920    0.0000 C.3     1  LIG1        0.0308
     13 O           2.5500    0.5040    0.0000 O.2     1  LIG1       -0.2864
     14 C          -0.5210   -1.1540    0.0000 C.2     1  LIG1        0.2809
     15 N          -1.0040   -0.2750    0.0000 N.am    1  LIG1       -0.2944
     16 C          -2.0080   -0.2420    0.0000 C.3     1  LIG1        0.1168
     17 C          -2.4880    0.6380    0.0000 C.ar    1  LIG1        0.0007
     18 C          -1.9880    1.5170    0.0000 C.ar    1  LIG1        0.0376
     19 C          -2.4880    2.3670    0.0000 C.ar    1  LIG1        0.1762
     20 C          -3.4790    2.3670    0.0000 C.ar    1  LIG1        0.1764
     21 O          -3.7750    3.3040    0.0000 O.3     1  LIG1       -0.4346
     22 C          -2.9710    3.8960    0.0000 C.3     1  LIG1        0.4294
     23 O          -2.1880    3.3040    0.0000 O.3     1  LIG1       -0.4346
     24 C          -3.9710    1.5000    0.0000 C.ar    1  LIG1        0.0399
     25 C          -3.4580    0.6380    0.0000 C.ar    1  LIG1        0.0007
     26 O          -1.0380   -2.0170    0.0000 O.2     1  LIG1       -0.2668
     27 H          -0.4830    0.5920    0.0000 H       1  LIG1        0.1501
@<TRIPOS>BOND
     1     1     2   ar
     2     1     6   ar
     3     1    10   ar
     4     2     3   ar
     5     3     4   ar
     6     3    14    1
     7     4     5   ar
     8     5     6   ar
     9     5    13    2
    10     6     7   ar
    11     7     8   ar
    12     8     9   ar
    13     9    10   ar
    14     9    12    1
    15    10    11    1
    16    14    15   am
    17    14    26    2
    18    15    16    1
    19    15    27    1
    20    16    17    1
    21    17    18   ar
    22    17    25   ar
    23    18    19   ar
    24    19    20   ar
    25    19    23    1
    26    20    21    1
    27    20    24   ar
    28    21    22    1
    29    22    23    1
    30    24    25   ar
