@<TRIPOS>MOLECULE
32589_ChemDiv_C378-0067
 28 32 0 0 0
SMALL
GASTEIGER
Energy = 0

@<TRIPOS>ATOM
      1 C          -0.0830   -0.2960    0.0000 C.ar    1  LIG1        0.2021
      2 C          -0.9460    0.2040    0.0000 C.2     1  LIG1        0.2876
      3 N          -1.8170   -0.2960    0.0000 N.am    1  LIG1       -0.2526
      4 C          -1.9130   -1.2920    0.0000 C.ar    1  LIG1        0.0503
      5 C          -2.8960   -1.4880    0.0000 C.ar    1  LIG1       -0.0067
      6 C          -3.3920   -0.6170    0.0000 C.3     1  LIG1        0.0495
      7 C          -2.7330    0.1080    0.0000 C.3     1  LIG1        0.1033
      8 C          -3.2170   -2.4420    0.0000 C.ar    1  LIG1       -0.0030
      9 C          -2.5500   -3.1960    0.0000 C.ar    1  LIG1       -0.0002
     10 C          -1.5630   -2.9960    0.0000 C.ar    1  LIG1        0.0013
     11 C          -1.2540   -2.0380    0.0000 C.ar    1  LIG1        0.0146
     12 O          -0.9460    1.2000    0.0000 O.2     1  LIG1       -0.2662
     13 C           0.7880    0.2040    0.0000 C.ar    1  LIG1        0.0395
     14 C           1.6460   -0.2960    0.0000 C.ar    1  LIG1        0.0093
     15 C           1.6460   -1.2920    0.0000 C.ar    1  LIG1        0.0761
     16 C           0.7880   -1.7960    0.0000 C.ar    1  LIG1        0.3458
     17 O          -0.0830   -1.2920    0.0000 O.2     1  LIG1       -0.4163
     18 O           0.7880   -2.7920    0.0000 O.2     1  LIG1       -0.2445
     19 C           2.5170   -1.7960    0.0000 C.ar    1  LIG1        0.0065
     20 C           3.3880   -1.2920    0.0000 C.ar    1  LIG1        0.0002
     21 C           3.3880   -0.2960    0.0000 C.ar    1  LIG1        0.0000
     22 C           2.5170    0.2040    0.0000 C.ar    1  LIG1        0.0003
     23 C           0.7880    1.2000    0.0000 C.ar    1  LIG1        0.0031
     24 C          -0.0830    1.7040    0.0000 C.ar    1  LIG1        0.0001
     25 C          -0.0830    2.7000    0.0000 C.ar    1  LIG1        0.0000
     26 C           0.7880    3.2000    0.0000 C.ar    1  LIG1        0.0000
     27 C           1.6460    2.7000    0.0000 C.ar    1  LIG1        0.0000
     28 C           1.6460    1.7040    0.0000 C.ar    1  LIG1        0.0001
@<TRIPOS>BOND
     1     1     2    1
     2     1    13   ar
     3     1    17   ar
     4     2     3   am
     5     2    12    2
     6     3     4    1
     7     3     7    1
     8     4     5   ar
     9     4    11   ar
    10     5     6    1
    11     5     8   ar
    12     6     7    1
    13     8     9   ar
    14     9    10   ar
    15    10    11   ar
    16    13    14   ar
    17    13    23    1
    18    14    15   ar
    19    14    22   ar
    20    15    16   ar
    21    15    19   ar
    22    16    17   ar
    23    16    18    2
    24    19    20   ar
    25    20    21   ar
    26    21    22   ar
    27    23    24   ar
    28    23    28   ar
    29    24    25   ar
    30    25    26   ar
    31    26    27   ar
    32    27    28   ar
