@<TRIPOS>MOLECULE
32588_ChemDiv_D076-0056
 30 32 0 0 0
SMALL
GASTEIGER
Energy = 0

@<TRIPOS>ATOM
      1 S           3.1330   -2.6210    0.0000 S.O2    1  LIG1       -0.0083
      2 C           2.1500   -2.4130    0.0000 C.3     1  LIG1        0.1705
      3 C           2.0460   -1.4250    0.0000 C.3     1  LIG1        0.1013
      4 N           1.1710   -0.9170    0.0000 N.am    1  LIG1       -0.2718
      5 C           0.3130   -1.4290    0.0000 C.2     1  LIG1        0.2493
      6 C          -0.5630   -0.9330    0.0000 C.ar    1  LIG1        0.0555
      7 C          -0.5460    0.0790    0.0000 C.ar    1  LIG1        0.0190
      8 C          -1.4210    0.5750    0.0000 C.ar    1  LIG1        0.0925
      9 C          -2.2830    0.0670    0.0000 C.ar    1  LIG1        0.1594
     10 C          -2.2830   -0.9330    0.0000 C.ar    1  LIG1        0.0925
     11 C          -1.4080   -1.4290    0.0000 C.ar    1  LIG1        0.0190
     12 CL         -3.1420   -1.4290    0.0000 Cl      1  LIG1       -0.0791
     13 O          -3.1420    0.5670    0.0000 O.3     1  LIG1       -0.4738
     14 C          -3.1420    1.5630    0.0000 C.3     1  LIG1        0.2056
     15 C          -4.0080    2.0580    0.0000 C.3     1  LIG1        0.0512
     16 CL         -1.4210    1.5710    0.0000 Cl      1  LIG1       -0.0791
     17 O           0.3130   -2.4250    0.0000 O.2     1  LIG1       -0.2699
     18 C           1.1710    0.0790    0.0000 C.3     1  LIG1        0.1205
     19 C           2.0420    0.5790    0.0000 C.ar    1  LIG1        0.0007
     20 C           2.0330    1.5750    0.0000 C.ar    1  LIG1        0.0343
     21 C           2.9000    2.0830    0.0000 C.ar    1  LIG1        0.1385
     22 O           2.8920    3.0790    0.0000 O.3     1  LIG1       -0.4714
     23 C           3.7500    3.5920    0.0000 C.3     1  LIG1        0.2525
     24 C           3.7670    1.5880    0.0000 C.ar    1  LIG1        0.0369
     25 C           3.7750    0.5790    0.0000 C.ar    1  LIG1        0.0028
     26 C           2.9040    0.0790    0.0000 C.ar    1  LIG1       -0.0024
     27 C           2.9500   -1.0080    0.0000 C.3     1  LIG1        0.0469
     28 C           3.6290   -1.7580    0.0000 C.3     1  LIG1        0.1527
     29 O           4.0040   -3.1210    0.0000 O.2     1  LIG1       -0.1729
     30 O           2.8710   -3.5880    0.0000 O.2     1  LIG1       -0.1729
@<TRIPOS>BOND
     1     1     2    1
     2     1    28    1
     3     1    29    2
     4     1    30    2
     5     2     3    1
     6     3     4    1
     7     3    27    1
     8     4     5   am
     9     4    18    1
    10     5     6    1
    11     5    17    2
    12     6     7   ar
    13     6    11   ar
    14     7     8   ar
    15     8     9   ar
    16     8    16    1
    17     9    10   ar
    18     9    13    1
    19    10    11   ar
    20    10    12    1
    21    13    14    1
    22    14    15    1
    23    18    19    1
    24    19    20   ar
    25    19    26   ar
    26    20    21   ar
    27    21    22    1
    28    21    24   ar
    29    22    23    1
    30    24    25   ar
    31    25    26   ar
    32    27    28    1
