@<TRIPOS>MOLECULE
32582_ChemDiv_D051-0207
 31 33 0 0 0
SMALL
GASTEIGER
Energy = 0

@<TRIPOS>ATOM
      1 S           1.2670   -2.6330    0.0000 S.O2    1  LIG1       -0.0083
      2 C           2.0290   -1.9920    0.0000 C.3     1  LIG1        0.1705
      3 C           1.6500   -1.0670    0.0000 C.3     1  LIG1        0.1014
      4 N           2.1750   -0.2170    0.0000 N.am    1  LIG1       -0.2689
      5 C           1.7080    0.6630    0.0000 C.2     1  LIG1        0.2494
      6 C           0.7040    0.6960    0.0000 C.ar    1  LIG1        0.0555
      7 C           0.2330    1.5830    0.0000 C.ar    1  LIG1        0.0190
      8 C          -0.7580    1.6170    0.0000 C.ar    1  LIG1        0.0925
      9 C          -1.2920    0.7670    0.0000 C.ar    1  LIG1        0.1594
     10 C          -0.8130   -0.1250    0.0000 C.ar    1  LIG1        0.0925
     11 C           0.1790   -0.1460    0.0000 C.ar    1  LIG1        0.0190
     12 CL         -1.3380   -0.9790    0.0000 Cl      1  LIG1       -0.0791
     13 O          -2.2920    0.7960    0.0000 O.3     1  LIG1       -0.4738
     14 C          -2.7670    1.6750    0.0000 C.3     1  LIG1        0.2055
     15 C          -3.7630    1.7040    0.0000 C.3     1  LIG1        0.0473
     16 C          -4.2380    2.5830    0.0000 C.3     1  LIG1        0.0038
     17 C          -5.2420    2.6170    0.0000 C.3     1  LIG1        0.0001
     18 C          -5.7210    3.4960    0.0000 C.3     1  LIG1        0.0000
     19 CL         -1.2380    2.4960    0.0000 Cl      1  LIG1       -0.0791
     20 O           2.2290    1.5130    0.0000 O.2     1  LIG1       -0.2699
     21 C           3.1790   -0.2460    0.0000 C.3     1  LIG1        0.1584
     22 C           3.6500   -1.1250    0.0000 C.ar    1  LIG1        0.1424
     23 O           4.6380   -1.2630    0.0000 O.2     1  LIG1       -0.4603
     24 C           4.8210   -2.2500    0.0000 C.ar    1  LIG1        0.1229
     25 C           3.9420   -2.7170    0.0000 C.ar    1  LIG1        0.0358
     26 C           3.2130   -2.0250    0.0000 C.ar    1  LIG1        0.0375
     27 C           5.7170   -2.6790    0.0000 C.3     1  LIG1        0.0725
     28 C           0.6500   -1.1420    0.0000 C.3     1  LIG1        0.0469
     29 C           0.4170   -2.1130    0.0000 C.3     1  LIG1        0.1527
     30 O           0.7380   -3.4920    0.0000 O.2     1  LIG1       -0.1729
     31 O           1.9380   -3.3750    0.0000 O.2     1  LIG1       -0.1729
@<TRIPOS>BOND
     1     1     2    1
     2     1    29    1
     3     1    30    2
     4     1    31    2
     5     2     3    1
     6     3     4    1
     7     3    28    1
     8     4     5   am
     9     4    21    1
    10     5     6    1
    11     5    20    2
    12     6     7   ar
    13     6    11   ar
    14     7     8   ar
    15     8     9   ar
    16     8    19    1
    17     9    10   ar
    18     9    13    1
    19    10    11   ar
    20    10    12    1
    21    13    14    1
    22    14    15    1
    23    15    16    1
    24    16    17    1
    25    17    18    1
    26    21    22    1
    27    22    23   ar
    28    22    26   ar
    29    23    24   ar
    30    24    25   ar
    31    24    27    1
    32    25    26   ar
    33    28    29    1
