@<TRIPOS>MOLECULE
32585_ChemDiv_D103-0816
 27 30 0 0 0
SMALL
GASTEIGER
Energy = 0

@<TRIPOS>ATOM
      1 C          -0.0130   -1.1830    0.0000 C.ar    1  LIG1        0.2014
      2 C           0.5000   -0.3170    0.0000 C.ar    1  LIG1        0.0843
      3 C           1.5170   -0.3500    0.0000 C.ar    1  LIG1        0.2018
      4 C           1.9880   -1.2380    0.0000 C.ar    1  LIG1        0.0732
      5 C           1.4540   -2.0920    0.0000 C.ar    1  LIG1        0.1482
      6 O           0.4670   -2.0630    0.0000 O.2     1  LIG1       -0.4487
      7 C           1.9380   -2.9710    0.0000 C.ar    1  LIG1        0.0330
      8 C           2.9420   -3.0130    0.0000 C.ar    1  LIG1       -0.0228
      9 C           3.4670   -2.1500    0.0000 C.ar    1  LIG1       -0.0255
     10 C           2.9880   -1.2710    0.0000 C.ar    1  LIG1        0.0017
     11 C           4.4710   -2.1790    0.0000 C.3     1  LIG1        0.0307
     12 C           3.4130   -3.8920    0.0000 C.3     1  LIG1        0.0308
     13 O           2.0460    0.5040    0.0000 O.2     1  LIG1       -0.2864
     14 C          -1.0210   -1.1540    0.0000 C.2     1  LIG1        0.2809
     15 N          -1.5040   -0.2750    0.0000 N.am    1  LIG1       -0.2944
     16 C          -2.5080   -0.2420    0.0000 C.3     1  LIG1        0.1168
     17 C          -2.9880    0.6380    0.0000 C.ar    1  LIG1        0.0007
     18 C          -2.4880    1.5170    0.0000 C.ar    1  LIG1        0.0376
     19 C          -2.9880    2.3670    0.0000 C.ar    1  LIG1        0.1762
     20 C          -3.9790    2.3670    0.0000 C.ar    1  LIG1        0.1764
     21 O          -4.2750    3.3040    0.0000 O.3     1  LIG1       -0.4346
     22 C          -3.4710    3.8960    0.0000 C.3     1  LIG1        0.4294
     23 O          -2.6880    3.3040    0.0000 O.3     1  LIG1       -0.4346
     24 C          -4.4750    1.5000    0.0000 C.ar    1  LIG1        0.0399
     25 C          -3.9580    0.6380    0.0000 C.ar    1  LIG1        0.0007
     26 O          -1.5380   -2.0170    0.0000 O.2     1  LIG1       -0.2668
     27 H          -0.9830    0.5920    0.0000 H       1  LIG1        0.1501
@<TRIPOS>BOND
     1     1     2   ar
     2     1     6   ar
     3     1    14    1
     4     2     3   ar
     5     3     4   ar
     6     3    13    2
     7     4     5   ar
     8     4    10   ar
     9     5     6   ar
    10     5     7   ar
    11     7     8   ar
    12     8     9   ar
    13     8    12    1
    14     9    10   ar
    15     9    11    1
    16    14    15   am
    17    14    26    2
    18    15    16    1
    19    15    27    1
    20    16    17    1
    21    17    18   ar
    22    17    25   ar
    23    18    19   ar
    24    19    20   ar
    25    19    23    1
    26    20    21    1
    27    20    24   ar
    28    21    22    1
    29    22    23    1
    30    24    25   ar
