@<TRIPOS>MOLECULE
32591_ChemDiv_C378-0358
 29 33 0 0 0
SMALL
GASTEIGER
Energy = 0

@<TRIPOS>ATOM
      1 C           0.0670    0.7920    0.0000 C.ar    1  LIG1        0.2021
      2 C           0.9380    0.2960    0.0000 C.2     1  LIG1        0.2876
      3 N           1.7960    0.7920    0.0000 N.am    1  LIG1       -0.2526
      4 C           1.9080    1.7920    0.0000 C.ar    1  LIG1        0.0503
      5 C           2.8920    1.9880    0.0000 C.ar    1  LIG1       -0.0067
      6 C           3.3880    1.1080    0.0000 C.3     1  LIG1        0.0495
      7 C           2.7130    0.3920    0.0000 C.3     1  LIG1        0.1033
      8 C           3.2080    2.9420    0.0000 C.ar    1  LIG1       -0.0030
      9 C           2.5380    3.7000    0.0000 C.ar    1  LIG1       -0.0002
     10 C           1.5540    3.4830    0.0000 C.ar    1  LIG1        0.0013
     11 C           1.2380    2.5290    0.0000 C.ar    1  LIG1        0.0146
     12 O           0.9380   -0.7040    0.0000 O.2     1  LIG1       -0.2662
     13 C          -0.7920    0.2960    0.0000 C.ar    1  LIG1        0.0395
     14 C          -1.6630    0.7920    0.0000 C.ar    1  LIG1        0.0093
     15 C          -1.6630    1.7920    0.0000 C.ar    1  LIG1        0.0761
     16 C          -0.7920    2.2960    0.0000 C.ar    1  LIG1        0.3458
     17 O           0.0670    1.7920    0.0000 O.2     1  LIG1       -0.4163
     18 O          -0.7920    3.2960    0.0000 O.2     1  LIG1       -0.2445
     19 C          -2.5210    2.2960    0.0000 C.ar    1  LIG1        0.0065
     20 C          -3.3920    1.7920    0.0000 C.ar    1  LIG1        0.0002
     21 C          -3.3920    0.7920    0.0000 C.ar    1  LIG1        0.0000
     22 C          -2.5210    0.2960    0.0000 C.ar    1  LIG1        0.0003
     23 C          -0.7920   -0.7040    0.0000 C.ar    1  LIG1        0.0031
     24 C          -1.6630   -1.2000    0.0000 C.ar    1  LIG1       -0.0002
     25 C          -1.6630   -2.2000    0.0000 C.ar    1  LIG1       -0.0043
     26 C          -0.7920   -2.6960    0.0000 C.ar    1  LIG1       -0.0218
     27 C           0.0670   -2.2000    0.0000 C.ar    1  LIG1       -0.0043
     28 C           0.0670   -1.2000    0.0000 C.ar    1  LIG1       -0.0002
     29 C          -0.7920   -3.6960    0.0000 C.3     1  LIG1        0.0310
@<TRIPOS>BOND
     1     1     2    1
     2     1    13   ar
     3     1    17   ar
     4     2     3   am
     5     2    12    2
     6     3     4    1
     7     3     7    1
     8     4     5   ar
     9     4    11   ar
    10     5     6    1
    11     5     8   ar
    12     6     7    1
    13     8     9   ar
    14     9    10   ar
    15    10    11   ar
    16    13    14   ar
    17    13    23    1
    18    14    15   ar
    19    14    22   ar
    20    15    16   ar
    21    15    19   ar
    22    16    17   ar
    23    16    18    2
    24    19    20   ar
    25    20    21   ar
    26    21    22   ar
    27    23    24   ar
    28    23    28   ar
    29    24    25   ar
    30    25    26   ar
    31    26    27   ar
    32    26    29    1
    33    27    28   ar
