@<TRIPOS>MOLECULE
32599_ChemDiv_6064-0057
 27 29 0 0 0
SMALL
GASTEIGER
Energy = 0

@<TRIPOS>ATOM
      1 S          -2.6000   -1.0710    0.0000 S.O2    1  LIG1        0.0768
      2 N          -3.4670   -1.5710    0.0000 N.3     1  LIG1       -0.0793
      3 C          -4.3250   -1.0670    0.0000 C.3     1  LIG1        0.0977
      4 C          -4.3130   -0.0580    0.0000 C.3     1  LIG1        0.0193
      5 C          -5.1710    0.4460    0.0000 C.3     1  LIG1        0.0015
      6 C          -6.0460   -0.0420    0.0000 C.3     1  LIG1        0.0001
      7 C          -6.0500   -1.0420    0.0000 C.3     1  LIG1        0.0015
      8 C          -5.1880   -1.5540    0.0000 C.3     1  LIG1        0.0193
      9 C          -1.7380   -0.5830    0.0000 C.ar    1  LIG1        0.1237
     10 C          -1.7380    0.4250    0.0000 C.ar    1  LIG1        0.0231
     11 C          -0.8630    0.9250    0.0000 C.ar    1  LIG1        0.0383
     12 C           0.0000    0.4250    0.0000 C.ar    1  LIG1        0.1394
     13 O           0.8670    0.9420    0.0000 O.3     1  LIG1       -0.4656
     14 C           1.7290    0.4420    0.0000 C.3     1  LIG1        0.2896
     15 C           2.6000    0.9420    0.0000 C.2     1  LIG1        0.2702
     16 N           3.4540    0.4420    0.0000 N.am    1  LIG1       -0.2765
     17 C           3.4460   -0.5670    0.0000 C.3     1  LIG1        0.0935
     18 C           4.3000   -1.0670    0.0000 C.3     1  LIG1        0.0216
     19 C           5.1880   -0.5670    0.0000 C.3     1  LIG1        0.0034
     20 C           5.1880    0.4420    0.0000 C.3     1  LIG1        0.0216
     21 C           4.3170    0.9420    0.0000 C.3     1  LIG1        0.0935
     22 C           6.0500   -1.0670    0.0000 C.3     1  LIG1        0.0001
     23 O           2.5830    1.9380    0.0000 O.2     1  LIG1       -0.2708
     24 C           0.0000   -0.5830    0.0000 C.ar    1  LIG1        0.0383
     25 C          -0.8630   -1.0710    0.0000 C.ar    1  LIG1        0.0231
     26 O          -2.1170   -1.9330    0.0000 O.2     1  LIG1       -0.1516
     27 O          -3.1040   -0.2210    0.0000 O.2     1  LIG1       -0.1516
@<TRIPOS>BOND
     1     1     2    1
     2     1     9    1
     3     1    26    2
     4     1    27    2
     5     2     3    1
     6     3     4    1
     7     3     8    1
     8     4     5    1
     9     5     6    1
    10     6     7    1
    11     7     8    1
    12     9    10   ar
    13     9    25   ar
    14    10    11   ar
    15    11    12   ar
    16    12    13    1
    17    12    24   ar
    18    13    14    1
    19    14    15    1
    20    15    16   am
    21    15    23    2
    22    16    17    1
    23    16    21    1
    24    17    18    1
    25    18    19    1
    26    19    20    1
    27    19    22    1
    28    20    21    1
    29    24    25   ar
