@<TRIPOS>MOLECULE
32592_ChemDiv_D103-0703
 24 26 0 0 0
SMALL
GASTEIGER
Energy = 0

@<TRIPOS>ATOM
      1 S          -3.2880    1.5500    0.0000 S.O2    1  LIG1       -0.0083
      2 C          -2.3460    1.8630    0.0000 C.3     1  LIG1        0.1703
      3 C          -1.7420    1.0630    0.0000 C.3     1  LIG1        0.0973
      4 N          -0.7460    1.0630    0.0000 N.am    1  LIG1       -0.2982
      5 C          -0.2380    0.2000    0.0000 C.2     1  LIG1        0.2807
      6 C           0.7580    0.2000    0.0000 C.ar    1  LIG1        0.2014
      7 O           1.2580   -0.6750    0.0000 O.2     1  LIG1       -0.4490
      8 C           2.2460   -0.6750    0.0000 C.ar    1  LIG1        0.1442
      9 C           2.7580    0.2000    0.0000 C.ar    1  LIG1        0.0732
     10 C           2.2580    1.0630    0.0000 C.ar    1  LIG1        0.2018
     11 C           1.2540    1.0630    0.0000 C.ar    1  LIG1        0.0843
     12 O           2.7580    1.9250    0.0000 O.2     1  LIG1       -0.2864
     13 C           3.7540    0.2000    0.0000 C.ar    1  LIG1        0.0059
     14 C           4.2540   -0.6750    0.0000 C.ar    1  LIG1       -0.0043
     15 C           3.7420   -1.5420    0.0000 C.ar    1  LIG1       -0.0229
     16 C           2.7420   -1.5380    0.0000 C.ar    1  LIG1        0.0089
     17 C           2.2460   -2.4000    0.0000 C.3     1  LIG1        0.0339
     18 C           4.2420   -2.4040    0.0000 C.3     1  LIG1        0.0308
     19 O          -0.7380   -0.6790    0.0000 O.2     1  LIG1       -0.2668
     20 C          -2.3290    0.2500    0.0000 C.3     1  LIG1        0.0467
     21 C          -3.2830    0.5500    0.0000 C.3     1  LIG1        0.1526
     22 O          -4.2580    1.2880    0.0000 O.2     1  LIG1       -0.1729
     23 O          -3.7960    2.4080    0.0000 O.2     1  LIG1       -0.1729
     24 H          -0.2540    1.9290    0.0000 H       1  LIG1        0.1498
@<TRIPOS>BOND
     1     1     2    1
     2     1    21    1
     3     1    22    2
     4     1    23    2
     5     2     3    1
     6     3     4    1
     7     3    20    1
     8     4     5   am
     9     4    24    1
    10     5     6    1
    11     5    19    2
    12     6     7   ar
    13     6    11   ar
    14     7     8   ar
    15     8     9   ar
    16     8    16   ar
    17     9    10   ar
    18     9    13   ar
    19    10    11   ar
    20    10    12    2
    21    13    14   ar
    22    14    15   ar
    23    15    16   ar
    24    15    18    1
    25    16    17    1
    26    20    21    1
