@<TRIPOS>MOLECULE
32593_ChemDiv_6060-0111
 20 21 0 0 0
SMALL
GASTEIGER
Energy = 0

@<TRIPOS>ATOM
      1 N           0.2080   -0.0170    0.0000 N.ar    1  LIG1       -0.3325
      2 C          -0.6040    0.5670    0.0000 C.ar    1  LIG1        0.0596
      3 C          -0.3040    1.5210    0.0000 C.ar    1  LIG1        0.0183
      4 C           0.7080    1.5210    0.0000 C.ar    1  LIG1        0.0142
      5 C           1.0130    0.5670    0.0000 C.ar    1  LIG1        0.0373
      6 C           1.9630    0.2500    0.0000 C.3     1  LIG1        0.0497
      7 C           2.7040    0.9170    0.0000 C.3     1  LIG1        0.0479
      8 C           3.6580    0.6130    0.0000 C.2     1  LIG1        0.0507
      9 O           3.8580   -0.3670    0.0000 O.co2   1  LIG1       -0.5492
     10 O           4.4000    1.2790    0.0000 O.co2   1  LIG1       -0.5492
     11 C          -1.5500    0.2500    0.0000 C.ar    1  LIG1        0.0159
     12 C          -2.3000    0.9290    0.0000 C.ar    1  LIG1        0.0037
     13 C          -3.2420    0.6130    0.0000 C.ar    1  LIG1        0.0297
     14 C          -3.4500   -0.3670    0.0000 C.ar    1  LIG1        0.1401
     15 C          -2.7000   -1.0330    0.0000 C.ar    1  LIG1        0.0297
     16 C          -1.7540   -0.7210    0.0000 C.ar    1  LIG1        0.0037
     17 F          -4.4040   -0.6830    0.0000 F       1  LIG1       -0.2042
     18 C           0.2080   -1.0210    0.0000 C.3     1  LIG1        0.0853
     19 C          -0.6670   -1.5170    0.0000 C.3     1  LIG1        0.0245
     20 C           1.0710   -1.5170    0.0000 C.3     1  LIG1        0.0245
@<TRIPOS>BOND
     1     1     2   ar
     2     1     5   ar
     3     1    18    1
     4     2     3   ar
     5     2    11    1
     6     3     4   ar
     7     4     5   ar
     8     5     6    1
     9     6     7    1
    10     7     8    1
    11     8     9   ar
    12     8    10   ar
    13    11    12   ar
    14    11    16   ar
    15    12    13   ar
    16    13    14   ar
    17    14    15   ar
    18    14    17    1
    19    15    16   ar
    20    18    19    1
    21    18    20    1
