@<TRIPOS>MOLECULE
32590_ChemDiv_D076-0228
 23 25 0 0 0
SMALL
GASTEIGER
Energy = 0

@<TRIPOS>ATOM
      1 S          -0.9000    1.6500    0.0000 S.O2    1  LIG1       -0.0083
      2 C          -0.1420    1.0080    0.0000 C.3     1  LIG1        0.1705
      3 C          -0.5130    0.0710    0.0000 C.3     1  LIG1        0.1013
      4 N           0.0170   -0.7750    0.0000 N.am    1  LIG1       -0.2713
      5 C          -0.4580   -1.6580    0.0000 C.2     1  LIG1        0.2553
      6 C          -1.4670   -1.6920    0.0000 C.ar    1  LIG1        0.0830
      7 S          -2.0830   -0.9000    0.0000 S.2     1  LIG1       -0.0819
      8 C          -3.0250   -1.2460    0.0000 C.ar    1  LIG1        0.0356
      9 C          -2.9920   -2.2420    0.0000 C.ar    1  LIG1        0.0076
     10 C          -2.0170   -2.5250    0.0000 C.ar    1  LIG1        0.0116
     11 O           0.0540   -2.5040    0.0000 O.2     1  LIG1       -0.2693
     12 C           1.0210   -0.7380    0.0000 C.3     1  LIG1        0.1227
     13 C           1.4960    0.1420    0.0000 C.ar    1  LIG1        0.0252
     14 C           2.4920    0.1630    0.0000 C.ar    1  LIG1        0.1377
     15 F           3.0210   -0.6880    0.0000 F       1  LIG1       -0.2044
     16 C           2.9670    1.0460    0.0000 C.ar    1  LIG1        0.0294
     17 C           2.4500    1.8960    0.0000 C.ar    1  LIG1        0.0023
     18 C           1.4420    1.8630    0.0000 C.ar    1  LIG1       -0.0001
     19 C           0.9710    0.9790    0.0000 C.ar    1  LIG1       -0.0004
     20 C          -1.5170    0.1500    0.0000 C.3     1  LIG1        0.0469
     21 C          -1.7540    1.1330    0.0000 C.3     1  LIG1        0.1527
     22 O          -1.2960    2.5290    0.0000 O.2     1  LIG1       -0.1729
     23 O          -0.0540    2.1920    0.0000 O.2     1  LIG1       -0.1729
@<TRIPOS>BOND
     1     1     2    1
     2     1    21    1
     3     1    22    2
     4     1    23    2
     5     2     3    1
     6     3     4    1
     7     3    20    1
     8     4     5   am
     9     4    12    1
    10     5     6    1
    11     5    11    2
    12     6     7   ar
    13     6    10   ar
    14     7     8   ar
    15     8     9   ar
    16     9    10   ar
    17    12    13    1
    18    13    14   ar
    19    13    19   ar
    20    14    15    1
    21    14    16   ar
    22    16    17   ar
    23    17    18   ar
    24    18    19   ar
    25    20    21    1
