@<TRIPOS>MOLECULE
32609_ChemDiv_6049-1151
 30 33 0 0 0
SMALL
GASTEIGER
Energy = 0

@<TRIPOS>ATOM
      1 C           1.3670    1.6710    0.0000 C.2     1  LIG1        0.2399
      2 N           0.3460    1.6710    0.0000 N.am    1  LIG1       -0.2751
      3 C          -0.1790    0.8040    0.0000 C.3     1  LIG1        0.1149
      4 C          -1.2130    0.8040    0.0000 C.3     1  LIG1        0.1124
      5 N          -1.7210    1.6960    0.0000 N.pl3   1  LIG1       -0.3017
      6 C          -2.7420    1.6960    0.0000 C.ar    1  LIG1        0.0824
      7 C          -3.2540    0.8540    0.0000 C.ar    1  LIG1        0.1519
      8 O          -2.7420   -0.0670    0.0000 O.3     1  LIG1       -0.4702
      9 C          -1.7210   -0.0670    0.0000 C.3     1  LIG1        0.2525
     10 C          -4.2920    0.8540    0.0000 C.ar    1  LIG1        0.0382
     11 C          -4.7960    1.7500    0.0000 C.ar    1  LIG1        0.0032
     12 C          -4.2790    2.6130    0.0000 C.ar    1  LIG1        0.0015
     13 C          -3.2420    2.6130    0.0000 C.ar    1  LIG1        0.0176
     14 C          -1.1960    2.5830    0.0000 C.3     1  LIG1        0.1124
     15 C          -0.1630    2.5460    0.0000 C.3     1  LIG1        0.1149
     16 C           1.8250    0.7920    0.0000 C.3     1  LIG1        0.1503
     17 S           1.3170   -0.0330    0.0000 S.3     1  LIG1       -0.1008
     18 C           1.7750   -0.8830    0.0000 C.ar    1  LIG1        0.0260
     19 C           2.7420   -0.9250    0.0000 C.ar    1  LIG1        0.0062
     20 C           3.2000   -1.7790    0.0000 C.ar    1  LIG1        0.0005
     21 C           2.6880   -2.6080    0.0000 C.ar    1  LIG1        0.0000
     22 C           1.7380   -2.5670    0.0000 C.ar    1  LIG1        0.0005
     23 C           1.2790   -1.7130    0.0000 C.ar    1  LIG1        0.0062
     24 C           2.8000    0.7540    0.0000 C.ar    1  LIG1       -0.0035
     25 C           3.2880   -0.1130    0.0000 C.ar    1  LIG1       -0.0030
     26 C           4.2580   -0.1380    0.0000 C.ar    1  LIG1       -0.0003
     27 C           4.7920    0.7040    0.0000 C.ar    1  LIG1       -0.0000
     28 C           4.2960    1.5420    0.0000 C.ar    1  LIG1       -0.0003
     29 C           3.3290    1.5710    0.0000 C.ar    1  LIG1       -0.0030
     30 O           1.8750    2.5460    0.0000 O.2     1  LIG1       -0.2736
@<TRIPOS>BOND
     1     1     2   am
     2     1    16    1
     3     1    30    2
     4     2     3    1
     5     2    15    1
     6     3     4    1
     7     4     5    1
     8     5     6    1
     9     5    14    1
    10     6     7   ar
    11     6    13   ar
    12     7     8    1
    13     7    10   ar
    14     8     9    1
    15    10    11   ar
    16    11    12   ar
    17    12    13   ar
    18    14    15    1
    19    16    17    1
    20    16    24    1
    21    17    18    1
    22    18    19   ar
    23    18    23   ar
    24    19    20   ar
    25    20    21   ar
    26    21    22   ar
    27    22    23   ar
    28    24    25   ar
    29    24    29   ar
    30    25    26   ar
    31    26    27   ar
    32    27    28   ar
    33    28    29   ar
