@<TRIPOS>MOLECULE
32607_ChemDiv_6072-0042
 23 25 0 0 0
SMALL
GASTEIGER
Energy = 0

@<TRIPOS>ATOM
      1 C           1.5290   -0.8580    0.0000 C.2     1  LIG1        0.2258
      2 N           0.5000   -0.8580    0.0000 N.am    1  LIG1       -0.2751
      3 C           0.0250   -1.7170    0.0000 C.3     1  LIG1        0.1195
      4 C          -1.0040   -1.7170    0.0000 C.2     1  LIG1       -0.0089
      5 C          -1.5330   -0.8580    0.0000 C.2     1  LIG1       -0.0231
      6 C          -1.0040    0.0000    0.0000 C.3     1  LIG1        0.0476
      7 C           0.0250    0.0000    0.0000 C.3     1  LIG1        0.0984
      8 C          -2.5130   -0.8580    0.0000 C.ar    1  LIG1       -0.0042
      9 C          -3.0420    0.0000    0.0000 C.ar    1  LIG1       -0.0003
     10 C          -4.0170    0.0000    0.0000 C.ar    1  LIG1       -0.0000
     11 C          -4.5460   -0.8580    0.0000 C.ar    1  LIG1       -0.0000
     12 C          -4.0170   -1.7170    0.0000 C.ar    1  LIG1       -0.0000
     13 C          -3.0420   -1.7170    0.0000 C.ar    1  LIG1       -0.0003
     14 C           2.0040    0.0000    0.0000 C.3     1  LIG1        0.0819
     15 C           3.0380    0.0000    0.0000 C.3     1  LIG1        0.0451
     16 C           3.5460   -0.8580    0.0000 C.2     1  LIG1        0.0504
     17 O           4.5420   -0.8580    0.0000 O.co2   1  LIG1       -0.5492
     18 O           3.0380   -1.7170    0.0000 O.co2   1  LIG1       -0.5492
     19 C           3.5130    0.8630    0.0000 C.3     1  LIG1        0.0060
     20 C           3.0380    1.7210    0.0000 C.3     1  LIG1        0.0004
     21 C           2.0040    1.7210    0.0000 C.3     1  LIG1        0.0005
     22 C           1.5290    0.8630    0.0000 C.3     1  LIG1        0.0094
     23 O           2.0040   -1.7170    0.0000 O.2     1  LIG1       -0.2749
@<TRIPOS>BOND
     1     1     2   am
     2     1    14    1
     3     1    23    2
     4     2     3    1
     5     2     7    1
     6     3     4    1
     7     4     5    2
     8     5     6    1
     9     5     8    1
    10     6     7    1
    11     8     9   ar
    12     8    13   ar
    13     9    10   ar
    14    10    11   ar
    15    11    12   ar
    16    12    13   ar
    17    14    15    1
    18    14    22    1
    19    15    16    1
    20    15    19    1
    21    16    17   ar
    22    16    18   ar
    23    19    20    1
    24    20    21    1
    25    21    22    1
