@<TRIPOS>MOLECULE
32603_ChemDiv_6066-1587
 16 19 0 0 0
SMALL
GASTEIGER
Energy = 0

@<TRIPOS>ATOM
      1 C           0.3580   -0.4420    0.0000 C.ar    1  LIG1        0.1648
      2 C          -0.2580    0.3540    0.0000 C.ar    1  LIG1        0.1383
      3 N           0.1250    1.2750    0.0000 N.ar    1  LIG1       -0.1430
      4 N           1.1250    1.4040    0.0000 N.ar    1  LIG1       -0.1234
      5 C           1.7380    0.6170    0.0000 C.ar    1  LIG1        0.1932
      6 N           1.3170   -0.2960    0.0000 N.ar    1  LIG1       -0.2897
      7 C           2.0880   -0.9500    0.0000 C.3     1  LIG1        0.1215
      8 C           2.9710   -0.4420    0.0000 C.3     1  LIG1        0.0897
      9 S           2.7210    0.5420    0.0000 S.3     1  LIG1       -0.0736
     10 C          -1.2080    0.0830    0.0000 C.ar    1  LIG1        0.0401
     11 C          -1.2080   -0.8630    0.0000 C.ar    1  LIG1        0.0846
     12 N          -0.2580   -1.2500    0.0000 N.ar    1  LIG1       -0.2265
     13 C          -2.0630   -1.4000    0.0000 C.ar    1  LIG1        0.0192
     14 C          -2.9750   -0.8630    0.0000 C.ar    1  LIG1        0.0015
     15 C          -2.9750    0.0830    0.0000 C.ar    1  LIG1        0.0001
     16 C          -2.0630    0.5460    0.0000 C.ar    1  LIG1        0.0032
@<TRIPOS>BOND
     1     1     2   ar
     2     1     6   ar
     3     1    12   ar
     4     2     3   ar
     5     2    10   ar
     6     3     4   ar
     7     4     5   ar
     8     5     6   ar
     9     5     9    1
    10     6     7    1
    11     7     8    1
    12     8     9    1
    13    10    11   ar
    14    10    16   ar
    15    11    12   ar
    16    11    13   ar
    17    13    14   ar
    18    14    15   ar
    19    15    16   ar
