@<TRIPOS>MOLECULE
32601_ChemDiv_6064-0149
 27 29 0 0 0
SMALL
GASTEIGER
Energy = 0

@<TRIPOS>ATOM
      1 S          -3.0460   -0.7540    0.0000 S.O2    1  LIG1        0.0768
      2 N          -3.8960   -1.2380    0.0000 N.3     1  LIG1       -0.0793
      3 C          -4.7670   -0.7380    0.0000 C.3     1  LIG1        0.0978
      4 C          -4.7420    0.2540    0.0000 C.3     1  LIG1        0.0208
      5 C          -5.6290   -1.2250    0.0000 C.3     1  LIG1        0.0208
      6 C          -2.1710   -0.2540    0.0000 C.ar    1  LIG1        0.1237
      7 C          -1.3080   -0.7540    0.0000 C.ar    1  LIG1        0.0231
      8 C          -0.4380   -0.2540    0.0000 C.ar    1  LIG1        0.0383
      9 C          -0.4380    0.7540    0.0000 C.ar    1  LIG1        0.1394
     10 O           0.4130    1.2540    0.0000 O.3     1  LIG1       -0.4656
     11 C           1.2880    0.7540    0.0000 C.3     1  LIG1        0.2896
     12 C           2.1460    1.2580    0.0000 C.2     1  LIG1        0.2704
     13 N           3.0130    0.7710    0.0000 N.am    1  LIG1       -0.2721
     14 C           3.0130   -0.2540    0.0000 C.3     1  LIG1        0.1199
     15 C           3.8880   -0.7380    0.0000 C.ar    1  LIG1       -0.0062
     16 C           4.7580   -0.2380    0.0000 C.ar    1  LIG1       -0.0228
     17 C           4.7580    0.7750    0.0000 C.3     1  LIG1        0.0476
     18 C           3.8880    1.2750    0.0000 C.3     1  LIG1        0.0985
     19 C           5.6250   -0.7380    0.0000 C.ar    1  LIG1       -0.0045
     20 C           5.6250   -1.7380    0.0000 C.ar    1  LIG1       -0.0003
     21 C           4.7580   -2.2460    0.0000 C.ar    1  LIG1       -0.0003
     22 C           3.8880   -1.7210    0.0000 C.ar    1  LIG1       -0.0029
     23 O           2.1460    2.2500    0.0000 O.2     1  LIG1       -0.2708
     24 C          -1.3080    1.2540    0.0000 C.ar    1  LIG1        0.0383
     25 C          -2.1710    0.7540    0.0000 C.ar    1  LIG1        0.0231
     26 O          -3.5330    0.1080    0.0000 O.2     1  LIG1       -0.1516
     27 O          -2.5460   -1.6000    0.0000 O.2     1  LIG1       -0.1516
@<TRIPOS>BOND
     1     1     2    1
     2     1     6    1
     3     1    26    2
     4     1    27    2
     5     2     3    1
     6     3     4    1
     7     3     5    1
     8     6     7   ar
     9     6    25   ar
    10     7     8   ar
    11     8     9   ar
    12     9    10    1
    13     9    24   ar
    14    10    11    1
    15    11    12    1
    16    12    13   am
    17    12    23    2
    18    13    14    1
    19    13    18    1
    20    14    15    1
    21    15    16   ar
    22    15    22   ar
    23    16    17    1
    24    16    19   ar
    25    17    18    1
    26    19    20   ar
    27    20    21   ar
    28    21    22   ar
    29    24    25   ar
