@<TRIPOS>MOLECULE
32616_ChemDiv_D111-0077
 34 36 0 0 0
SMALL
GASTEIGER
Energy = 0

@<TRIPOS>ATOM
      1 S           4.1630   -2.2290    0.0000 S.O2    1  LIG1       -0.0083
      2 C           3.4960   -1.4880    0.0000 C.3     1  LIG1        0.1705
      3 C           2.5790   -1.9040    0.0000 C.3     1  LIG1        0.1013
      4 N           1.7130   -1.4040    0.0000 N.am    1  LIG1       -0.2718
      5 C           0.8460   -1.9130    0.0000 C.2     1  LIG1        0.2494
      6 C          -0.0170   -1.4170    0.0000 C.ar    1  LIG1        0.0566
      7 C          -0.8830   -1.9130    0.0000 C.ar    1  LIG1        0.0414
      8 C          -1.7500   -1.4250    0.0000 C.ar    1  LIG1        0.1387
      9 O          -2.6040   -1.9250    0.0000 O.3     1  LIG1       -0.4755
     10 C          -3.4830   -1.4250    0.0000 C.3     1  LIG1        0.2054
     11 C          -4.3290   -1.9330    0.0000 C.3     1  LIG1        0.0473
     12 C          -5.1960   -1.4460    0.0000 C.3     1  LIG1        0.0038
     13 C          -6.0460   -1.9460    0.0000 C.3     1  LIG1        0.0001
     14 C          -1.7500   -0.4080    0.0000 C.ar    1  LIG1        0.0369
     15 C          -0.8830    0.0830    0.0000 C.ar    1  LIG1        0.0033
     16 C          -0.0170   -0.4080    0.0000 C.ar    1  LIG1        0.0047
     17 O           0.8460   -2.9040    0.0000 O.2     1  LIG1       -0.2699
     18 C           1.7130   -0.4040    0.0000 C.3     1  LIG1        0.1206
     19 C           2.5790    0.0960    0.0000 C.ar    1  LIG1        0.0039
     20 C           3.4290   -0.4040    0.0000 C.ar    1  LIG1        0.0376
     21 C           4.3000    0.0960    0.0000 C.ar    1  LIG1        0.1752
     22 C           4.3000    1.1000    0.0000 C.ar    1  LIG1        0.2060
     23 C           3.4290    1.6000    0.0000 C.ar    1  LIG1        0.1752
     24 C           2.5630    1.0920    0.0000 C.ar    1  LIG1        0.0376
     25 O           3.4250    2.5920    0.0000 O.3     1  LIG1       -0.4683
     26 C           4.2920    3.1000    0.0000 C.3     1  LIG1        0.2526
     27 O           5.1670    1.6000    0.0000 O.3     1  LIG1       -0.4654
     28 C           6.0330    1.1000    0.0000 C.3     1  LIG1        0.2528
     29 O           5.1670   -0.4040    0.0000 O.3     1  LIG1       -0.4683
     30 C           6.0460    0.0960    0.0000 C.3     1  LIG1        0.2526
     31 C           2.6830   -2.9000    0.0000 C.3     1  LIG1        0.0469
     32 C           3.6630   -3.0960    0.0000 C.3     1  LIG1        0.1527
     33 O           5.0380   -2.7380    0.0000 O.2     1  LIG1       -0.1729
     34 O           4.8830   -1.5290    0.0000 O.2     1  LIG1       -0.1729
@<TRIPOS>BOND
     1     1     2    1
     2     1    32    1
     3     1    33    2
     4     1    34    2
     5     2     3    1
     6     3     4    1
     7     3    31    1
     8     4     5   am
     9     4    18    1
    10     5     6    1
    11     5    17    2
    12     6     7   ar
    13     6    16   ar
    14     7     8   ar
    15     8     9    1
    16     8    14   ar
    17     9    10    1
    18    10    11    1
    19    11    12    1
    20    12    13    1
    21    14    15   ar
    22    15    16   ar
    23    18    19    1
    24    19    20   ar
    25    19    24   ar
    26    20    21   ar
    27    21    22   ar
    28    21    29    1
    29    22    23   ar
    30    22    27    1
    31    23    24   ar
    32    23    25    1
    33    25    26    1
    34    27    28    1
    35    29    30    1
    36    31    32    1
