@<TRIPOS>MOLECULE
32615_ChemDiv_6049-1392
 25 28 0 0 0
SMALL
GASTEIGER
Energy = 0

@<TRIPOS>ATOM
      1 N          -0.9500   -1.3000    0.0000 N.am    1  LIG1       -0.2546
      2 C           0.0580   -1.3000    0.0000 C.2     1  LIG1        0.2875
      3 C           0.5420   -0.4290    0.0000 C.ar    1  LIG1        0.2022
      4 O           1.5460   -0.4040    0.0000 O.2     1  LIG1       -0.4163
      5 C           2.0170    0.4710    0.0000 C.ar    1  LIG1        0.3458
      6 C           1.4540    1.3330    0.0000 C.ar    1  LIG1        0.0761
      7 C           0.4880    1.2790    0.0000 C.ar    1  LIG1        0.0094
      8 C           0.0210    0.3920    0.0000 C.ar    1  LIG1        0.0426
      9 C          -0.0460    2.1290    0.0000 C.ar    1  LIG1        0.0003
     10 C           0.3830    3.0130    0.0000 C.ar    1  LIG1        0.0000
     11 C           1.4040    3.0580    0.0000 C.ar    1  LIG1        0.0002
     12 C           1.9080    2.2170    0.0000 C.ar    1  LIG1        0.0065
     13 O           3.0170    0.5380    0.0000 O.2     1  LIG1       -0.2445
     14 O           0.5790   -2.1630    0.0000 O.2     1  LIG1       -0.2662
     15 C          -1.4710   -0.4460    0.0000 C.ar    1  LIG1        0.0503
     16 C          -2.4580   -0.4580    0.0000 C.ar    1  LIG1       -0.0062
     17 C          -2.9670    0.4040    0.0000 C.ar    1  LIG1        0.0266
     18 C          -2.4880    1.2710    0.0000 C.ar    1  LIG1        0.1399
     19 C          -1.4710    1.2880    0.0000 C.ar    1  LIG1        0.0309
     20 C          -0.9540    0.4380    0.0000 C.ar    1  LIG1        0.0169
     21 F          -3.0210    2.1330    0.0000 F       1  LIG1       -0.2042
     22 C          -2.9540   -1.3330    0.0000 C.3     1  LIG1        0.0294
     23 C          -2.4540   -2.1830    0.0000 C.3     1  LIG1        0.0249
     24 C          -1.4420   -2.1670    0.0000 C.3     1  LIG1        0.0805
     25 C          -1.9170   -3.0540    0.0000 C.3     1  LIG1        0.0219
@<TRIPOS>BOND
     1     1     2   am
     2     1    15    1
     3     1    24    1
     4     2     3    1
     5     2    14    2
     6     3     4   ar
     7     3     8   ar
     8     4     5   ar
     9     5     6   ar
    10     5    13    2
    11     6     7   ar
    12     6    12   ar
    13     7     8   ar
    14     7     9   ar
    15     9    10   ar
    16    10    11   ar
    17    11    12   ar
    18    15    16   ar
    19    15    20   ar
    20    16    17   ar
    21    16    22    1
    22    17    18   ar
    23    18    19   ar
    24    18    21    1
    25    19    20   ar
    26    22    23    1
    27    23    24    1
    28    24    25    1
