@<TRIPOS>MOLECULE
32611_ChemDiv_6049-1263
 32 35 0 0 0
SMALL
GASTEIGER
Energy = 0

@<TRIPOS>ATOM
      1 S          -2.5250    0.0210    0.0000 S.O2    1  LIG1       -0.0568
      2 N          -2.9920    0.8960    0.0000 N.pl3   1  LIG1       -0.5205
      3 C          -2.4830    1.7460    0.0000 C.ar    1  LIG1       -0.0237
      4 N          -2.9630    2.6130    0.0000 N.ar    1  LIG1       -0.2543
      5 C          -2.4580    3.4630    0.0000 C.ar    1  LIG1        0.1370
      6 N          -1.4670    3.4420    0.0000 N.ar    1  LIG1       -0.2351
      7 C          -0.9960    2.5750    0.0000 C.ar    1  LIG1        0.0603
      8 C          -1.5000    1.7210    0.0000 C.ar    1  LIG1        0.0098
      9 C           0.0290    2.5750    0.0000 C.3     1  LIG1        0.0521
     10 C          -2.9500    4.3630    0.0000 C.3     1  LIG1        0.0736
     11 C          -2.0290   -0.8830    0.0000 C.ar    1  LIG1        0.0894
     12 C          -2.5420   -1.7210    0.0000 C.ar    1  LIG1        0.0182
     13 C          -2.0750   -2.6130    0.0000 C.ar    1  LIG1        0.0179
     14 C          -1.0670   -2.6130    0.0000 C.ar    1  LIG1        0.0739
     15 N          -0.5830   -3.5000    0.0000 N.am    1  LIG1       -0.1728
     16 C           0.4290   -3.5000    0.0000 C.2     1  LIG1        0.3038
     17 C           0.9130   -2.6250    0.0000 C.ar    1  LIG1        0.2037
     18 O           1.9210   -2.5960    0.0000 O.2     1  LIG1       -0.4163
     19 C           2.3920   -1.7210    0.0000 C.ar    1  LIG1        0.3458
     20 C           1.8330   -0.8580    0.0000 C.ar    1  LIG1        0.0761
     21 C           0.8540   -0.9170    0.0000 C.ar    1  LIG1        0.0094
     22 C           0.3880   -1.8000    0.0000 C.ar    1  LIG1        0.0426
     23 C           0.3250   -0.0580    0.0000 C.ar    1  LIG1        0.0003
     24 C           0.7540    0.8290    0.0000 C.ar    1  LIG1        0.0000
     25 C           1.7750    0.8670    0.0000 C.ar    1  LIG1        0.0002
     26 C           2.2880    0.0330    0.0000 C.ar    1  LIG1        0.0065
     27 O           3.4040   -1.6540    0.0000 O.2     1  LIG1       -0.2445
     28 O           0.9500   -4.3630    0.0000 O.2     1  LIG1       -0.2646
     29 C          -0.5580   -1.7670    0.0000 C.ar    1  LIG1        0.0179
     30 C          -1.0380   -0.9000    0.0000 C.ar    1  LIG1        0.0182
     31 O          -1.6460    0.5040    0.0000 O.2     1  LIG1       -0.1841
     32 O          -3.4080   -0.4830    0.0000 O.2     1  LIG1       -0.1841
@<TRIPOS>BOND
     1     1     2    1
     2     1    11    1
     3     1    31    2
     4     1    32    2
     5     2     3    1
     6     3     4   ar
     7     3     8   ar
     8     4     5   ar
     9     5     6   ar
    10     5    10    1
    11     6     7   ar
    12     7     8   ar
    13     7     9    1
    14    11    12   ar
    15    11    30   ar
    16    12    13   ar
    17    13    14   ar
    18    14    15    1
    19    14    29   ar
    20    15    16   am
    21    16    17    1
    22    16    28    2
    23    17    18   ar
    24    17    22   ar
    25    18    19   ar
    26    19    20   ar
    27    19    27    2
    28    20    21   ar
    29    20    26   ar
    30    21    22   ar
    31    21    23   ar
    32    23    24   ar
    33    24    25   ar
    34    25    26   ar
    35    29    30   ar
