@<TRIPOS>MOLECULE
32613_ChemDiv_6049-1370
 30 33 0 0 0
SMALL
GASTEIGER
Energy = 0

@<TRIPOS>ATOM
      1 S          -1.5290    2.4710    0.0000 S.O2    1  LIG1       -0.0578
      2 N          -0.5330    2.5040    0.0000 N.pl3   1  LIG1       -0.5358
      3 C          -0.0130    1.6580    0.0000 C.ar    1  LIG1       -0.1122
      4 C          -0.5080    0.8210    0.0000 C.ar    1  LIG1       -0.0225
      5 C          -0.0130   -0.0540    0.0000 C.ar    1  LIG1        0.0147
      6 C           0.9790   -0.0330    0.0000 C.ar    1  LIG1        0.0733
      7 N           1.4790   -0.8960    0.0000 N.am    1  LIG1       -0.1791
      8 C           2.4920   -0.8960    0.0000 C.2     1  LIG1        0.2483
      9 C           3.0000   -1.7540    0.0000 C.3     1  LIG1        0.1177
     10 C           3.9960   -1.7540    0.0000 C.3     1  LIG1        0.0793
     11 C           4.4960   -2.5830    0.0000 C.3     1  LIG1        0.1429
     12 O           3.5080   -2.9330    0.0000 O.3     1  LIG1       -0.3491
     13 C           2.5170   -2.6130    0.0000 C.3     1  LIG1        0.1463
     14 C           3.0170   -3.4880    0.0000 C.2     1  LIG1        0.0012
     15 C           3.9960   -3.4580    0.0000 C.2     1  LIG1        0.0011
     16 C           4.5250   -0.8830    0.0000 C.2     1  LIG1        0.0532
     17 O           4.0370    0.0290    0.0000 O.co2   1  LIG1       -0.5491
     18 O           5.5130   -0.9880    0.0000 O.co2   1  LIG1       -0.5491
     19 O           2.9750   -0.0250    0.0000 O.2     1  LIG1       -0.2729
     20 C           1.4790    0.8330    0.0000 C.ar    1  LIG1        0.0147
     21 C           0.9790    1.6710    0.0000 C.ar    1  LIG1       -0.0225
     22 C          -2.5380    2.4710    0.0000 C.ar    1  LIG1        0.0893
     23 C          -3.0130    1.6040    0.0000 C.ar    1  LIG1        0.0166
     24 C          -4.0130    1.5880    0.0000 C.ar    1  LIG1       -0.0030
     25 C          -4.5130    2.4330    0.0000 C.ar    1  LIG1       -0.0218
     26 C          -4.0290    3.3000    0.0000 C.ar    1  LIG1       -0.0030
     27 C          -3.0330    3.3380    0.0000 C.ar    1  LIG1        0.0166
     28 C          -5.5170    2.4210    0.0000 C.3     1  LIG1        0.0310
     29 O          -1.5290    3.4920    0.0000 O.2     1  LIG1       -0.1842
     30 O          -1.5000    1.4670    0.0000 O.2     1  LIG1       -0.1842
@<TRIPOS>BOND
     1     1     2    1
     2     1    22    1
     3     1    29    2
     4     1    30    2
     5     2     3    1
     6     3     4   ar
     7     3    21   ar
     8     4     5   ar
     9     5     6   ar
    10     6     7    1
    11     6    20   ar
    12     7     8   am
    13     8     9    1
    14     8    19    2
    15     9    10    1
    16     9    13    1
    17    10    11    1
    18    10    16    1
    19    11    12    1
    20    11    15    1
    21    12    13    1
    22    13    14    1
    23    14    15    2
    24    16    17   ar
    25    16    18   ar
    26    20    21   ar
    27    22    23   ar
    28    22    27   ar
    29    23    24   ar
    30    24    25   ar
    31    25    26   ar
    32    25    28    1
    33    26    27   ar
