@<TRIPOS>MOLECULE
32617_ChemDiv_6049-1403
 27 30 0 0 0
SMALL
GASTEIGER
Energy = 0

@<TRIPOS>ATOM
      1 C          -1.2250    2.5540    0.0000 C.ar    1  LIG1        0.3348
      2 N          -0.7500    1.6920    0.0000 N.ar    1  LIG1       -0.2659
      3 C          -1.2500    0.8210    0.0000 C.ar    1  LIG1        0.1440
      4 C          -2.2420    0.8210    0.0000 C.ar    1  LIG1        0.0954
      5 C          -2.7250    1.6920    0.0000 C.ar    1  LIG1        0.2672
      6 N          -2.2210    2.5790    0.0000 N.ar    1  LIG1       -0.2467
      7 C          -2.6750    3.5000    0.0000 C.3     1  LIG1        0.1382
      8 O          -3.7460    1.6630    0.0000 O.2     1  LIG1       -0.2668
      9 N          -0.7500   -0.0420    0.0000 N.am    1  LIG1       -0.1612
     10 C           0.2580   -0.0420    0.0000 C.2     1  LIG1        0.2548
     11 C           0.7580   -0.9000    0.0000 C.3     1  LIG1        0.1288
     12 C           1.7460   -0.9000    0.0000 C.ar    1  LIG1        0.0250
     13 C           2.2630   -1.7670    0.0000 C.ar    1  LIG1        0.1420
     14 O           1.7460   -2.6290    0.0000 O.3     1  LIG1       -0.4541
     15 C           0.7710   -2.6290    0.0000 C.ar    1  LIG1        0.1420
     16 C           0.2580   -1.7540    0.0000 C.ar    1  LIG1        0.0250
     17 C          -0.7380   -1.7540    0.0000 C.ar    1  LIG1       -0.0005
     18 C          -1.2460   -2.6210    0.0000 C.ar    1  LIG1       -0.0001
     19 C          -0.7380   -3.4960    0.0000 C.ar    1  LIG1        0.0031
     20 C           0.2710   -3.4960    0.0000 C.ar    1  LIG1        0.0372
     21 C           3.2290   -1.7790    0.0000 C.ar    1  LIG1        0.0372
     22 C           3.7420   -0.9290    0.0000 C.ar    1  LIG1        0.0031
     23 C           3.2290   -0.0580    0.0000 C.ar    1  LIG1       -0.0001
     24 C           2.2210   -0.0580    0.0000 C.ar    1  LIG1       -0.0005
     25 O           0.7710    0.8210    0.0000 O.2     1  LIG1       -0.2722
     26 C           0.2500    1.6920    0.0000 C.3     1  LIG1        0.1364
     27 O          -0.7170    3.4210    0.0000 O.2     1  LIG1       -0.2462
@<TRIPOS>BOND
     1     1     2   ar
     2     1     6   ar
     3     1    27    2
     4     2     3   ar
     5     2    26    1
     6     3     4   ar
     7     3     9    1
     8     4     5   ar
     9     5     6   ar
    10     5     8    2
    11     6     7    1
    12     9    10   am
    13    10    11    1
    14    10    25    2
    15    11    12    1
    16    11    16    1
    17    12    13   ar
    18    12    24   ar
    19    13    14    1
    20    13    21   ar
    21    14    15    1
    22    15    16   ar
    23    15    20   ar
    24    16    17   ar
    25    17    18   ar
    26    18    19   ar
    27    19    20   ar
    28    21    22   ar
    29    22    23   ar
    30    23    24   ar
