@<TRIPOS>MOLECULE
32612_ChemDiv_D103-1303
 33 36 0 0 0
SMALL
GASTEIGER
Energy = 0

@<TRIPOS>ATOM
      1 S          -3.7750   -1.3580    0.0000 S.O2    1  LIG1       -0.0083
      2 C          -2.8210   -1.6710    0.0000 C.3     1  LIG1        0.1705
      3 C          -2.2250   -0.8580    0.0000 C.3     1  LIG1        0.1013
      4 N          -1.2290   -0.8580    0.0000 N.am    1  LIG1       -0.2693
      5 C          -0.7380   -1.7130    0.0000 C.2     1  LIG1        0.2841
      6 C           0.2710   -1.7250    0.0000 C.ar    1  LIG1        0.2017
      7 C           0.7670   -0.8580    0.0000 C.ar    1  LIG1        0.0843
      8 C           1.7670   -0.8630    0.0000 C.ar    1  LIG1        0.2018
      9 C           2.2630   -1.7290    0.0000 C.ar    1  LIG1        0.0744
     10 C           1.7580   -2.5920    0.0000 C.ar    1  LIG1        0.1486
     11 O           0.7670   -2.5920    0.0000 O.2     1  LIG1       -0.4487
     12 C           2.2500   -3.4540    0.0000 C.ar    1  LIG1        0.0385
     13 C           3.2420   -3.4630    0.0000 C.ar    1  LIG1        0.0145
     14 C           3.7460   -2.5960    0.0000 C.ar    1  LIG1        0.0580
     15 C           3.2580   -1.7290    0.0000 C.ar    1  LIG1        0.0176
     16 CL          4.7420   -2.5960    0.0000 Cl      1  LIG1       -0.0822
     17 O           2.2710    0.0000    0.0000 O.2     1  LIG1       -0.2864
     18 O          -1.2170   -2.5920    0.0000 O.2     1  LIG1       -0.2665
     19 C          -0.7380    0.0080    0.0000 C.3     1  LIG1        0.1206
     20 C          -1.2380    0.8750    0.0000 C.ar    1  LIG1        0.0009
     21 C          -2.2380    0.8670    0.0000 C.ar    1  LIG1        0.0374
     22 C          -2.7500    1.7330    0.0000 C.ar    1  LIG1        0.1721
     23 C          -2.2460    2.6080    0.0000 C.ar    1  LIG1        0.1724
     24 C          -1.2500    2.6080    0.0000 C.ar    1  LIG1        0.0398
     25 C          -0.7420    1.7500    0.0000 C.ar    1  LIG1        0.0007
     26 O          -2.7500    3.4670    0.0000 O.3     1  LIG1       -0.4684
     27 C          -3.7580    3.4670    0.0000 C.3     1  LIG1        0.2526
     28 O          -3.7460    1.7170    0.0000 O.3     1  LIG1       -0.4684
     29 C          -4.2540    2.5830    0.0000 C.3     1  LIG1        0.2526
     30 C          -2.8210   -0.0500    0.0000 C.3     1  LIG1        0.0469
     31 C          -3.7750   -0.3500    0.0000 C.3     1  LIG1        0.1527
     32 O          -4.7460   -1.0920    0.0000 O.2     1  LIG1       -0.1729
     33 O          -4.0420   -2.3250    0.0000 O.2     1  LIG1       -0.1729
@<TRIPOS>BOND
     1     1     2    1
     2     1    31    1
     3     1    32    2
     4     1    33    2
     5     2     3    1
     6     3     4    1
     7     3    30    1
     8     4     5   am
     9     4    19    1
    10     5     6    1
    11     5    18    2
    12     6     7   ar
    13     6    11   ar
    14     7     8   ar
    15     8     9   ar
    16     8    17    2
    17     9    10   ar
    18     9    15   ar
    19    10    11   ar
    20    10    12   ar
    21    12    13   ar
    22    13    14   ar
    23    14    15   ar
    24    14    16    1
    25    19    20    1
    26    20    21   ar
    27    20    25   ar
    28    21    22   ar
    29    22    23   ar
    30    22    28    1
    31    23    24   ar
    32    23    26    1
    33    24    25   ar
    34    26    27    1
    35    28    29    1
    36    30    31    1
