@<TRIPOS>MOLECULE
32614_ChemDiv_D103-2346
 32 35 0 0 0
SMALL
GASTEIGER
Energy = 0

@<TRIPOS>ATOM
      1 S          -3.2790   -1.3580    0.0000 S.O2    1  LIG1       -0.0083
      2 C          -2.3250   -1.6710    0.0000 C.3     1  LIG1        0.1705
      3 C          -1.7290   -0.8580    0.0000 C.3     1  LIG1        0.1013
      4 N          -0.7330   -0.8580    0.0000 N.am    1  LIG1       -0.2693
      5 C          -0.2380   -1.7130    0.0000 C.2     1  LIG1        0.2841
      6 C           0.7710   -1.7250    0.0000 C.ar    1  LIG1        0.2017
      7 C           1.2670   -0.8580    0.0000 C.ar    1  LIG1        0.0843
      8 C           2.2670   -0.8630    0.0000 C.ar    1  LIG1        0.2018
      9 C           2.7630   -1.7290    0.0000 C.ar    1  LIG1        0.0735
     10 C           2.2540   -2.5920    0.0000 C.ar    1  LIG1        0.1485
     11 O           1.2670   -2.5920    0.0000 O.2     1  LIG1       -0.4487
     12 C           2.7500   -3.4540    0.0000 C.ar    1  LIG1        0.0376
     13 C           3.7380   -3.4630    0.0000 C.ar    1  LIG1        0.0031
     14 C           4.2460   -2.5960    0.0000 C.ar    1  LIG1        0.0003
     15 C           3.7500   -1.7290    0.0000 C.ar    1  LIG1        0.0062
     16 O           2.7670    0.0000    0.0000 O.2     1  LIG1       -0.2864
     17 O          -0.7210   -2.5920    0.0000 O.2     1  LIG1       -0.2665
     18 C          -0.2380    0.0080    0.0000 C.3     1  LIG1        0.1206
     19 C          -0.7380    0.8750    0.0000 C.ar    1  LIG1        0.0009
     20 C          -1.7420    0.8670    0.0000 C.ar    1  LIG1        0.0374
     21 C          -2.2540    1.7330    0.0000 C.ar    1  LIG1        0.1721
     22 C          -1.7460    2.6040    0.0000 C.ar    1  LIG1        0.1724
     23 C          -0.7500    2.6040    0.0000 C.ar    1  LIG1        0.0398
     24 C          -0.2420    1.7500    0.0000 C.ar    1  LIG1        0.0007
     25 O          -2.2540    3.4670    0.0000 O.3     1  LIG1       -0.4684
     26 C          -3.2580    3.4670    0.0000 C.3     1  LIG1        0.2526
     27 O          -3.2500    1.7170    0.0000 O.3     1  LIG1       -0.4684
     28 C          -3.7540    2.5830    0.0000 C.3     1  LIG1        0.2526
     29 C          -2.3250   -0.0500    0.0000 C.3     1  LIG1        0.0469
     30 C          -3.2790   -0.3500    0.0000 C.3     1  LIG1        0.1527
     31 O          -4.2500   -1.0920    0.0000 O.2     1  LIG1       -0.1729
     32 O          -3.5420   -2.3250    0.0000 O.2     1  LIG1       -0.1729
@<TRIPOS>BOND
     1     1     2    1
     2     1    30    1
     3     1    31    2
     4     1    32    2
     5     2     3    1
     6     3     4    1
     7     3    29    1
     8     4     5   am
     9     4    18    1
    10     5     6    1
    11     5    17    2
    12     6     7   ar
    13     6    11   ar
    14     7     8   ar
    15     8     9   ar
    16     8    16    2
    17     9    10   ar
    18     9    15   ar
    19    10    11   ar
    20    10    12   ar
    21    12    13   ar
    22    13    14   ar
    23    14    15   ar
    24    18    19    1
    25    19    20   ar
    26    19    24   ar
    27    20    21   ar
    28    21    22   ar
    29    21    27    1
    30    22    23   ar
    31    22    25    1
    32    23    24   ar
    33    25    26    1
    34    27    28    1
    35    29    30    1
