@<TRIPOS>MOLECULE
32610_ChemDiv_D103-1200
 34 37 0 0 0
SMALL
GASTEIGER
Energy = 0

@<TRIPOS>ATOM
      1 S           0.8170    1.7670    0.0000 S.O2    1  LIG1       -0.0083
      2 C           0.0630    1.1040    0.0000 C.3     1  LIG1        0.1705
      3 C           0.4630    0.1880    0.0000 C.3     1  LIG1        0.1013
      4 N          -0.0380   -0.6790    0.0000 N.am    1  LIG1       -0.2693
      5 C           0.4580   -1.5540    0.0000 C.2     1  LIG1        0.2841
      6 C           1.4630   -1.5710    0.0000 C.ar    1  LIG1        0.2017
      7 C           1.9710   -0.7000    0.0000 C.ar    1  LIG1        0.0843
      8 C           2.9830   -0.7170    0.0000 C.ar    1  LIG1        0.2018
      9 C           3.4710   -1.6000    0.0000 C.ar    1  LIG1        0.0735
     10 C           2.9500   -2.4580    0.0000 C.ar    1  LIG1        0.1482
     11 O           1.9540   -2.4420    0.0000 O.2     1  LIG1       -0.4487
     12 C           3.4380   -3.3380    0.0000 C.ar    1  LIG1        0.0333
     13 C           4.4420   -3.3540    0.0000 C.ar    1  LIG1       -0.0188
     14 C           4.9580   -2.4920    0.0000 C.ar    1  LIG1       -0.0040
     15 C           4.4750   -1.6170    0.0000 C.ar    1  LIG1        0.0059
     16 C           4.9170   -4.2330    0.0000 C.3     1  LIG1        0.0311
     17 O           3.5040    0.1420    0.0000 O.2     1  LIG1       -0.2864
     18 O          -0.0460   -2.4250    0.0000 O.2     1  LIG1       -0.2665
     19 C          -1.0250   -0.6670    0.0000 C.3     1  LIG1        0.1205
     20 C          -1.6170    0.1380    0.0000 C.ar    1  LIG1       -0.0022
     21 C          -1.2170    1.0380    0.0000 C.ar    1  LIG1       -0.0013
     22 C          -1.8130    1.8420    0.0000 C.ar    1  LIG1        0.0142
     23 C          -2.8000    1.7250    0.0000 C.ar    1  LIG1        0.0478
     24 N          -3.3830    2.5290    0.0000 N.pl3   1  LIG1       -0.3075
     25 C          -4.3790    2.4130    0.0000 C.3     1  LIG1        0.0908
     26 C          -4.9630    3.2170    0.0000 C.3     1  LIG1        0.0232
     27 C          -2.9880    3.4380    0.0000 C.3     1  LIG1        0.0908
     28 C          -3.5880    4.2330    0.0000 C.3     1  LIG1        0.0232
     29 C          -3.1920    0.8040    0.0000 C.ar    1  LIG1        0.0142
     30 C          -2.6000    0.0170    0.0000 C.ar    1  LIG1       -0.0013
     31 C           1.4630    0.2880    0.0000 C.3     1  LIG1        0.0469
     32 C           1.6790    1.2630    0.0000 C.3     1  LIG1        0.1527
     33 O           1.5170    2.4790    0.0000 O.2     1  LIG1       -0.1729
     34 O           0.1080    2.4790    0.0000 O.2     1  LIG1       -0.1729
@<TRIPOS>BOND
     1     1     2    1
     2     1    32    1
     3     1    33    2
     4     1    34    2
     5     2     3    1
     6     3     4    1
     7     3    31    1
     8     4     5   am
     9     4    19    1
    10     5     6    1
    11     5    18    2
    12     6     7   ar
    13     6    11   ar
    14     7     8   ar
    15     8     9   ar
    16     8    17    2
    17     9    10   ar
    18     9    15   ar
    19    10    11   ar
    20    10    12   ar
    21    12    13   ar
    22    13    14   ar
    23    13    16    1
    24    14    15   ar
    25    19    20    1
    26    20    21   ar
    27    20    30   ar
    28    21    22   ar
    29    22    23   ar
    30    23    24    1
    31    23    29   ar
    32    24    25    1
    33    24    27    1
    34    25    26    1
    35    27    28    1
    36    29    30   ar
    37    31    32    1
