@<TRIPOS>MOLECULE
32619_ChemDiv_6049-1488
 31 34 0 0 0
SMALL
GASTEIGER
Energy = 0

@<TRIPOS>ATOM
      1 C          -3.8500   -1.0750    0.0000 C.2     1  LIG1        0.2883
      2 C          -4.7670   -0.5750    0.0000 C.ar    1  LIG1        0.1556
      3 N          -4.8040    0.4210    0.0000 N.ar    1  LIG1       -0.2360
      4 C          -5.6960    0.8670    0.0000 C.ar    1  LIG1        0.1196
      5 C          -6.5330    0.3330    0.0000 C.ar    1  LIG1        0.1195
      6 N          -6.4750   -0.6630    0.0000 N.ar    1  LIG1       -0.2390
      7 C          -5.5920   -1.1330    0.0000 C.ar    1  LIG1        0.1226
      8 N          -2.9960   -0.5580    0.0000 N.am    1  LIG1       -0.1741
      9 C          -2.1210   -1.0540    0.0000 C.ar    1  LIG1        0.0739
     10 C          -2.1210   -2.0330    0.0000 C.ar    1  LIG1        0.0197
     11 C          -1.2670   -2.5290    0.0000 C.ar    1  LIG1        0.0388
     12 C          -0.4130   -2.0330    0.0000 C.ar    1  LIG1        0.1454
     13 O           0.4380   -2.5290    0.0000 O.3     1  LIG1       -0.4535
     14 C           1.3170   -2.0130    0.0000 C.ar    1  LIG1        0.1454
     15 C           1.3170   -1.0290    0.0000 C.ar    1  LIG1        0.0388
     16 C           2.1380   -0.5330    0.0000 C.ar    1  LIG1        0.0197
     17 C           2.9920   -1.0290    0.0000 C.ar    1  LIG1        0.0739
     18 N           3.8710   -0.5330    0.0000 N.am    1  LIG1       -0.1741
     19 C           3.8710    0.4710    0.0000 C.2     1  LIG1        0.2883
     20 C           4.7750    1.0000    0.0000 C.ar    1  LIG1        0.1556
     21 N           5.6710    0.5330    0.0000 N.ar    1  LIG1       -0.2360
     22 C           6.5330    1.0330    0.0000 C.ar    1  LIG1        0.1196
     23 C           6.4920    2.0540    0.0000 C.ar    1  LIG1        0.1195
     24 N           5.6000    2.5330    0.0000 N.ar    1  LIG1       -0.2390
     25 C           4.7170    2.0080    0.0000 C.ar    1  LIG1        0.1226
     26 O           2.9540    0.9630    0.0000 O.2     1  LIG1       -0.2663
     27 C           2.9920   -2.0130    0.0000 C.ar    1  LIG1        0.0197
     28 C           2.1380   -2.5000    0.0000 C.ar    1  LIG1        0.0388
     29 C          -0.4130   -1.0540    0.0000 C.ar    1  LIG1        0.0388
     30 C          -1.2670   -0.5580    0.0000 C.ar    1  LIG1        0.0197
     31 O          -3.7790   -2.0960    0.0000 O.2     1  LIG1       -0.2663
@<TRIPOS>BOND
     1     1     2    1
     2     1     8   am
     3     1    31    2
     4     2     3   ar
     5     2     7   ar
     6     3     4   ar
     7     4     5   ar
     8     5     6   ar
     9     6     7   ar
    10     8     9    1
    11     9    10   ar
    12     9    30   ar
    13    10    11   ar
    14    11    12   ar
    15    12    13    1
    16    12    29   ar
    17    13    14    1
    18    14    15   ar
    19    14    28   ar
    20    15    16   ar
    21    16    17   ar
    22    17    18    1
    23    17    27   ar
    24    18    19   am
    25    19    20    1
    26    19    26    2
    27    20    21   ar
    28    20    25   ar
    29    21    22   ar
    30    22    23   ar
    31    23    24   ar
    32    24    25   ar
    33    27    28   ar
    34    29    30   ar
