@<TRIPOS>MOLECULE
32625_ChemDiv_E612-1539
 25 28 0 0 0
SMALL
GASTEIGER
Energy = 0

@<TRIPOS>ATOM
      1 N           2.1080    0.3830    0.0000 N.am    1  LIG1       -0.2636
      2 C           2.6960   -0.4250    0.0000 C.2     1  LIG1        0.2494
      3 C           3.6500   -0.1170    0.0000 C.ar    1  LIG1        0.0512
      4 C           3.6500    0.8830    0.0000 C.ar    1  LIG1        0.0021
      5 C           2.6960    1.1920    0.0000 C.3     1  LIG1        0.1211
      6 C           4.5170    1.3830    0.0000 C.ar    1  LIG1       -0.0025
      7 C           5.3830    0.8830    0.0000 C.ar    1  LIG1       -0.0003
      8 C           5.3830   -0.1170    0.0000 C.ar    1  LIG1        0.0001
      9 C           4.5170   -0.6170    0.0000 C.ar    1  LIG1        0.0043
     10 O           2.3880   -1.3790    0.0000 O.2     1  LIG1       -0.2699
     11 C           1.1080    0.3830    0.0000 C.3     1  LIG1        0.1798
     12 C           0.6080   -0.4830    0.0000 C.2     1  LIG1        0.2462
     13 N          -0.3880   -0.4830    0.0000 N.am    1  LIG1       -0.2737
     14 C          -0.8880   -1.3500    0.0000 C.3     1  LIG1        0.1196
     15 C          -1.8880   -1.3500    0.0000 C.2     1  LIG1       -0.0089
     16 C          -2.3880   -0.4830    0.0000 C.2     1  LIG1       -0.0231
     17 C          -1.8880    0.3830    0.0000 C.3     1  LIG1        0.0476
     18 C          -0.8880    0.3830    0.0000 C.3     1  LIG1        0.0984
     19 C          -3.3880   -0.4830    0.0000 C.ar    1  LIG1       -0.0042
     20 C          -3.8880   -1.3500    0.0000 C.ar    1  LIG1       -0.0003
     21 C          -4.8880   -1.3500    0.0000 C.ar    1  LIG1       -0.0000
     22 C          -5.3880   -0.4830    0.0000 C.ar    1  LIG1       -0.0000
     23 C          -4.8880    0.3830    0.0000 C.ar    1  LIG1       -0.0000
     24 C          -3.8880    0.3830    0.0000 C.ar    1  LIG1       -0.0003
     25 O           1.1080   -1.3500    0.0000 O.2     1  LIG1       -0.2730
@<TRIPOS>BOND
     1     1     2   am
     2     1     5    1
     3     1    11    1
     4     2     3    1
     5     2    10    2
     6     3     4   ar
     7     3     9   ar
     8     4     5    1
     9     4     6   ar
    10     6     7   ar
    11     7     8   ar
    12     8     9   ar
    13    11    12    1
    14    12    13   am
    15    12    25    2
    16    13    14    1
    17    13    18    1
    18    14    15    1
    19    15    16    2
    20    16    17    1
    21    16    19    1
    22    17    18    1
    23    19    20   ar
    24    19    24   ar
    25    20    21   ar
    26    21    22   ar
    27    22    23   ar
    28    23    24   ar
