@<TRIPOS>MOLECULE
32623_ChemDiv_6049-1537
 33 35 0 0 0
SMALL
GASTEIGER
Energy = 0

@<TRIPOS>ATOM
      1 S          -2.0170   -0.2210    0.0000 S.O2    1  LIG1        0.0633
      2 N          -1.0330   -0.3330    0.0000 N.3     1  LIG1       -0.1540
      3 C          -0.3830    0.4830    0.0000 C.3     1  LIG1        0.1149
      4 C           0.5750    0.4830    0.0000 C.3     1  LIG1        0.1149
      5 N           1.2000   -0.3580    0.0000 N.3     1  LIG1       -0.1540
      6 S           2.1880   -0.2750    0.0000 S.O2    1  LIG1        0.0633
      7 C           3.1960   -0.2000    0.0000 C.ar    1  LIG1        0.1223
      8 C           3.7670   -1.0380    0.0000 C.ar    1  LIG1        0.0212
      9 C           4.7630   -0.9580    0.0000 C.ar    1  LIG1        0.0180
     10 C           5.2080   -0.0540    0.0000 C.ar    1  LIG1        0.0734
     11 N           6.1960    0.0170    0.0000 N.am    1  LIG1       -0.1792
     12 C           6.6420    0.9000    0.0000 C.2     1  LIG1        0.2461
     13 O           6.0630    1.7420    0.0000 O.2     1  LIG1       -0.2730
     14 C           7.6290    0.9710    0.0000 C.3     1  LIG1        0.0968
     15 C           4.6290    0.7540    0.0000 C.ar    1  LIG1        0.0180
     16 C           3.6380    0.6710    0.0000 C.ar    1  LIG1        0.0212
     17 O           2.1000    0.7170    0.0000 O.2     1  LIG1       -0.1528
     18 O           2.2460   -1.2710    0.0000 O.2     1  LIG1       -0.1528
     19 C           0.9920   -1.2710    0.0000 C.3     1  LIG1        0.0973
     20 C           0.0710   -1.7380    0.0000 C.3     1  LIG1        0.0383
     21 C          -0.8040   -1.2880    0.0000 C.3     1  LIG1        0.0973
     22 C          -3.0250   -0.1040    0.0000 C.ar    1  LIG1        0.1223
     23 C          -3.4420    0.8130    0.0000 C.ar    1  LIG1        0.0212
     24 C          -4.4380    0.9290    0.0000 C.ar    1  LIG1        0.0180
     25 C          -5.0380    0.1330    0.0000 C.ar    1  LIG1        0.0734
     26 N          -6.0250    0.2420    0.0000 N.am    1  LIG1       -0.1792
     27 C          -6.6330   -0.5500    0.0000 C.2     1  LIG1        0.2461
     28 O          -6.2330   -1.4960    0.0000 O.2     1  LIG1       -0.2730
     29 C          -7.6290   -0.4210    0.0000 C.3     1  LIG1        0.0968
     30 C          -4.6380   -0.7830    0.0000 C.ar    1  LIG1        0.0180
     31 C          -3.6500   -0.8960    0.0000 C.ar    1  LIG1        0.0212
     32 O          -1.8920    0.7540    0.0000 O.2     1  LIG1       -0.1528
     33 O          -2.1330   -1.2420    0.0000 O.2     1  LIG1       -0.1528
@<TRIPOS>BOND
     1     1     2    1
     2     1    22    1
     3     1    32    2
     4     1    33    2
     5     2     3    1
     6     2    21    1
     7     3     4    1
     8     4     5    1
     9     5     6    1
    10     5    19    1
    11     6     7    1
    12     6    17    2
    13     6    18    2
    14     7     8   ar
    15     7    16   ar
    16     8     9   ar
    17     9    10   ar
    18    10    11    1
    19    10    15   ar
    20    11    12   am
    21    12    13    2
    22    12    14    1
    23    15    16   ar
    24    19    20    1
    25    20    21    1
    26    22    23   ar
    27    22    31   ar
    28    23    24   ar
    29    24    25   ar
    30    25    26    1
    31    25    30   ar
    32    26    27   am
    33    27    28    2
    34    27    29    1
    35    30    31   ar
