@<TRIPOS>MOLECULE
32620_ChemDiv_6216-0001
 21 24 0 0 0
SMALL
GASTEIGER
Energy = 0

@<TRIPOS>ATOM
      1 N           1.3630   -1.3670    0.0000 N.ar    1  LIG1       -0.1449
      2 C           0.4920   -0.8670    0.0000 C.ar    1  LIG1        0.1031
      3 C          -0.3710   -1.3670    0.0000 C.ar    1  LIG1        0.0241
      4 C          -0.3710   -2.3670    0.0000 C.ar    1  LIG1        0.0608
      5 C           0.4920   -2.8670    0.0000 C.ar    1  LIG1        0.2967
      6 N           1.3630   -2.3670    0.0000 N.ar    1  LIG1       -0.1055
      7 O           0.4920   -3.8630    0.0000 O.2     1  LIG1       -0.2636
      8 C          -1.2330   -2.8670    0.0000 C.ar    1  LIG1        0.0049
      9 C          -2.1080   -2.3670    0.0000 C.ar    1  LIG1        0.0002
     10 C          -2.1080   -1.3750    0.0000 C.ar    1  LIG1        0.0001
     11 C          -1.2330   -0.8670    0.0000 C.ar    1  LIG1        0.0017
     12 C           0.4920    0.1330    0.0000 C.ar    1  LIG1        0.0210
     13 C           1.3630    0.6330    0.0000 C.ar    1  LIG1        0.0222
     14 C           1.3630    1.6380    0.0000 C.ar    1  LIG1        0.0988
     15 N           2.1040    2.3130    0.0000 N.ar    1  LIG1       -0.2239
     16 C           1.7040    3.2130    0.0000 C.ar    1  LIG1        0.1786
     17 N           0.7040    3.1170    0.0000 N.ar    1  LIG1       -0.3070
     18 C           0.4920    2.1380    0.0000 C.ar    1  LIG1        0.0790
     19 C          -0.3710    1.6380    0.0000 C.ar    1  LIG1        0.0188
     20 C          -0.3710    0.6330    0.0000 C.ar    1  LIG1        0.0031
     21 C           0.0380    3.8670    0.0000 C.3     1  LIG1        0.1320
@<TRIPOS>BOND
     1     1     2   ar
     2     1     6   ar
     3     2     3   ar
     4     2    12    1
     5     3     4   ar
     6     3    11   ar
     7     4     5   ar
     8     4     8   ar
     9     5     6   ar
    10     5     7    2
    11     8     9   ar
    12     9    10   ar
    13    10    11   ar
    14    12    13   ar
    15    12    20   ar
    16    13    14   ar
    17    14    15   ar
    18    14    18   ar
    19    15    16   ar
    20    16    17   ar
    21    17    18   ar
    22    17    21    1
    23    18    19   ar
    24    19    20   ar
