@<TRIPOS>MOLECULE
32622_ChemDiv_6218-0041
 24 25 0 0 0
SMALL
GASTEIGER
Energy = 0

@<TRIPOS>ATOM
      1 S           5.5330   -0.8250    0.0000 S.O2    1  LIG1        0.0935
      2 C           4.5330   -0.8250    0.0000 C.ar    1  LIG1        0.1251
      3 C           4.0670   -1.6960    0.0000 C.ar    1  LIG1        0.0213
      4 C           3.0670   -1.6960    0.0000 C.ar    1  LIG1        0.0180
      5 C           2.5670   -0.8250    0.0000 C.ar    1  LIG1        0.0735
      6 N           1.5630   -0.8250    0.0000 N.am    1  LIG1       -0.1785
      7 C           1.0630    0.0420    0.0000 C.2     1  LIG1        0.2572
      8 O           1.5630    0.9080    0.0000 O.2     1  LIG1       -0.2720
      9 C           0.0630    0.0420    0.0000 C.3     1  LIG1        0.1568
     10 S          -0.4710    0.9080    0.0000 S.3     1  LIG1       -0.0029
     11 C          -1.4710    0.9080    0.0000 C.ar    1  LIG1        0.4796
     12 N          -2.0380    0.1040    0.0000 N.ar    1  LIG1        0.1828
     13 C          -3.0080    0.4080    0.0000 C.ar    1  LIG1        0.5937
     14 N          -3.0080    1.4040    0.0000 N.ar    1  LIG1        0.2964
     15 N          -2.0380    1.7000    0.0000 N.ar    1  LIG1        0.1661
     16 C          -3.8040   -0.1960    0.0000 C.3     1  LIG1        0.1918
     17 C          -4.6710    0.3040    0.0000 C.3     1  LIG1        0.0190
     18 C          -5.5380   -0.1960    0.0000 C.3     1  LIG1        0.0008
     19 C          -6.4000    0.3040    0.0000 C.3     1  LIG1        0.0000
     20 C           3.0670    0.0420    0.0000 C.ar    1  LIG1        0.0180
     21 C           4.0670    0.0420    0.0000 C.ar    1  LIG1        0.0213
     22 O           5.5330    0.1750    0.0000 O.2     1  LIG1       -0.1503
     23 O           6.4000   -0.3250    0.0000 O.2     1  LIG1       -0.1503
     24 N           6.0330   -1.6960    0.0000 N.3     1  LIG1        0.0392
@<TRIPOS>BOND
     1     1     2    1
     2     1    22    2
     3     1    23    2
     4     1    24    1
     5     2     3   ar
     6     2    21   ar
     7     3     4   ar
     8     4     5   ar
     9     5     6    1
    10     5    20   ar
    11     6     7   am
    12     7     8    2
    13     7     9    1
    14     9    10    1
    15    10    11    1
    16    11    12   ar
    17    11    15   ar
    18    12    13   ar
    19    13    14   ar
    20    13    16    1
    21    14    15   ar
    22    16    17    1
    23    17    18    1
    24    18    19    1
    25    20    21   ar
