@<TRIPOS>MOLECULE
32624_ChemDiv_6220-1095
 30 33 0 0 0
SMALL
GASTEIGER
Energy = 0

@<TRIPOS>ATOM
      1 N          -1.3170    1.0080    0.0000 N.ar    1  LIG1       -0.2356
      2 C          -0.4630    0.5250    0.0000 C.ar    1  LIG1        0.1306
      3 C          -0.4630   -0.4790    0.0000 C.ar    1  LIG1        0.1306
      4 N          -1.3170   -1.0000    0.0000 N.ar    1  LIG1       -0.2356
      5 C          -2.1710   -0.4790    0.0000 C.ar    1  LIG1        0.0995
      6 C          -2.1710    0.5250    0.0000 C.ar    1  LIG1        0.0995
      7 C          -3.0290    1.0080    0.0000 C.ar    1  LIG1        0.0207
      8 C          -3.8880    0.5250    0.0000 C.ar    1  LIG1        0.0016
      9 C          -3.8880   -0.4790    0.0000 C.ar    1  LIG1        0.0016
     10 C          -3.0290   -1.0000    0.0000 C.ar    1  LIG1        0.0207
     11 S           0.4210   -1.0000    0.0000 S.3     1  LIG1       -0.0832
     12 C           0.4210   -2.0460    0.0000 C.3     1  LIG1        0.1486
     13 C           1.3040   -2.5290    0.0000 C.2     1  LIG1        0.2372
     14 N           2.1630   -2.0460    0.0000 N.am    1  LIG1       -0.2737
     15 C           2.1630   -1.0420    0.0000 C.3     1  LIG1        0.1255
     16 C           3.0250   -0.5170    0.0000 C.3     1  LIG1        0.1636
     17 O           3.8830   -1.0420    0.0000 O.3     1  LIG1       -0.3501
     18 C           3.8830   -2.0460    0.0000 C.3     1  LIG1        0.1636
     19 C           3.0250   -2.5290    0.0000 C.3     1  LIG1        0.1255
     20 O           1.3040   -3.5330    0.0000 O.2     1  LIG1       -0.2739
     21 S           0.4210    1.0460    0.0000 S.3     1  LIG1       -0.0832
     22 C           0.4210    2.0540    0.0000 C.3     1  LIG1        0.1486
     23 C           1.3040    2.5330    0.0000 C.2     1  LIG1        0.2372
     24 N           2.1630    2.0540    0.0000 N.am    1  LIG1       -0.2737
     25 C           2.1630    1.0460    0.0000 C.3     1  LIG1        0.1255
     26 C           3.0250    0.5670    0.0000 C.3     1  LIG1        0.1636
     27 O           3.8830    1.0460    0.0000 O.3     1  LIG1       -0.3501
     28 C           3.8830    2.0540    0.0000 C.3     1  LIG1        0.1636
     29 C           3.0250    2.5330    0.0000 C.3     1  LIG1        0.1255
     30 O           1.3040    3.5380    0.0000 O.2     1  LIG1       -0.2739
@<TRIPOS>BOND
     1     1     2   ar
     2     1     6   ar
     3     2     3   ar
     4     2    21    1
     5     3     4   ar
     6     3    11    1
     7     4     5   ar
     8     5     6   ar
     9     5    10   ar
    10     6     7   ar
    11     7     8   ar
    12     8     9   ar
    13     9    10   ar
    14    11    12    1
    15    12    13    1
    16    13    14   am
    17    13    20    2
    18    14    15    1
    19    14    19    1
    20    15    16    1
    21    16    17    1
    22    17    18    1
    23    18    19    1
    24    21    22    1
    25    22    23    1
    26    23    24   am
    27    23    30    2
    28    24    25    1
    29    24    29    1
    30    25    26    1
    31    26    27    1
    32    27    28    1
    33    28    29    1
