@<TRIPOS>MOLECULE
32627_ChemDiv_6072-0068
 24 27 0 0 0
SMALL
GASTEIGER
Energy = 0

@<TRIPOS>ATOM
      1 C          -1.9830   -0.0080    0.0000 C.3     1  LIG1        0.0862
      2 C          -1.4830    0.8540    0.0000 C.2     1  LIG1        0.2261
      3 N          -0.4790    0.8540    0.0000 N.am    1  LIG1       -0.2751
      4 C           0.0000    1.7130    0.0000 C.3     1  LIG1        0.1195
      5 C           1.0040    1.7130    0.0000 C.2     1  LIG1       -0.0089
      6 C           1.4830    0.8540    0.0000 C.2     1  LIG1       -0.0231
      7 C           1.0040   -0.0080    0.0000 C.3     1  LIG1        0.0476
      8 C           0.0000   -0.0080    0.0000 C.3     1  LIG1        0.0984
      9 C           2.4880    0.8540    0.0000 C.ar    1  LIG1       -0.0042
     10 C           3.0080   -0.0080    0.0000 C.ar    1  LIG1       -0.0003
     11 C           3.9920    0.0130    0.0000 C.ar    1  LIG1       -0.0000
     12 C           4.4920    0.8750    0.0000 C.ar    1  LIG1       -0.0000
     13 C           3.9670    1.7210    0.0000 C.ar    1  LIG1       -0.0000
     14 C           2.9830    1.7130    0.0000 C.ar    1  LIG1       -0.0003
     15 O          -1.9830    1.7130    0.0000 O.2     1  LIG1       -0.2749
     16 C          -1.4830   -0.8630    0.0000 C.3     1  LIG1        0.0310
     17 C          -1.9830   -1.7250    0.0000 C.2     1  LIG1       -0.0305
     18 C          -2.9790   -1.7250    0.0000 C.2     1  LIG1       -0.0306
     19 C          -3.4830   -0.8630    0.0000 C.3     1  LIG1        0.0277
     20 C          -2.9790   -0.0080    0.0000 C.3     1  LIG1        0.0495
     21 C          -3.4880    0.8670    0.0000 C.2     1  LIG1        0.0508
     22 O          -4.4960    0.8670    0.0000 O.co2   1  LIG1       -0.5492
     23 O          -2.9880    1.7290    0.0000 O.co2   1  LIG1       -0.5492
     24 C          -2.5380   -1.1960    0.0000 C.3     1  LIG1        0.0095
@<TRIPOS>BOND
     1     1     2    1
     2     1    16    1
     3     1    20    1
     4     2     3   am
     5     2    15    2
     6     3     4    1
     7     3     8    1
     8     4     5    1
     9     5     6    2
    10     6     7    1
    11     6     9    1
    12     7     8    1
    13     9    10   ar
    14     9    14   ar
    15    10    11   ar
    16    11    12   ar
    17    12    13   ar
    18    13    14   ar
    19    16    17    1
    20    16    24    1
    21    17    18    2
    22    18    19    1
    23    19    20    1
    24    19    24    1
    25    20    21    1
    26    21    22   ar
    27    21    23   ar
