@<TRIPOS>MOLECULE
32631_ChemDiv_6079-1867
 20 22 0 0 0
SMALL
GASTEIGER
Energy = 0

@<TRIPOS>ATOM
      1 C           0.2540   -0.3630    0.0000 C.ar    1  LIG1        0.0823
      2 C          -0.1540   -1.2750    0.0000 C.ar    1  LIG1        0.0381
      3 C           0.4250   -2.0830    0.0000 C.ar    1  LIG1        0.1451
      4 O          -0.1580   -2.8920    0.0000 O.2     1  LIG1       -0.4581
      5 C          -1.1040   -2.5830    0.0000 C.ar    1  LIG1        0.1188
      6 C          -1.1040   -1.5880    0.0000 C.ar    1  LIG1        0.0111
      7 C          -1.9670   -1.0750    0.0000 C.3     1  LIG1        0.0292
      8 C          -2.8380   -1.5880    0.0000 C.3     1  LIG1        0.0052
      9 C          -2.8380   -2.5830    0.0000 C.3     1  LIG1        0.0083
     10 C          -1.9670   -3.0830    0.0000 C.3     1  LIG1        0.0642
     11 C           1.4210   -1.9880    0.0000 C.ar    1  LIG1        0.0473
     12 C           1.8290   -1.0790    0.0000 C.ar    1  LIG1        0.0763
     13 C           1.2420   -0.2670    0.0000 C.ar    1  LIG1        0.2037
     14 O           1.6580    0.6500    0.0000 O.3     1  LIG1       -0.2862
     15 BR          2.8330   -0.9750    0.0000 Br      1  LIG1       -0.0456
     16 C          -0.3290    0.4380    0.0000 C.3     1  LIG1        0.2313
     17 N           0.0710    1.3580    0.0000 N.4     1  LIG1        0.4472
     18 C          -0.5170    2.1670    0.0000 C.3     1  LIG1        0.1444
     19 C          -0.1000    3.0880    0.0000 C.3     1  LIG1        0.0687
     20 C          -1.5130    2.0670    0.0000 C.3     1  LIG1        0.0687
@<TRIPOS>BOND
     1     1     2   ar
     2     1    13   ar
     3     1    16    1
     4     2     3   ar
     5     2     6   ar
     6     3     4   ar
     7     3    11   ar
     8     4     5   ar
     9     5     6   ar
    10     5    10    1
    11     6     7    1
    12     7     8    1
    13     8     9    1
    14     9    10    1
    15    11    12   ar
    16    12    13   ar
    17    12    15    1
    18    13    14    1
    19    16    17    1
    20    17    18    1
    21    18    19    1
    22    18    20    1
