@<TRIPOS>MOLECULE
32639_ChemDiv_6080-0063
 16 18 0 0 0
SMALL
GASTEIGER
Energy = 0

@<TRIPOS>ATOM
      1 N           0.2830    0.7210    0.0000 N.4     1  LIG1        0.3140
      2 C          -0.3130   -0.0880    0.0000 C.3     1  LIG1        0.1370
      3 C          -1.2630    0.2210    0.0000 C.ar    1  LIG1        0.0343
      4 C          -1.2630    1.2170    0.0000 C.ar    1  LIG1        0.0343
      5 C          -0.3130    1.5330    0.0000 C.3     1  LIG1        0.1370
      6 C          -2.1290    1.7250    0.0000 C.ar    1  LIG1        0.0013
      7 C          -2.9920    1.2170    0.0000 C.ar    1  LIG1       -0.0001
      8 C          -2.9920    0.2170    0.0000 C.ar    1  LIG1       -0.0001
      9 C          -2.1290   -0.2830    0.0000 C.ar    1  LIG1        0.0013
     10 C           1.2830    0.7210    0.0000 C.3     1  LIG1        0.1749
     11 C           1.7790   -0.1460    0.0000 C.ar    1  LIG1        0.1781
     12 O           1.3750   -1.0540    0.0000 O.2     1  LIG1       -0.4488
     13 C           2.1250   -1.7210    0.0000 C.ar    1  LIG1        0.1794
     14 C           2.9880   -1.2210    0.0000 C.ar    1  LIG1        0.0436
     15 C           2.7790   -0.2420    0.0000 C.ar    1  LIG1        0.0422
     16 C           0.5380   -0.2380    0.0000 C.3     1  LIG1        0.1717
@<TRIPOS>BOND
     1     1     2    1
     2     1     5    1
     3     1    10    1
     4     1    16    1
     5     2     3    1
     6     3     4   ar
     7     3     9   ar
     8     4     5    1
     9     4     6   ar
    10     6     7   ar
    11     7     8   ar
    12     8     9   ar
    13    10    11    1
    14    11    12   ar
    15    11    15   ar
    16    12    13   ar
    17    13    14   ar
    18    14    15   ar
