@<TRIPOS>MOLECULE
32645_ChemDiv_8013-4396
 26 29 0 0 0
SMALL
GASTEIGER
Energy = 0

@<TRIPOS>ATOM
      1 C           1.9710   -0.7670    0.0000 C.3     1  LIG1        0.1216
      2 N           2.3750    0.1210    0.0000 N.4     1  LIG1        0.3754
      3 C           3.3540    0.1210    0.0000 C.3     1  LIG1        0.1386
      4 C           3.8420    0.9830    0.0000 C.3     1  LIG1        0.0629
      5 C           3.3540    1.8290    0.0000 C.3     1  LIG1        0.0123
      6 C           2.4080    1.8290    0.0000 C.3     1  LIG1        0.0629
      7 C           1.8790    0.9540    0.0000 C.3     1  LIG1        0.1386
      8 C           2.5540   -1.6250    0.0000 C.2     1  LIG1        0.3061
      9 O           3.5330   -1.6250    0.0000 O.2     1  LIG1       -0.2657
     10 N           2.1670   -2.5250    0.0000 N.am    1  LIG1       -0.0830
     11 C           1.4880    0.0670    0.0000 C.3     1  LIG1        0.0819
     12 C           0.5080    0.0670    0.0000 C.3     1  LIG1        0.1000
     13 N           0.0210   -0.7670    0.0000 N.am    1  LIG1       -0.2756
     14 C          -0.9460   -0.7580    0.0000 C.2     1  LIG1        0.2491
     15 C          -1.3960   -0.0290    0.0000 C.ar    1  LIG1        0.0568
     16 C          -2.3540   -0.0290    0.0000 C.ar    1  LIG1        0.0447
     17 C          -2.8540    0.8580    0.0000 C.ar    1  LIG1        0.1766
     18 C          -2.3540    1.6670    0.0000 C.ar    1  LIG1        0.1764
     19 O          -2.8130    2.5290    0.0000 O.3     1  LIG1       -0.4346
     20 C          -3.8460    2.5290    0.0000 C.3     1  LIG1        0.4294
     21 O          -3.8330    0.8580    0.0000 O.3     1  LIG1       -0.4346
     22 C          -1.4130    1.6670    0.0000 C.ar    1  LIG1        0.0403
     23 C          -0.9080    0.8420    0.0000 C.ar    1  LIG1        0.0078
     24 O          -1.5580   -1.5670    0.0000 O.2     1  LIG1       -0.2699
     25 C           0.5080   -1.6080    0.0000 C.3     1  LIG1        0.1000
     26 C           1.4670   -1.6080    0.0000 C.3     1  LIG1        0.0819
@<TRIPOS>BOND
     1     1     2    1
     2     1     8    1
     3     1    11    1
     4     1    26    1
     5     2     3    1
     6     2     7    1
     7     3     4    1
     8     4     5    1
     9     5     6    1
    10     6     7    1
    11     8     9    2
    12     8    10   am
    13    11    12    1
    14    12    13    1
    15    13    14   am
    16    13    25    1
    17    14    15    1
    18    14    24    2
    19    15    16   ar
    20    15    23   ar
    21    16    17   ar
    22    17    18   ar
    23    17    21    1
    24    18    19    1
    25    18    22   ar
    26    19    20    1
    27    20    21    1
    28    22    23   ar
    29    25    26    1
