@<TRIPOS>MOLECULE
32642_ChemDiv_6220-5838
 24 27 0 0 0
SMALL
GASTEIGER
Energy = 0

@<TRIPOS>ATOM
      1 C          -1.3790   -0.7880    0.0000 C.ar    1  LIG1        0.2218
      2 N          -1.9380    0.0130    0.0000 N.ar    1  LIG1       -0.2075
      3 C          -2.8830   -0.3130    0.0000 C.ar    1  LIG1        0.1546
      4 C          -2.8830   -1.3130    0.0000 C.ar    1  LIG1        0.1873
      5 N          -1.9380   -1.6040    0.0000 N.ar    1  LIG1       -0.1928
      6 N          -3.7500   -1.8130    0.0000 N.ar    1  LIG1       -0.2031
      7 C          -4.6330   -1.3130    0.0000 C.ar    1  LIG1        0.2016
      8 N          -4.6330   -0.3130    0.0000 N.ar    1  LIG1       -0.2040
      9 C          -3.7500    0.1880    0.0000 C.ar    1  LIG1        0.1920
     10 N          -3.7500    1.1830    0.0000 N.pl3   1  LIG1       -0.1054
     11 N          -0.3750   -0.7880    0.0000 N.pl3   1  LIG1       -0.2746
     12 C           0.1380   -1.6670    0.0000 C.3     1  LIG1        0.1151
     13 C           1.1420   -1.6670    0.0000 C.3     1  LIG1        0.1152
     14 N           1.6500   -0.8130    0.0000 N.am    1  LIG1       -0.2726
     15 C           2.6500   -0.7880    0.0000 C.2     1  LIG1        0.2491
     16 O           3.1710   -1.6500    0.0000 O.2     1  LIG1       -0.2699
     17 C           3.1540    0.0580    0.0000 C.ar    1  LIG1        0.0536
     18 C           2.6330    0.9130    0.0000 C.ar    1  LIG1        0.0045
     19 C           3.0960    1.7920    0.0000 C.ar    1  LIG1        0.0001
     20 C           4.0960    1.8170    0.0000 C.ar    1  LIG1        0.0000
     21 C           4.6290    0.9580    0.0000 C.ar    1  LIG1        0.0001
     22 C           4.1380    0.0750    0.0000 C.ar    1  LIG1        0.0045
     23 C           1.1420    0.0580    0.0000 C.3     1  LIG1        0.1152
     24 C           0.1380    0.0580    0.0000 C.3     1  LIG1        0.1151
@<TRIPOS>BOND
     1     1     2   ar
     2     1     5   ar
     3     1    11    1
     4     2     3   ar
     5     3     4   ar
     6     3     9   ar
     7     4     5   ar
     8     4     6   ar
     9     6     7   ar
    10     7     8   ar
    11     8     9   ar
    12     9    10    1
    13    11    12    1
    14    11    24    1
    15    12    13    1
    16    13    14    1
    17    14    15   am
    18    14    23    1
    19    15    16    2
    20    15    17    1
    21    17    18   ar
    22    17    22   ar
    23    18    19   ar
    24    19    20   ar
    25    20    21   ar
    26    21    22   ar
    27    23    24    1
