@<TRIPOS>MOLECULE
32641_ChemDiv_6049-1545
 24 27 0 0 0
SMALL
GASTEIGER
Energy = 0

@<TRIPOS>ATOM
      1 C           1.3000    0.6500    0.0000 C.3     1  LIG1        0.0811
      2 C           2.1670    1.1540    0.0000 C.3     1  LIG1        0.0314
      3 C           1.3000    1.6420    0.0000 C.3     1  LIG1        0.0142
      4 C           3.1580    1.1540    0.0000 C.ar    1  LIG1       -0.0220
      5 C           3.6830    0.2630    0.0000 C.ar    1  LIG1       -0.0043
      6 C           4.6830    0.2630    0.0000 C.ar    1  LIG1       -0.0003
      7 C           5.1960    1.1540    0.0000 C.ar    1  LIG1       -0.0000
      8 C           4.6830    2.0170    0.0000 C.ar    1  LIG1       -0.0003
      9 C           3.6830    2.0170    0.0000 C.ar    1  LIG1       -0.0043
     10 C           0.7880   -0.2460    0.0000 C.2     1  LIG1        0.2256
     11 N          -0.2080   -0.2460    0.0000 N.am    1  LIG1       -0.2760
     12 C          -0.7000   -1.1040    0.0000 C.3     1  LIG1        0.1148
     13 C          -1.6960   -1.1040    0.0000 C.3     1  LIG1        0.1123
     14 N          -2.2080   -0.2750    0.0000 N.pl3   1  LIG1       -0.3040
     15 C          -3.1960   -0.2750    0.0000 C.ar    1  LIG1        0.0488
     16 C          -3.6830   -1.1330    0.0000 C.ar    1  LIG1        0.0259
     17 C          -4.7000   -1.1040    0.0000 C.ar    1  LIG1        0.0589
     18 CL         -5.2000   -2.0130    0.0000 Cl      1  LIG1       -0.0822
     19 C          -5.2000   -0.2460    0.0000 C.ar    1  LIG1        0.0115
     20 C          -4.6830    0.6000    0.0000 C.ar    1  LIG1        0.0021
     21 C          -3.6830    0.5710    0.0000 C.ar    1  LIG1        0.0146
     22 C          -1.7250    0.5710    0.0000 C.3     1  LIG1        0.1123
     23 C          -0.7330    0.6000    0.0000 C.3     1  LIG1        0.1148
     24 O           1.2880   -1.1130    0.0000 O.2     1  LIG1       -0.2749
@<TRIPOS>BOND
     1     1     2    1
     2     1     3    1
     3     1    10    1
     4     2     3    1
     5     2     4    1
     6     4     5   ar
     7     4     9   ar
     8     5     6   ar
     9     6     7   ar
    10     7     8   ar
    11     8     9   ar
    12    10    11   am
    13    10    24    2
    14    11    12    1
    15    11    23    1
    16    12    13    1
    17    13    14    1
    18    14    15    1
    19    14    22    1
    20    15    16   ar
    21    15    21   ar
    22    16    17   ar
    23    17    18    1
    24    17    19   ar
    25    19    20   ar
    26    20    21   ar
    27    22    23    1
