@<TRIPOS>MOLECULE
32643_ChemDiv_6049-1584
 29 33 0 0 0
SMALL
GASTEIGER
Energy = 0

@<TRIPOS>ATOM
      1 C          -2.3750   -0.1920    0.0000 C.2     1  LIG1        0.2492
      2 N          -1.3790   -0.3130    0.0000 N.am    1  LIG1       -0.2743
      3 C          -0.7420    0.5170    0.0000 C.3     1  LIG1        0.1152
      4 C           0.2210    0.5170    0.0000 C.3     1  LIG1        0.1152
      5 N           0.8420   -0.3290    0.0000 N.am    1  LIG1       -0.2743
      6 C           1.8250   -0.2540    0.0000 C.2     1  LIG1        0.2492
      7 C           2.4170   -1.1040    0.0000 C.ar    1  LIG1        0.0568
      8 C           3.4040   -0.9880    0.0000 C.ar    1  LIG1        0.0447
      9 C           3.9750   -1.8130    0.0000 C.ar    1  LIG1        0.1766
     10 C           3.5830   -2.6960    0.0000 C.ar    1  LIG1        0.1764
     11 O           4.3460   -3.3710    0.0000 O.3     1  LIG1       -0.4346
     12 C           5.1750   -2.8710    0.0000 C.3     1  LIG1        0.4294
     13 O           4.9960   -1.9290    0.0000 O.3     1  LIG1       -0.4346
     14 C           2.5790   -2.8170    0.0000 C.ar    1  LIG1        0.0403
     15 C           2.0000   -2.0170    0.0000 C.ar    1  LIG1        0.0078
     16 O           2.2380    0.6710    0.0000 O.2     1  LIG1       -0.2699
     17 C           0.6330   -1.2380    0.0000 C.3     1  LIG1        0.0955
     18 C          -0.2790   -1.6960    0.0000 C.3     1  LIG1        0.0430
     19 C          -1.1460   -1.2500    0.0000 C.3     1  LIG1        0.0955
     20 C          -2.7830    0.7500    0.0000 C.ar    1  LIG1        0.0568
     21 C          -3.7880    0.8250    0.0000 C.ar    1  LIG1        0.0447
     22 C          -4.2000    1.7380    0.0000 C.ar    1  LIG1        0.1766
     23 C          -3.6250    2.5670    0.0000 C.ar    1  LIG1        0.1764
     24 O          -4.2420    3.3750    0.0000 O.3     1  LIG1       -0.4346
     25 C          -5.1580    3.0380    0.0000 C.3     1  LIG1        0.4294
     26 O          -5.1790    2.0630    0.0000 O.3     1  LIG1       -0.4346
     27 C          -2.6210    2.4750    0.0000 C.ar    1  LIG1        0.0403
     28 C          -2.2080    1.5670    0.0000 C.ar    1  LIG1        0.0078
     29 O          -2.9460   -1.0330    0.0000 O.2     1  LIG1       -0.2699
@<TRIPOS>BOND
     1     1     2   am
     2     1    20    1
     3     1    29    2
     4     2     3    1
     5     2    19    1
     6     3     4    1
     7     4     5    1
     8     5     6   am
     9     5    17    1
    10     6     7    1
    11     6    16    2
    12     7     8   ar
    13     7    15   ar
    14     8     9   ar
    15     9    10   ar
    16     9    13    1
    17    10    11    1
    18    10    14   ar
    19    11    12    1
    20    12    13    1
    21    14    15   ar
    22    17    18    1
    23    18    19    1
    24    20    21   ar
    25    20    28   ar
    26    21    22   ar
    27    22    23   ar
    28    22    26    1
    29    23    24    1
    30    23    27   ar
    31    24    25    1
    32    25    26    1
    33    27    28   ar
