@<TRIPOS>MOLECULE
32648_ChemDiv_C143-0035
 16 17 0 0 0
SMALL
GASTEIGER
Energy = 0

@<TRIPOS>ATOM
      1 C           0.0040   -2.2540    0.0000 C.ar    1  LIG1        0.2103
      2 C           0.0040   -3.2580    0.0000 C.ar    1  LIG1        0.4076
      3 N           0.9500   -3.5630    0.0000 N.ar    1  LIG1        0.1287
      4 C           1.5380   -2.7580    0.0000 C.ar    1  LIG1        0.4758
      5 N           0.9500   -1.9420    0.0000 N.ar    1  LIG1       -0.1619
      6 N          -0.8580   -3.7540    0.0000 N.ar    1  LIG1       -0.1562
      7 C          -1.7290   -3.2580    0.0000 C.ar    1  LIG1        0.2058
      8 N          -1.7290   -2.2540    0.0000 N.ar    1  LIG1       -0.2056
      9 C          -0.8580   -1.7540    0.0000 C.ar    1  LIG1        0.1752
     10 N          -0.8580   -0.7540    0.0000 N.pl3   1  LIG1       -0.2161
     11 C           0.0040   -0.2500    0.0000 C.3     1  LIG1        0.1458
     12 C           0.0040    0.7500    0.0000 C.3     1  LIG1        0.1656
     13 O           0.8580    1.2540    0.0000 O.3     1  LIG1       -0.3491
     14 C           0.8580    2.2540    0.0000 C.3     1  LIG1        0.1777
     15 C           1.7250    2.7580    0.0000 C.3     1  LIG1        0.2140
     16 O           1.7250    3.7580    0.0000 O.3     1  LIG1       -0.2176
@<TRIPOS>BOND
     1     1     2   ar
     2     1     5   ar
     3     1     9   ar
     4     2     3   ar
     5     2     6   ar
     6     3     4   ar
     7     4     5   ar
     8     6     7   ar
     9     7     8   ar
    10     8     9   ar
    11     9    10    1
    12    10    11    1
    13    11    12    1
    14    12    13    1
    15    13    14    1
    16    14    15    1
    17    15    16    1
