@<TRIPOS>MOLECULE
32647_ChemDiv_C094-1644
 30 33 0 0 0
SMALL
GASTEIGER
Energy = 0

@<TRIPOS>ATOM
      1 N           0.7290    0.7130    0.0000 N.am    1  LIG1       -0.2641
      2 C           1.4460    1.3380    0.0000 C.2     1  LIG1        0.2497
      3 C           2.3670    1.0130    0.0000 C.ar    1  LIG1        0.0568
      4 C           2.4710    0.0500    0.0000 C.ar    1  LIG1        0.0447
      5 C           3.5420   -0.2080    0.0000 C.ar    1  LIG1        0.1766
      6 C           4.2290    0.3710    0.0000 C.ar    1  LIG1        0.1764
      7 O           5.0630   -0.1420    0.0000 O.3     1  LIG1       -0.4346
      8 C           4.8460   -1.1000    0.0000 C.3     1  LIG1        0.4294
      9 O           3.8670   -1.1750    0.0000 O.3     1  LIG1       -0.4346
     10 C           4.0420    1.3380    0.0000 C.ar    1  LIG1        0.0403
     11 C           3.1210    1.6540    0.0000 C.ar    1  LIG1        0.0078
     12 O           1.2710    2.2750    0.0000 O.2     1  LIG1       -0.2699
     13 C          -1.0080    0.9420    0.0000 C.3     1  LIG1        0.1311
     14 C          -1.8830    1.0540    0.0000 C.2     1  LIG1        0.2574
     15 N          -2.6130    0.4170    0.0000 N.am    1  LIG1       -0.2059
     16 C          -3.5170    0.7290    0.0000 C.3     1  LIG1        0.0954
     17 C          -4.3000    0.1790    0.0000 C.3     1  LIG1        0.0217
     18 C          -5.0670    0.7420    0.0000 C.3     1  LIG1        0.0018
     19 C          -4.7540    1.6500    0.0000 C.3     1  LIG1        0.0018
     20 C          -3.8000    1.6330    0.0000 C.3     1  LIG1        0.0217
     21 O          -2.0630    1.9960    0.0000 O.2     1  LIG1       -0.2716
     22 C          -1.0710    0.1460    0.0000 C.3     1  LIG1        0.0272
     23 C          -1.3540   -0.7290    0.0000 C.3     1  LIG1        0.0022
     24 C          -0.9330    1.8790    0.0000 C.3     1  LIG1        0.0293
     25 C           0.5420   -0.5790    0.0000 C.3     1  LIG1        0.1587
     26 C           1.2830   -1.3670    0.0000 C.ar    1  LIG1        0.1431
     27 O           2.0250   -0.7290    0.0000 O.2     1  LIG1       -0.4530
     28 C           2.8710   -1.2330    0.0000 C.ar    1  LIG1        0.1792
     29 C           2.6460   -2.1880    0.0000 C.ar    1  LIG1        0.0435
     30 C           1.6670   -2.2710    0.0000 C.ar    1  LIG1        0.0379
@<TRIPOS>BOND
     1     1     2   am
     2     1    13    1
     3     1    25    1
     4     2     3    1
     5     2    12    2
     6     3     4   ar
     7     3    11   ar
     8     4     5   ar
     9     5     6   ar
    10     5     9    1
    11     6     7    1
    12     6    10   ar
    13     7     8    1
    14     8     9    1
    15    10    11   ar
    16    13    14    1
    17    13    22    1
    18    13    24    1
    19    14    15   am
    20    14    21    2
    21    15    16    1
    22    16    17    1
    23    16    20    1
    24    17    18    1
    25    18    19    1
    26    19    20    1
    27    22    23    1
    28    25    26    1
    29    26    27   ar
    30    26    30   ar
    31    27    28   ar
    32    28    29   ar
    33    29    30   ar
