@<TRIPOS>MOLECULE
32649_ChemDiv_C094-1848
 32 36 0 0 0
SMALL
GASTEIGER
Energy = 0

@<TRIPOS>ATOM
      1 N           0.9750    0.3750    0.0000 N.am    1  LIG1       -0.2688
      2 C           1.6790    0.9880    0.0000 C.2     1  LIG1        0.2495
      3 C           2.6080    0.6580    0.0000 C.ar    1  LIG1        0.0568
      4 C           2.8630   -0.2750    0.0000 C.ar    1  LIG1        0.0447
      5 C           3.8000   -0.6000    0.0000 C.ar    1  LIG1        0.1766
      6 C           4.4750    0.0000    0.0000 C.ar    1  LIG1        0.1764
      7 O           5.3040   -0.5130    0.0000 O.3     1  LIG1       -0.4346
      8 C           5.0880   -1.4750    0.0000 C.3     1  LIG1        0.4294
      9 O           4.1630   -1.4250    0.0000 O.3     1  LIG1       -0.4346
     10 C           4.2920    0.9750    0.0000 C.ar    1  LIG1        0.0403
     11 C           3.3580    1.3040    0.0000 C.ar    1  LIG1        0.0078
     12 O           1.5000    1.8960    0.0000 O.2     1  LIG1       -0.2699
     13 C          -0.6040    0.6580    0.0000 C.3     1  LIG1        0.1307
     14 C          -2.2170    0.7250    0.0000 C.2     1  LIG1        0.2574
     15 N          -2.9170    0.1040    0.0000 N.am    1  LIG1       -0.2059
     16 C          -3.8080    0.4040    0.0000 C.3     1  LIG1        0.0954
     17 C          -4.5630   -0.1250    0.0000 C.3     1  LIG1        0.0217
     18 C          -5.3080    0.4210    0.0000 C.3     1  LIG1        0.0018
     19 C          -5.0080    1.3040    0.0000 C.3     1  LIG1        0.0018
     20 C          -4.0790    1.2920    0.0000 C.3     1  LIG1        0.0217
     21 O          -2.3920    1.6420    0.0000 O.2     1  LIG1       -0.2716
     22 C           0.2830    1.0330    0.0000 C.3     1  LIG1        0.0272
     23 C           0.2830    1.9540    0.0000 C.3     1  LIG1        0.0021
     24 C          -0.5130    2.4250    0.0000 C.3     1  LIG1        0.0001
     25 C          -1.3130    1.9540    0.0000 C.3     1  LIG1        0.0021
     26 C          -1.3130    1.0330    0.0000 C.3     1  LIG1        0.0272
     27 C           1.0170   -0.8580    0.0000 C.3     1  LIG1        0.1235
     28 C           2.1130   -1.5000    0.0000 C.3     1  LIG1        0.1351
     29 O           2.8830   -0.9000    0.0000 O.3     1  LIG1       -0.3545
     30 C           3.7210   -1.4250    0.0000 C.3     1  LIG1        0.1422
     31 C           3.4670   -2.3500    0.0000 C.3     1  LIG1        0.0346
     32 C           2.4710   -2.4210    0.0000 C.3     1  LIG1        0.0339
@<TRIPOS>BOND
     1     1     2   am
     2     1    13    1
     3     1    27    1
     4     2     3    1
     5     2    12    2
     6     3     4   ar
     7     3    11   ar
     8     4     5   ar
     9     5     6   ar
    10     5     9    1
    11     6     7    1
    12     6    10   ar
    13     7     8    1
    14     8     9    1
    15    10    11   ar
    16    13    14    1
    17    13    22    1
    18    13    26    1
    19    14    15   am
    20    14    21    2
    21    15    16    1
    22    16    17    1
    23    16    20    1
    24    17    18    1
    25    18    19    1
    26    19    20    1
    27    22    23    1
    28    23    24    1
    29    24    25    1
    30    25    26    1
    31    27    28    1
    32    28    29    1
    33    28    32    1
    34    29    30    1
    35    30    31    1
    36    31    32    1
