@<TRIPOS>MOLECULE
32646_ChemDiv_8009-2983
 24 27 0 0 0
SMALL
GASTEIGER
Energy = 0

@<TRIPOS>ATOM
      1 C          -2.9830    1.2330    0.0000 C.ar    1  LIG1        0.3927
      2 N          -1.3380    1.2330    0.0000 N.ar    1  LIG1        0.1231
      3 C          -1.3380    0.2920    0.0000 C.ar    1  LIG1        0.4479
      4 N          -2.1670   -0.1960    0.0000 N.ar    1  LIG1       -0.1399
      5 C          -2.9830    0.2920    0.0000 C.ar    1  LIG1        0.2470
      6 N          -3.8170   -0.1960    0.0000 N.ar    1  LIG1       -0.1989
      7 C          -4.6420    0.2920    0.0000 C.ar    1  LIG1        0.2034
      8 N          -4.6420    1.2330    0.0000 N.ar    1  LIG1       -0.1801
      9 C          -3.8170    1.6880    0.0000 C.ar    1  LIG1        0.3544
     10 O          -3.8170    2.6880    0.0000 O.2     1  LIG1       -0.2582
     11 N          -0.5040   -0.2170    0.0000 N.pl3   1  LIG1       -0.2308
     12 C          -0.5040   -1.1960    0.0000 C.3     1  LIG1        0.1195
     13 C           0.3380   -1.6710    0.0000 C.3     1  LIG1        0.1154
     14 N           1.2040   -1.1960    0.0000 N.am    1  LIG1       -0.2726
     15 C           2.0710   -1.6960    0.0000 C.2     1  LIG1        0.2491
     16 O           2.0710   -2.6830    0.0000 O.2     1  LIG1       -0.2699
     17 C           2.9080   -1.2380    0.0000 C.ar    1  LIG1        0.0536
     18 C           3.7710   -1.7330    0.0000 C.ar    1  LIG1        0.0045
     19 C           4.6380   -1.2380    0.0000 C.ar    1  LIG1        0.0001
     20 C           4.6380   -0.2380    0.0000 C.ar    1  LIG1        0.0000
     21 C           3.7710    0.2710    0.0000 C.ar    1  LIG1        0.0001
     22 C           2.9080   -0.2380    0.0000 C.ar    1  LIG1        0.0045
     23 C           1.2040   -0.2170    0.0000 C.3     1  LIG1        0.1154
     24 C           0.3380    0.2710    0.0000 C.3     1  LIG1        0.1195
@<TRIPOS>BOND
     1     1     2   ar
     2     1     5   ar
     3     1     9   ar
     4     2     3   ar
     5     3     4   ar
     6     3    11    1
     7     4     5   ar
     8     5     6   ar
     9     6     7   ar
    10     7     8   ar
    11     8     9   ar
    12     9    10    2
    13    11    12    1
    14    11    24    1
    15    12    13    1
    16    13    14    1
    17    14    15   am
    18    14    23    1
    19    15    16    2
    20    15    17    1
    21    17    18   ar
    22    17    22   ar
    23    18    19   ar
    24    19    20   ar
    25    20    21   ar
    26    21    22   ar
    27    23    24    1
