@<TRIPOS>MOLECULE
32652_ChemDiv_D112-0103
 22 25 0 0 0
SMALL
GASTEIGER
Energy = 0

@<TRIPOS>ATOM
      1 C           0.0750   -2.3250    0.0000 C.ar    1  LIG1        0.2089
      2 C          -0.7920   -1.8380    0.0000 C.ar    1  LIG1        0.1594
      3 N          -0.7920   -0.8380    0.0000 N.pl3   1  LIG1       -0.2883
      4 C          -1.6540   -0.3380    0.0000 C.3     1  LIG1        0.1137
      5 C          -1.6500    0.6540    0.0000 C.3     1  LIG1        0.1153
      6 N          -0.7880    1.1540    0.0000 N.am    1  LIG1       -0.2701
      7 C          -0.7880    2.1540    0.0000 C.2     1  LIG1        0.2839
      8 C           0.0830    2.6500    0.0000 C.ar    1  LIG1        0.1987
      9 O           0.9880    2.2420    0.0000 O.2     1  LIG1       -0.4458
     10 C           1.6580    2.9790    0.0000 C.ar    1  LIG1        0.1798
     11 C           1.1630    3.8500    0.0000 C.ar    1  LIG1        0.0440
     12 C           0.1880    3.6380    0.0000 C.ar    1  LIG1        0.0455
     13 O          -1.6500    2.6540    0.0000 O.2     1  LIG1       -0.2666
     14 C           0.0750    0.6500    0.0000 C.3     1  LIG1        0.1153
     15 C           0.0750   -0.3380    0.0000 C.3     1  LIG1        0.1137
     16 N          -1.6630   -2.3330    0.0000 N.ar    1  LIG1       -0.2070
     17 C          -1.6630   -3.3380    0.0000 C.ar    1  LIG1        0.2058
     18 N          -0.7920   -3.8460    0.0000 N.ar    1  LIG1       -0.1562
     19 C           0.0830   -3.3330    0.0000 C.ar    1  LIG1        0.4076
     20 N           1.0380   -3.6380    0.0000 N.ar    1  LIG1        0.1287
     21 C           1.6250   -2.8250    0.0000 C.ar    1  LIG1        0.4758
     22 N           1.0250   -2.0130    0.0000 N.ar    1  LIG1       -0.1620
@<TRIPOS>BOND
     1     1     2   ar
     2     1    19   ar
     3     1    22   ar
     4     2     3    1
     5     2    16   ar
     6     3     4    1
     7     3    15    1
     8     4     5    1
     9     5     6    1
    10     6     7   am
    11     6    14    1
    12     7     8    1
    13     7    13    2
    14     8     9   ar
    15     8    12   ar
    16     9    10   ar
    17    10    11   ar
    18    11    12   ar
    19    14    15    1
    20    16    17   ar
    21    17    18   ar
    22    18    19   ar
    23    19    20   ar
    24    20    21   ar
    25    21    22   ar
