@<TRIPOS>MOLECULE
32659_ChemDiv_6085-0133
 17 18 0 0 0
SMALL
GASTEIGER
Energy = 0

@<TRIPOS>ATOM
      1 C           0.4210    0.2880    0.0000 C.ar    1  LIG1       -0.0089
      2 C           1.2670    0.7790    0.0000 C.ar    1  LIG1        0.0872
      3 C           2.1210    0.2880    0.0000 C.ar    1  LIG1        0.1282
      4 S           2.1210   -0.7040    0.0000 S.2     1  LIG1       -0.0615
      5 C           1.2670   -1.2710    0.0000 C.ar    1  LIG1        0.0643
      6 C           0.4210   -0.7040    0.0000 C.ar    1  LIG1        0.0167
      7 C          -0.4290   -1.2710    0.0000 C.3     1  LIG1        0.1692
      8 O          -1.2750   -0.7040    0.0000 O.3     1  LIG1       -0.3511
      9 C          -1.2750    0.2880    0.0000 C.3     1  LIG1        0.1199
     10 C          -0.4290    0.7790    0.0000 C.3     1  LIG1        0.0564
     11 C          -2.1960    0.7790    0.0000 C.3     1  LIG1        0.0276
     12 C          -3.0460    0.2880    0.0000 C.3     1  LIG1        0.0025
     13 C          -2.1960    1.7710    0.0000 C.3     1  LIG1        0.0025
     14 S           1.2670   -2.2630    0.0000 S.2     1  LIG1       -0.0439
     15 N           3.0420    0.7790    0.0000 N.pl3   1  LIG1       -0.1203
     16 C           1.2670    1.7710    0.0000 C.1     1  LIG1        0.1020
     17 N           0.4210    2.2670    0.0000 N.1     1  LIG1       -0.1908
@<TRIPOS>BOND
     1     1     2   ar
     2     1     6   ar
     3     1    10    1
     4     2     3   ar
     5     2    16    1
     6     3     4   ar
     7     3    15    1
     8     4     5   ar
     9     5     6   ar
    10     5    14    2
    11     6     7    1
    12     7     8    1
    13     8     9    1
    14     9    10    1
    15     9    11    1
    16    11    12    1
    17    11    13    1
    18    16    17    3
