@<TRIPOS>MOLECULE
32651_ChemDiv_C094-1956
 33 37 0 0 0
SMALL
GASTEIGER
Energy = 0

@<TRIPOS>ATOM
      1 N           1.3540    0.1880    0.0000 N.am    1  LIG1       -0.2666
      2 C           2.0380    0.7790    0.0000 C.2     1  LIG1        0.2496
      3 C           2.9830    0.4460    0.0000 C.ar    1  LIG1        0.0568
      4 C           3.2420   -0.4130    0.0000 C.ar    1  LIG1        0.0447
      5 C           4.1960   -0.7460    0.0000 C.ar    1  LIG1        0.1766
      6 C           4.8710   -0.2080    0.0000 C.ar    1  LIG1        0.1764
      7 O           5.7250   -0.7330    0.0000 O.3     1  LIG1       -0.4346
      8 C           5.5040   -1.7000    0.0000 C.3     1  LIG1        0.4294
      9 O           4.5960   -1.6540    0.0000 O.3     1  LIG1       -0.4346
     10 C           4.6880    0.7750    0.0000 C.ar    1  LIG1        0.0403
     11 C           3.7460    1.1000    0.0000 C.ar    1  LIG1        0.0078
     12 O           1.8790    1.6750    0.0000 O.2     1  LIG1       -0.2699
     13 C          -0.9040    0.5920    0.0000 C.3     1  LIG1        0.1310
     14 C          -2.4540    0.8830    0.0000 C.2     1  LIG1        0.2574
     15 N          -3.1380    0.2880    0.0000 N.am    1  LIG1       -0.2059
     16 C          -3.9960    0.5750    0.0000 C.3     1  LIG1        0.0954
     17 C          -4.6750   -0.0250    0.0000 C.3     1  LIG1        0.0217
     18 C          -5.5460    0.2750    0.0000 C.3     1  LIG1        0.0018
     19 C          -5.7290    1.1630    0.0000 C.3     1  LIG1        0.0001
     20 C          -5.0330    1.7670    0.0000 C.3     1  LIG1        0.0018
     21 C          -4.1790    1.4670    0.0000 C.3     1  LIG1        0.0217
     22 O          -2.6210    1.7830    0.0000 O.2     1  LIG1       -0.2716
     23 C          -1.6000    1.1580    0.0000 C.3     1  LIG1        0.0272
     24 C          -1.4500    2.0460    0.0000 C.3     1  LIG1        0.0021
     25 C          -0.6130    2.3750    0.0000 C.3     1  LIG1        0.0001
     26 C           0.0830    1.7960    0.0000 C.3     1  LIG1        0.0021
     27 C          -0.0630    0.9040    0.0000 C.3     1  LIG1        0.0272
     28 C           1.6210   -0.7790    0.0000 C.3     1  LIG1        0.1272
     29 C           2.4330   -1.4420    0.0000 C.ar    1  LIG1        0.0273
     30 S           3.2080   -0.8040    0.0000 S.2     1  LIG1       -0.0891
     31 C           4.0460   -1.3420    0.0000 C.ar    1  LIG1        0.0352
     32 C           3.8040   -2.3000    0.0000 C.ar    1  LIG1        0.0072
     33 C           2.8000   -2.3710    0.0000 C.ar    1  LIG1        0.0044
@<TRIPOS>BOND
     1     1     2   am
     2     1    13    1
     3     1    28    1
     4     2     3    1
     5     2    12    2
     6     3     4   ar
     7     3    11   ar
     8     4     5   ar
     9     5     6   ar
    10     5     9    1
    11     6     7    1
    12     6    10   ar
    13     7     8    1
    14     8     9    1
    15    10    11   ar
    16    13    14    1
    17    13    23    1
    18    13    27    1
    19    14    15   am
    20    14    22    2
    21    15    16    1
    22    16    17    1
    23    16    21    1
    24    17    18    1
    25    18    19    1
    26    19    20    1
    27    20    21    1
    28    23    24    1
    29    24    25    1
    30    25    26    1
    31    26    27    1
    32    28    29    1
    33    29    30   ar
    34    29    33   ar
    35    30    31   ar
    36    31    32   ar
    37    32    33   ar
