@<TRIPOS>MOLECULE
32654_ChemDiv_D112-0106
 18 20 0 0 0
SMALL
GASTEIGER
Energy = 0

@<TRIPOS>ATOM
      1 C           0.0920   -1.7290    0.0000 C.ar    1  LIG1        0.2089
      2 C          -0.7750   -1.2380    0.0000 C.ar    1  LIG1        0.1594
      3 N          -0.7750   -0.2380    0.0000 N.pl3   1  LIG1       -0.2883
      4 C          -1.6380    0.2540    0.0000 C.3     1  LIG1        0.1137
      5 C          -1.6330    1.2460    0.0000 C.3     1  LIG1        0.1149
      6 N          -0.7710    1.7540    0.0000 N.am    1  LIG1       -0.2760
      7 C          -0.7710    2.7460    0.0000 C.2     1  LIG1        0.2262
      8 O          -1.6330    3.2460    0.0000 O.2     1  LIG1       -0.2749
      9 C           0.1000    3.2420    0.0000 C.3     1  LIG1        0.0948
     10 C           0.0920    1.2460    0.0000 C.3     1  LIG1        0.1149
     11 C           0.0920    0.2540    0.0000 C.3     1  LIG1        0.1137
     12 N          -1.6460   -1.7290    0.0000 N.ar    1  LIG1       -0.2070
     13 C          -1.6460   -2.7380    0.0000 C.ar    1  LIG1        0.2058
     14 N          -0.7750   -3.2420    0.0000 N.ar    1  LIG1       -0.1562
     15 C           0.1000   -2.7290    0.0000 C.ar    1  LIG1        0.4076
     16 N           1.0540   -3.0420    0.0000 N.ar    1  LIG1        0.1287
     17 C           1.6420   -2.2250    0.0000 C.ar    1  LIG1        0.4758
     18 N           1.0420   -1.4170    0.0000 N.ar    1  LIG1       -0.1620
@<TRIPOS>BOND
     1     1     2   ar
     2     1    15   ar
     3     1    18   ar
     4     2     3    1
     5     2    12   ar
     6     3     4    1
     7     3    11    1
     8     4     5    1
     9     5     6    1
    10     6     7   am
    11     6    10    1
    12     7     8    2
    13     7     9    1
    14    10    11    1
    15    12    13   ar
    16    13    14   ar
    17    14    15   ar
    18    15    16   ar
    19    16    17   ar
    20    17    18   ar
