@<TRIPOS>MOLECULE
32657_ChemDiv_6080-0124
 22 24 0 0 0
SMALL
GASTEIGER
Energy = 0

@<TRIPOS>ATOM
      1 C           0.9580   -0.5170    0.0000 C.2     1  LIG1        0.2265
      2 C           0.0040   -0.2040    0.0000 C.3     1  LIG1        0.0972
      3 C          -0.2000    0.7790    0.0000 C.3     1  LIG1        0.0887
      4 C          -1.1540    1.0830    0.0000 C.ar    1  LIG1        0.1271
      5 O          -1.9710    0.5000    0.0000 O.2     1  LIG1       -0.4543
      6 C          -2.7790    1.0830    0.0000 C.ar    1  LIG1        0.1791
      7 C          -2.4670    2.0420    0.0000 C.ar    1  LIG1        0.0434
      8 C          -1.4580    2.0420    0.0000 C.ar    1  LIG1        0.0365
      9 C           0.5500    1.4420    0.0000 C.ar    1  LIG1       -0.0147
     10 C           1.5000    1.1290    0.0000 C.ar    1  LIG1       -0.0015
     11 C           2.2460    1.8000    0.0000 C.ar    1  LIG1        0.0293
     12 C           2.0330    2.7790    0.0000 C.ar    1  LIG1        0.1401
     13 C           1.0790    3.0830    0.0000 C.ar    1  LIG1        0.0293
     14 C           0.3380    2.4170    0.0000 C.ar    1  LIG1       -0.0015
     15 F           2.7750    3.4460    0.0000 F       1  LIG1       -0.2042
     16 N           1.1630   -1.4960    0.0000 N.am    1  LIG1       -0.2744
     17 C           2.1130   -1.8000    0.0000 C.3     1  LIG1        0.1255
     18 C           2.3130   -2.7830    0.0000 C.3     1  LIG1        0.1636
     19 O           1.5580   -3.4420    0.0000 O.3     1  LIG1       -0.3501
     20 C           0.6210   -3.1250    0.0000 C.3     1  LIG1        0.1636
     21 C           0.4210   -2.1540    0.0000 C.3     1  LIG1        0.1255
     22 O           1.7040    0.1420    0.0000 O.2     1  LIG1       -0.2748
@<TRIPOS>BOND
     1     1     2    1
     2     1    16   am
     3     1    22    2
     4     2     3    1
     5     3     4    1
     6     3     9    1
     7     4     5   ar
     8     4     8   ar
     9     5     6   ar
    10     6     7   ar
    11     7     8   ar
    12     9    10   ar
    13     9    14   ar
    14    10    11   ar
    15    11    12   ar
    16    12    13   ar
    17    12    15    1
    18    13    14   ar
    19    16    17    1
    20    16    21    1
    21    17    18    1
    22    18    19    1
    23    19    20    1
    24    20    21    1
