@<TRIPOS>MOLECULE
32655_ChemDiv_C094-1980
 28 31 0 0 0
SMALL
GASTEIGER
Energy = 0

@<TRIPOS>ATOM
      1 C           2.0210    0.4880    0.0000 C.2     1  LIG1        0.2494
      2 N           1.3420   -0.1000    0.0000 N.am    1  LIG1       -0.2695
      3 C          -0.9040    0.3000    0.0000 C.3     1  LIG1        0.1307
      4 C          -2.4460    0.5880    0.0000 C.2     1  LIG1        0.2574
      5 N          -3.1250   -0.0080    0.0000 N.am    1  LIG1       -0.2059
      6 C          -3.9750    0.2880    0.0000 C.3     1  LIG1        0.0954
      7 C          -4.1540    1.1670    0.0000 C.3     1  LIG1        0.0217
      8 C          -5.0040    1.4540    0.0000 C.3     1  LIG1        0.0018
      9 C          -5.6830    0.8670    0.0000 C.3     1  LIG1        0.0001
     10 C          -5.5080   -0.0210    0.0000 C.3     1  LIG1        0.0018
     11 C          -4.6540   -0.3080    0.0000 C.3     1  LIG1        0.0217
     12 O          -2.6080    1.4750    0.0000 O.2     1  LIG1       -0.2716
     13 C          -0.0710    0.6130    0.0000 C.3     1  LIG1        0.0272
     14 C           0.0710    1.4920    0.0000 C.3     1  LIG1        0.0021
     15 C          -0.6210    2.0580    0.0000 C.3     1  LIG1        0.0001
     16 C          -1.4460    1.7500    0.0000 C.3     1  LIG1        0.0021
     17 C          -1.5960    0.8580    0.0000 C.3     1  LIG1        0.0272
     18 C           1.6000   -1.0540    0.0000 C.3     1  LIG1        0.1155
     19 C           2.9540    0.1630    0.0000 C.ar    1  LIG1        0.0568
     20 C           3.1380   -0.8170    0.0000 C.ar    1  LIG1        0.0447
     21 C           4.0790   -1.1420    0.0000 C.ar    1  LIG1        0.1766
     22 C           4.8330   -0.5000    0.0000 C.ar    1  LIG1        0.1764
     23 O           5.6790   -1.0130    0.0000 O.3     1  LIG1       -0.4346
     24 C           5.4540   -1.9750    0.0000 C.3     1  LIG1        0.4294
     25 O           4.4670   -2.0540    0.0000 O.3     1  LIG1       -0.4346
     26 C           4.6500    0.4750    0.0000 C.ar    1  LIG1        0.0403
     27 C           3.7130    0.8040    0.0000 C.ar    1  LIG1        0.0078
     28 O           1.8580    1.3670    0.0000 O.2     1  LIG1       -0.2699
@<TRIPOS>BOND
     1     1     2   am
     2     1    19    1
     3     1    28    2
     4     2     3    1
     5     2    18    1
     6     3     4    1
     7     3    13    1
     8     3    17    1
     9     4     5   am
    10     4    12    2
    11     5     6    1
    12     6     7    1
    13     6    11    1
    14     7     8    1
    15     8     9    1
    16     9    10    1
    17    10    11    1
    18    13    14    1
    19    14    15    1
    20    15    16    1
    21    16    17    1
    22    19    20   ar
    23    19    27   ar
    24    20    21   ar
    25    21    22   ar
    26    21    25    1
    27    22    23    1
    28    22    26   ar
    29    23    24    1
    30    24    25    1
    31    26    27   ar
