@<TRIPOS>MOLECULE
32653_ChemDiv_C094-1968
 28 31 0 0 0
SMALL
GASTEIGER
Energy = 0

@<TRIPOS>ATOM
      1 C          -2.4460    0.5880    0.0000 C.2     1  LIG1        0.2571
      2 C          -0.9040    0.3000    0.0000 C.3     1  LIG1        0.1274
      3 N           1.3420   -0.1000    0.0000 N.am    1  LIG1       -0.2963
      4 C           2.0210    0.4880    0.0000 C.2     1  LIG1        0.2462
      5 C           2.9540    0.1630    0.0000 C.ar    1  LIG1        0.0566
      6 C           3.1380   -0.8170    0.0000 C.ar    1  LIG1        0.0447
      7 C           4.0790   -1.1420    0.0000 C.ar    1  LIG1        0.1766
      8 C           4.8330   -0.5000    0.0000 C.ar    1  LIG1        0.1764
      9 O           5.6790   -1.0130    0.0000 O.3     1  LIG1       -0.4346
     10 C           5.4540   -1.9750    0.0000 C.3     1  LIG1        0.4294
     11 O           4.4670   -2.0540    0.0000 O.3     1  LIG1       -0.4346
     12 C           4.6500    0.4750    0.0000 C.ar    1  LIG1        0.0403
     13 C           3.7130    0.8040    0.0000 C.ar    1  LIG1        0.0078
     14 O           1.8580    1.3670    0.0000 O.2     1  LIG1       -0.2701
     15 C          -1.5960    0.8580    0.0000 C.3     1  LIG1        0.0269
     16 C          -1.4460    1.7500    0.0000 C.3     1  LIG1        0.0021
     17 C          -0.6210    2.0580    0.0000 C.3     1  LIG1        0.0001
     18 C           0.0710    1.4920    0.0000 C.3     1  LIG1        0.0021
     19 C          -0.0710    0.6130    0.0000 C.3     1  LIG1        0.0269
     20 N          -3.1250   -0.0080    0.0000 N.am    1  LIG1       -0.2059
     21 C          -3.9750    0.2880    0.0000 C.3     1  LIG1        0.0954
     22 C          -4.6540   -0.3080    0.0000 C.3     1  LIG1        0.0217
     23 C          -5.5080   -0.0210    0.0000 C.3     1  LIG1        0.0018
     24 C          -5.6830    0.8670    0.0000 C.3     1  LIG1        0.0001
     25 C          -5.0040    1.4540    0.0000 C.3     1  LIG1        0.0018
     26 C          -4.1540    1.1670    0.0000 C.3     1  LIG1        0.0217
     27 O          -2.6080    1.4750    0.0000 O.2     1  LIG1       -0.2716
     28 H           1.6000   -1.0540    0.0000 H       1  LIG1        0.1501
@<TRIPOS>BOND
     1     1     2    1
     2     1    20   am
     3     1    27    2
     4     2     3    1
     5     2    15    1
     6     2    19    1
     7     3     4   am
     8     3    28    1
     9     4     5    1
    10     4    14    2
    11     5     6   ar
    12     5    13   ar
    13     6     7   ar
    14     7     8   ar
    15     7    11    1
    16     8     9    1
    17     8    12   ar
    18     9    10    1
    19    10    11    1
    20    12    13   ar
    21    15    16    1
    22    16    17    1
    23    17    18    1
    24    18    19    1
    25    20    21    1
    26    21    22    1
    27    21    26    1
    28    22    23    1
    29    23    24    1
    30    24    25    1
    31    25    26    1
