@<TRIPOS>MOLECULE
32664_ChemDiv_6179-0034
 22 24 0 0 0
SMALL
GASTEIGER
Energy = 0

@<TRIPOS>ATOM
      1 C           0.9210    0.3330    0.0000 C.ar    1  LIG1        0.1159
      2 N           0.3460   -0.4630    0.0000 N.ar    1  LIG1       -0.2739
      3 C          -0.6040   -0.1500    0.0000 C.ar    1  LIG1        0.0666
      4 C          -0.6040    0.8460    0.0000 C.ar    1  LIG1        0.0169
      5 C           0.3460    1.1500    0.0000 C.ar    1  LIG1        0.0021
      6 C           0.7540    2.0630    0.0000 C.3     1  LIG1        0.0544
      7 C           1.7540    2.1630    0.0000 C.3     1  LIG1        0.1335
      8 N           2.3380    1.3460    0.0000 N.2     1  LIG1       -0.2359
      9 C           1.9170    0.4420    0.0000 C.2     1  LIG1        0.2444
     10 O           2.4920   -0.3750    0.0000 O.3     1  LIG1       -0.4048
     11 C           3.4880   -0.2710    0.0000 C.2     1  LIG1        0.3233
     12 O           3.8960    0.6380    0.0000 O.2     1  LIG1       -0.2496
     13 C           4.0750   -1.0880    0.0000 C.3     1  LIG1        0.1217
     14 C          -1.4710    1.3460    0.0000 C.ar    1  LIG1        0.0381
     15 C          -2.3420    0.8460    0.0000 C.ar    1  LIG1        0.1388
     16 C          -2.3420   -0.1500    0.0000 C.ar    1  LIG1        0.0384
     17 C          -1.4710   -0.6630    0.0000 C.ar    1  LIG1        0.0207
     18 O          -3.2080    1.3460    0.0000 O.3     1  LIG1       -0.4714
     19 C          -4.0790    1.8460    0.0000 C.3     1  LIG1        0.2525
     20 C           0.6580   -1.4170    0.0000 C.2     1  LIG1        0.2418
     21 O           1.6420   -1.6290    0.0000 O.2     1  LIG1       -0.2716
     22 C          -0.0040   -2.1580    0.0000 C.3     1  LIG1        0.0983
@<TRIPOS>BOND
     1     1     2   ar
     2     1     5   ar
     3     1     9    1
     4     2     3   ar
     5     2    20   am
     6     3     4   ar
     7     3    17   ar
     8     4     5   ar
     9     4    14   ar
    10     5     6    1
    11     6     7    1
    12     7     8    1
    13     8     9    2
    14     9    10    1
    15    10    11    1
    16    11    12    2
    17    11    13    1
    18    14    15   ar
    19    15    16   ar
    20    15    18    1
    21    16    17   ar
    22    18    19    1
    23    20    21    2
    24    20    22    1
