@<TRIPOS>MOLECULE
32669_ChemDiv_6529-0234
 21 23 0 0 0
SMALL
GASTEIGER
Energy = 0

@<TRIPOS>ATOM
      1 N           0.1670   -0.4380    0.0000 N.ar    1  LIG1       -0.1728
      2 N          -0.8040   -0.6540    0.0000 N.ar    1  LIG1       -0.1383
      3 C          -0.9080   -1.6380    0.0000 C.ar    1  LIG1        0.2188
      4 N           0.0000   -2.0460    0.0000 N.ar    1  LIG1       -0.1976
      5 C           0.6670   -1.3040    0.0000 C.ar    1  LIG1        0.1954
      6 S           1.6710   -1.4080    0.0000 S.3     1  LIG1       -0.0746
      7 C           2.2460   -0.5920    0.0000 C.3     1  LIG1        0.0772
      8 C          -1.7880   -2.1290    0.0000 C.ar    1  LIG1        0.1828
      9 O          -1.8960   -3.1250    0.0000 O.2     1  LIG1       -0.4472
     10 C          -2.8710   -3.3330    0.0000 C.ar    1  LIG1        0.1798
     11 C          -3.3750   -2.4630    0.0000 C.ar    1  LIG1        0.0439
     12 C          -2.6960   -1.7250    0.0000 C.ar    1  LIG1        0.0440
     13 C           0.5750    0.4830    0.0000 C.2     1  LIG1        0.2630
     14 C           1.5670    0.5920    0.0000 C.3     1  LIG1        0.1163
     15 C           1.9710    1.5040    0.0000 C.ar    1  LIG1       -0.0128
     16 C           1.3790    2.3080    0.0000 C.ar    1  LIG1       -0.0038
     17 C           1.7750    3.2130    0.0000 C.ar    1  LIG1       -0.0003
     18 C           2.7750    3.3380    0.0000 C.ar    1  LIG1       -0.0000
     19 C           3.3710    2.5170    0.0000 C.ar    1  LIG1       -0.0003
     20 C           2.9750    1.6080    0.0000 C.ar    1  LIG1       -0.0038
     21 O          -0.0130    1.2880    0.0000 O.2     1  LIG1       -0.2697
@<TRIPOS>BOND
     1     1     2   ar
     2     1     5   ar
     3     1    13   am
     4     2     3   ar
     5     3     4   ar
     6     3     8    1
     7     4     5   ar
     8     5     6    1
     9     6     7    1
    10     8     9   ar
    11     8    12   ar
    12     9    10   ar
    13    10    11   ar
    14    11    12   ar
    15    13    14    1
    16    13    21    2
    17    14    15    1
    18    15    16   ar
    19    15    20   ar
    20    16    17   ar
    21    17    18   ar
    22    18    19   ar
    23    19    20   ar
