@<TRIPOS>MOLECULE
32667_ChemDiv_6103-0156
 20 22 0 0 0
SMALL
GASTEIGER
Energy = 0

@<TRIPOS>ATOM
      1 N           0.1540   -0.4250    0.0000 N.ar    1  LIG1       -0.1628
      2 N          -0.8130   -0.6380    0.0000 N.ar    1  LIG1       -0.1376
      3 C          -0.9210   -1.6290    0.0000 C.ar    1  LIG1        0.2195
      4 N           0.0000   -2.0380    0.0000 N.ar    1  LIG1       -0.1873
      5 C           0.6670   -1.2960    0.0000 C.ar    1  LIG1        0.2616
      6 N           1.6540   -1.3960    0.0000 N.pl3   1  LIG1       -0.0859
      7 C          -1.7830   -2.1290    0.0000 C.ar    1  LIG1        0.1828
      8 O          -1.8880   -3.1290    0.0000 O.2     1  LIG1       -0.4472
      9 C          -2.8630   -3.3380    0.0000 C.ar    1  LIG1        0.1798
     10 C          -3.3670   -2.4750    0.0000 C.ar    1  LIG1        0.0439
     11 C          -2.7080   -1.7290    0.0000 C.ar    1  LIG1        0.0440
     12 C           0.5580    0.4920    0.0000 C.2     1  LIG1        0.2637
     13 C           1.5580    0.6000    0.0000 C.3     1  LIG1        0.1163
     14 C           1.9580    1.5080    0.0000 C.ar    1  LIG1       -0.0128
     15 C           1.3670    2.3130    0.0000 C.ar    1  LIG1       -0.0038
     16 C           1.7710    3.2250    0.0000 C.ar    1  LIG1       -0.0003
     17 C           2.7670    3.3420    0.0000 C.ar    1  LIG1       -0.0000
     18 C           3.3630    2.5290    0.0000 C.ar    1  LIG1       -0.0003
     19 C           2.9540    1.6130    0.0000 C.ar    1  LIG1       -0.0038
     20 O          -0.0290    1.2960    0.0000 O.2     1  LIG1       -0.2697
@<TRIPOS>BOND
     1     1     2   ar
     2     1     5   ar
     3     1    12   am
     4     2     3   ar
     5     3     4   ar
     6     3     7    1
     7     4     5   ar
     8     5     6    1
     9     7     8   ar
    10     7    11   ar
    11     8     9   ar
    12     9    10   ar
    13    10    11   ar
    14    12    13    1
    15    12    20    2
    16    13    14    1
    17    14    15   ar
    18    14    19   ar
    19    15    16   ar
    20    16    17   ar
    21    17    18   ar
    22    18    19   ar
