@<TRIPOS>MOLECULE
32665_ChemDiv_6103-0121
 23 25 0 0 0
SMALL
GASTEIGER
Energy = 0

@<TRIPOS>ATOM
      1 N           0.6670    0.2250    0.0000 N.ar    1  LIG1       -0.1629
      2 N          -0.3000    0.0130    0.0000 N.ar    1  LIG1       -0.1408
      3 C          -0.4080   -0.9790    0.0000 C.ar    1  LIG1        0.1849
      4 N           0.5130   -1.3830    0.0000 N.ar    1  LIG1       -0.1902
      5 C           1.1790   -0.6460    0.0000 C.ar    1  LIG1        0.2615
      6 N           2.1670   -0.7460    0.0000 N.pl3   1  LIG1       -0.0859
      7 C          -1.2710   -1.4920    0.0000 C.ar    1  LIG1        0.0378
      8 C          -1.2710   -2.4920    0.0000 C.ar    1  LIG1        0.0062
      9 C          -2.1380   -2.9880    0.0000 C.ar    1  LIG1        0.0370
     10 C          -3.0000   -2.4920    0.0000 C.ar    1  LIG1        0.1387
     11 C          -3.0000   -1.4920    0.0000 C.ar    1  LIG1        0.0370
     12 C          -2.1380   -0.9880    0.0000 C.ar    1  LIG1        0.0062
     13 O          -3.8750   -2.9880    0.0000 O.3     1  LIG1       -0.4714
     14 C          -3.8750   -3.9880    0.0000 C.3     1  LIG1        0.2525
     15 C           1.0710    1.1420    0.0000 C.2     1  LIG1        0.2637
     16 C           2.0710    1.2500    0.0000 C.3     1  LIG1        0.1163
     17 C           2.4710    2.1580    0.0000 C.ar    1  LIG1       -0.0128
     18 C           3.4670    2.2630    0.0000 C.ar    1  LIG1       -0.0038
     19 C           3.8750    3.1790    0.0000 C.ar    1  LIG1       -0.0003
     20 C           3.2790    3.9920    0.0000 C.ar    1  LIG1       -0.0000
     21 C           2.2830    3.8710    0.0000 C.ar    1  LIG1       -0.0003
     22 C           1.8750    2.9580    0.0000 C.ar    1  LIG1       -0.0038
     23 O           0.4830    1.9460    0.0000 O.2     1  LIG1       -0.2697
@<TRIPOS>BOND
     1     1     2   ar
     2     1     5   ar
     3     1    15   am
     4     2     3   ar
     5     3     4   ar
     6     3     7    1
     7     4     5   ar
     8     5     6    1
     9     7     8   ar
    10     7    12   ar
    11     8     9   ar
    12     9    10   ar
    13    10    11   ar
    14    10    13    1
    15    11    12   ar
    16    13    14    1
    17    15    16    1
    18    15    23    2
    19    16    17    1
    20    17    18   ar
    21    17    22   ar
    22    18    19   ar
    23    19    20   ar
    24    20    21   ar
    25    21    22   ar
