@<TRIPOS>MOLECULE
32668_ChemDiv_8015-2047
 20 22 0 0 0
SMALL
GASTEIGER
Energy = 0

@<TRIPOS>ATOM
      1 C          -0.2500   -0.4290    0.0000 C.ar    1  LIG1        0.1320
      2 N          -0.7500   -1.2960    0.0000 N.ar    1  LIG1       -0.2307
      3 C          -1.7500   -1.2960    0.0000 C.ar    1  LIG1        0.0827
      4 C          -2.2500   -0.4290    0.0000 C.ar    1  LIG1        0.0189
      5 C          -1.7500    0.4330    0.0000 C.ar    1  LIG1        0.0182
      6 C          -0.7500    0.4330    0.0000 C.ar    1  LIG1        0.0355
      7 C          -2.2500    1.3040    0.0000 C.2     1  LIG1        0.0730
      8 O          -1.7500    2.1670    0.0000 O.co2   1  LIG1       -0.5446
      9 O          -3.2500    1.3040    0.0000 O.co2   1  LIG1       -0.5446
     10 C          -3.2500   -0.4290    0.0000 C.ar    1  LIG1        0.0015
     11 C          -3.7540   -1.2960    0.0000 C.ar    1  LIG1        0.0001
     12 C          -3.2500   -2.1580    0.0000 C.ar    1  LIG1        0.0015
     13 C          -2.2500   -2.1630    0.0000 C.ar    1  LIG1        0.0191
     14 N           0.7500   -0.4290    0.0000 N.pl3   1  LIG1       -0.2824
     15 C           1.2500   -1.2960    0.0000 C.3     1  LIG1        0.1555
     16 C           2.2500   -1.2960    0.0000 C.3     1  LIG1        0.1608
     17 N           2.7500   -0.4290    0.0000 N.4     1  LIG1        0.3847
     18 C           2.2500    0.4330    0.0000 C.3     1  LIG1        0.1608
     19 C           1.2500    0.4330    0.0000 C.3     1  LIG1        0.1555
     20 C           3.7500   -0.4290    0.0000 C.3     1  LIG1        0.2024
@<TRIPOS>BOND
     1     1     2   ar
     2     1     6   ar
     3     1    14    1
     4     2     3   ar
     5     3     4   ar
     6     3    13   ar
     7     4     5   ar
     8     4    10   ar
     9     5     6   ar
    10     5     7    1
    11     7     8   ar
    12     7     9   ar
    13    10    11   ar
    14    11    12   ar
    15    12    13   ar
    16    14    15    1
    17    14    19    1
    18    15    16    1
    19    16    17    1
    20    17    18    1
    21    17    20    1
    22    18    19    1
