@<TRIPOS>MOLECULE
32666_ChemDiv_6179-0071
 23 25 0 0 0
SMALL
GASTEIGER
Energy = 0

@<TRIPOS>ATOM
      1 N          -1.7460    0.9460    0.0000 N.ar    1  LIG1       -0.2307
      2 C          -0.8830    1.4460    0.0000 C.ar    1  LIG1        0.1317
      3 N          -0.0210    0.9460    0.0000 N.pl3   1  LIG1       -0.2897
      4 C           0.8500    1.4460    0.0000 C.3     1  LIG1        0.1137
      5 C           1.7170    0.9460    0.0000 C.3     1  LIG1        0.1151
      6 N           1.7170   -0.0630    0.0000 N.am    1  LIG1       -0.2713
      7 C           2.5920   -0.5670    0.0000 C.2     1  LIG1        0.2818
      8 C           2.5920   -1.5710    0.0000 C.3     1  LIG1        0.1956
      9 N           3.4540   -2.0710    0.0000 N.4     1  LIG1        0.3175
     10 C           2.9540   -2.9380    0.0000 C.3     1  LIG1        0.1715
     11 C           3.9630   -1.2000    0.0000 C.3     1  LIG1        0.1715
     12 C           4.3290   -2.5750    0.0000 C.3     1  LIG1        0.1715
     13 O           3.4540   -0.0670    0.0000 O.2     1  LIG1       -0.2685
     14 C           0.8380   -0.5580    0.0000 C.3     1  LIG1        0.1151
     15 C          -0.0210   -0.0630    0.0000 C.3     1  LIG1        0.1137
     16 C          -0.8830    2.4420    0.0000 C.ar    1  LIG1        0.0343
     17 C          -1.7460    2.9420    0.0000 C.ar    1  LIG1        0.0044
     18 C          -2.6040    2.4420    0.0000 C.ar    1  LIG1        0.0178
     19 C          -2.6040    1.4460    0.0000 C.ar    1  LIG1        0.0827
     20 C          -3.4670    0.9460    0.0000 C.ar    1  LIG1        0.0191
     21 C          -4.3330    1.4460    0.0000 C.ar    1  LIG1        0.0015
     22 C          -4.3330    2.4330    0.0000 C.ar    1  LIG1        0.0001
     23 C          -3.4670    2.9420    0.0000 C.ar    1  LIG1        0.0015
@<TRIPOS>BOND
     1     1     2   ar
     2     1    19   ar
     3     2     3    1
     4     2    16   ar
     5     3     4    1
     6     3    15    1
     7     4     5    1
     8     5     6    1
     9     6     7   am
    10     6    14    1
    11     7     8    1
    12     7    13    2
    13     8     9    1
    14     9    10    1
    15     9    11    1
    16     9    12    1
    17    14    15    1
    18    16    17   ar
    19    17    18   ar
    20    18    19   ar
    21    18    23   ar
    22    19    20   ar
    23    20    21   ar
    24    21    22   ar
    25    22    23   ar
