@<TRIPOS>MOLECULE
32661_ChemDiv_6085-0192
 24 27 0 0 0
SMALL
GASTEIGER
Energy = 0

@<TRIPOS>ATOM
      1 C          -1.3080    1.0250    0.0000 C.ar    1  LIG1        0.0601
      2 C          -1.3080    0.0380    0.0000 C.ar    1  LIG1        0.2638
      3 N          -0.4630   -0.5290    0.0000 N.ar    1  LIG1       -0.2593
      4 C           0.4580    0.0380    0.0000 C.ar    1  LIG1        0.1541
      5 C           0.4580    1.0250    0.0000 C.ar    1  LIG1        0.0654
      6 C          -0.4630    1.5170    0.0000 C.ar    1  LIG1       -0.0111
      7 C          -0.4630    2.5080    0.0000 C.3     1  LIG1        0.0536
      8 C          -1.3080    3.0000    0.0000 C.3     1  LIG1        0.0974
      9 O          -2.1540    2.5080    0.0000 O.3     1  LIG1       -0.3533
     10 C          -2.1540    1.5170    0.0000 C.3     1  LIG1        0.1728
     11 C          -0.4630    3.5000    0.0000 C.3     1  LIG1        0.0300
     12 C          -2.1540    3.5000    0.0000 C.3     1  LIG1        0.0300
     13 C           1.3040    1.5170    0.0000 C.ar    1  LIG1        0.1739
     14 N           2.1500    1.0250    0.0000 N.ar    1  LIG1       -0.2056
     15 C           2.1500    0.0380    0.0000 C.ar    1  LIG1        0.2015
     16 N           1.3040   -0.5290    0.0000 N.ar    1  LIG1       -0.2061
     17 N           1.3040    2.5080    0.0000 N.pl3   1  LIG1       -0.1071
     18 C          -0.4630   -1.5170    0.0000 C.ar    1  LIG1        0.0682
     19 C           0.4580   -2.0130    0.0000 C.ar    1  LIG1        0.0177
     20 C           0.4580   -3.0000    0.0000 C.ar    1  LIG1        0.0015
     21 C          -0.4630   -3.4960    0.0000 C.ar    1  LIG1        0.0001
     22 C          -1.3080   -3.0000    0.0000 C.ar    1  LIG1        0.0015
     23 C          -1.3080   -2.0130    0.0000 C.ar    1  LIG1        0.0177
     24 O          -2.1540   -0.5290    0.0000 O.2     1  LIG1       -0.2669
@<TRIPOS>BOND
     1     1     2   ar
     2     1     6   ar
     3     1    10    1
     4     2     3   ar
     5     2    24    2
     6     3     4   ar
     7     3    18    1
     8     4     5   ar
     9     4    16   ar
    10     5     6   ar
    11     5    13   ar
    12     6     7    1
    13     7     8    1
    14     8     9    1
    15     8    11    1
    16     8    12    1
    17     9    10    1
    18    13    14   ar
    19    13    17    1
    20    14    15   ar
    21    15    16   ar
    22    18    19   ar
    23    18    23   ar
    24    19    20   ar
    25    20    21   ar
    26    21    22   ar
    27    22    23   ar
