@<TRIPOS>MOLECULE
32675_ChemDiv_6299-0008
 17 18 0 0 0
SMALL
GASTEIGER
Energy = 0

@<TRIPOS>ATOM
      1 C           0.0000   -0.2380    0.0000 C.ar    1  LIG1        0.1588
      2 N          -0.8330   -0.7170    0.0000 N.ar    1  LIG1       -0.2372
      3 N          -1.6670   -0.2380    0.0000 N.ar    1  LIG1       -0.1844
      4 C          -1.6670    0.7210    0.0000 C.ar    1  LIG1        0.0201
      5 C           0.0000    0.7210    0.0000 C.ar    1  LIG1        0.0356
      6 C           0.8330    1.2000    0.0000 C.ar    1  LIG1       -0.0174
      7 C           1.6670    0.7210    0.0000 C.ar    1  LIG1        0.0106
      8 C           1.6670   -0.2380    0.0000 C.ar    1  LIG1        0.0607
      9 N           0.8330   -0.7170    0.0000 N.ar    1  LIG1       -0.2312
     10 C           2.4920   -0.7130    0.0000 C.3     1  LIG1        0.0521
     11 C           0.8330    2.1630    0.0000 C.3     1  LIG1        0.0312
     12 O          -2.4960    1.2000    0.0000 O.co2   1  LIG1       -0.8585
     13 C          -0.8380   -1.6710    0.0000 C.3     1  LIG1        0.1068
     14 C           0.0000   -2.1580    0.0000 C.3     1  LIG1        0.0244
     15 C           0.8330   -1.6710    0.0000 C.3     1  LIG1        0.0020
     16 C           1.6670   -2.1580    0.0000 C.3     1  LIG1        0.0001
     17 C          -1.6710   -2.1580    0.0000 C.3     1  LIG1        0.0264
@<TRIPOS>BOND
     1     1     2   ar
     2     1     5   ar
     3     1     9   ar
     4     2     3   ar
     5     2    13    1
     6     3     4   ar
     7     4     5   ar
     8     4    12    1
     9     5     6   ar
    10     6     7   ar
    11     6    11    1
    12     7     8   ar
    13     8     9   ar
    14     8    10    1
    15    13    14    1
    16    13    17    1
    17    14    15    1
    18    15    16    1
