@<TRIPOS>MOLECULE
32673_ChemDiv_6223-0031
 20 21 0 0 0
SMALL
GASTEIGER
Energy = 0

@<TRIPOS>ATOM
      1 C          -0.9130   -0.2380    0.0000 C.ar    1  LIG1        0.1588
      2 N          -1.7500   -0.7210    0.0000 N.ar    1  LIG1       -0.2372
      3 N          -2.5880   -0.2380    0.0000 N.ar    1  LIG1       -0.1844
      4 C          -2.5880    0.7250    0.0000 C.ar    1  LIG1        0.0201
      5 C          -0.9130    0.7250    0.0000 C.ar    1  LIG1        0.0356
      6 C          -0.0710    1.2080    0.0000 C.ar    1  LIG1       -0.0174
      7 C           0.7670    0.7250    0.0000 C.ar    1  LIG1        0.0106
      8 C           0.7670   -0.2380    0.0000 C.ar    1  LIG1        0.0607
      9 N          -0.0710   -0.7210    0.0000 N.ar    1  LIG1       -0.2312
     10 C           1.6040   -0.7210    0.0000 C.3     1  LIG1        0.0521
     11 C          -0.0710    2.1790    0.0000 C.3     1  LIG1        0.0312
     12 O          -3.2710    1.4130    0.0000 O.co2   1  LIG1       -0.8585
     13 C          -1.7500   -1.6880    0.0000 C.3     1  LIG1        0.1068
     14 C          -0.9130   -2.1670    0.0000 C.3     1  LIG1        0.0244
     15 C          -0.0790   -1.6880    0.0000 C.3     1  LIG1        0.0020
     16 C           0.7580   -2.1670    0.0000 C.3     1  LIG1        0.0001
     17 C           1.5960   -1.6880    0.0000 C.3     1  LIG1        0.0000
     18 C           2.4290   -2.1750    0.0000 C.3     1  LIG1        0.0000
     19 C           3.2670   -1.6920    0.0000 C.3     1  LIG1        0.0000
     20 C          -2.5880   -2.1670    0.0000 C.3     1  LIG1        0.0264
@<TRIPOS>BOND
     1     1     2   ar
     2     1     5   ar
     3     1     9   ar
     4     2     3   ar
     5     2    13    1
     6     3     4   ar
     7     4     5   ar
     8     4    12    1
     9     5     6   ar
    10     6     7   ar
    11     6    11    1
    12     7     8   ar
    13     8     9   ar
    14     8    10    1
    15    13    14    1
    16    13    20    1
    17    14    15    1
    18    15    16    1
    19    16    17    1
    20    17    18    1
    21    18    19    1
