@<TRIPOS>MOLECULE
32671_ChemDiv_6529-0265
 27 30 0 0 0
SMALL
GASTEIGER
Energy = 0

@<TRIPOS>ATOM
      1 N          -0.7630   -0.4210    0.0000 N.ar    1  LIG1       -0.1728
      2 C          -0.2670   -1.2960    0.0000 C.ar    1  LIG1        0.1957
      3 N          -0.9290   -2.0380    0.0000 N.ar    1  LIG1       -0.1976
      4 C          -1.8420   -1.6330    0.0000 C.ar    1  LIG1        0.2188
      5 N          -1.7380   -0.6330    0.0000 N.ar    1  LIG1       -0.1383
      6 C          -2.7210   -2.1330    0.0000 C.ar    1  LIG1        0.1828
      7 O          -2.8290   -3.1210    0.0000 O.2     1  LIG1       -0.4472
      8 C          -3.8000   -3.3330    0.0000 C.ar    1  LIG1        0.1798
      9 C          -4.3000   -2.4630    0.0000 C.ar    1  LIG1        0.0439
     10 C          -3.6330   -1.7210    0.0000 C.ar    1  LIG1        0.0440
     11 S           0.7290   -1.3880    0.0000 S.3     1  LIG1       -0.0707
     12 C           1.3080   -0.5830    0.0000 C.3     1  LIG1        0.0913
     13 C           2.3130   -0.6920    0.0000 C.ar    1  LIG1       -0.0109
     14 C           2.7170   -1.6000    0.0000 C.ar    1  LIG1       -0.0034
     15 C           3.7040   -1.7080    0.0000 C.ar    1  LIG1       -0.0003
     16 C           4.2960   -0.8920    0.0000 C.ar    1  LIG1       -0.0000
     17 C           3.8790    0.0210    0.0000 C.ar    1  LIG1       -0.0003
     18 C           2.8830    0.1210    0.0000 C.ar    1  LIG1       -0.0034
     19 C          -0.3580    0.4920    0.0000 C.2     1  LIG1        0.2630
     20 C           0.6290    0.5960    0.0000 C.3     1  LIG1        0.1163
     21 C           1.0380    1.5080    0.0000 C.ar    1  LIG1       -0.0128
     22 C           2.0330    1.6130    0.0000 C.ar    1  LIG1       -0.0038
     23 C           2.4330    2.5330    0.0000 C.ar    1  LIG1       -0.0003
     24 C           1.8420    3.3380    0.0000 C.ar    1  LIG1       -0.0000
     25 C           0.8420    3.2250    0.0000 C.ar    1  LIG1       -0.0003
     26 C           0.4460    2.3080    0.0000 C.ar    1  LIG1       -0.0038
     27 O          -0.9540    1.2960    0.0000 O.2     1  LIG1       -0.2697
@<TRIPOS>BOND
     1     1     2   ar
     2     1     5   ar
     3     1    19   am
     4     2     3   ar
     5     2    11    1
     6     3     4   ar
     7     4     5   ar
     8     4     6    1
     9     6     7   ar
    10     6    10   ar
    11     7     8   ar
    12     8     9   ar
    13     9    10   ar
    14    11    12    1
    15    12    13    1
    16    13    14   ar
    17    13    18   ar
    18    14    15   ar
    19    15    16   ar
    20    16    17   ar
    21    17    18   ar
    22    19    20    1
    23    19    27    2
    24    20    21    1
    25    21    22   ar
    26    21    26   ar
    27    22    23   ar
    28    23    24   ar
    29    24    25   ar
    30    25    26   ar
