@<TRIPOS>MOLECULE
32674_ChemDiv_6583-0149
 30 34 0 0 0
SMALL
GASTEIGER
Energy = 0

@<TRIPOS>ATOM
      1 C           0.9210   -0.7750    0.0000 C.ar    1  LIG1        0.1641
      2 C          -0.0750   -0.7880    0.0000 C.ar    1  LIG1        0.0553
      3 C          -0.3880   -1.7380    0.0000 C.ar    1  LIG1        0.1320
      4 N          -1.3580   -1.9460    0.0000 N.ar    1  LIG1       -0.2229
      5 C          -2.0290   -1.2040    0.0000 C.ar    1  LIG1        0.1304
      6 C          -1.7210   -0.2500    0.0000 C.ar    1  LIG1        0.0352
      7 C          -0.7380   -0.0500    0.0000 C.ar    1  LIG1       -0.0140
      8 C          -0.4290    0.9000    0.0000 C.3     1  LIG1        0.0535
      9 C          -1.0960    1.6380    0.0000 C.3     1  LIG1        0.0974
     10 O          -2.0710    1.4380    0.0000 O.3     1  LIG1       -0.3533
     11 C          -2.3830    0.4830    0.0000 C.3     1  LIG1        0.1708
     12 C          -1.6000    2.5080    0.0000 C.3     1  LIG1        0.0300
     13 C          -0.7710    2.5880    0.0000 C.3     1  LIG1        0.0300
     14 N          -3.0080   -1.4170    0.0000 N.pl3   1  LIG1       -0.2883
     15 C          -3.3080   -2.3710    0.0000 C.3     1  LIG1        0.1242
     16 C          -4.2880   -2.5830    0.0000 C.3     1  LIG1        0.1636
     17 O          -4.9630   -1.8420    0.0000 O.3     1  LIG1       -0.3501
     18 C          -4.6540   -0.8830    0.0000 C.3     1  LIG1        0.1636
     19 C          -3.6790   -0.6750    0.0000 C.3     1  LIG1        0.1242
     20 S           0.4290   -2.3290    0.0000 S.2     1  LIG1        0.0340
     21 N           1.2380   -1.7290    0.0000 N.ar    1  LIG1       -0.1909
     22 N           1.6290   -0.0580    0.0000 N.am    1  LIG1       -0.1559
     23 C           2.5920   -0.3080    0.0000 C.2     1  LIG1        0.2703
     24 O           2.8630   -1.2710    0.0000 O.2     1  LIG1       -0.2680
     25 C           3.2920    0.4040    0.0000 C.ar    1  LIG1        0.0554
     26 C           3.0210    1.3630    0.0000 C.ar    1  LIG1        0.0046
     27 C           3.7170    2.0750    0.0000 C.ar    1  LIG1        0.0001
     28 C           4.6920    1.8250    0.0000 C.ar    1  LIG1        0.0000
     29 C           4.9580    0.8630    0.0000 C.ar    1  LIG1        0.0001
     30 C           4.2540    0.1500    0.0000 C.ar    1  LIG1        0.0046
@<TRIPOS>BOND
     1     1     2   ar
     2     1    21   ar
     3     1    22    1
     4     2     3   ar
     5     2     7   ar
     6     3     4   ar
     7     3    20   ar
     8     4     5   ar
     9     5     6   ar
    10     5    14    1
    11     6     7   ar
    12     6    11    1
    13     7     8    1
    14     8     9    1
    15     9    10    1
    16     9    12    1
    17     9    13    1
    18    10    11    1
    19    14    15    1
    20    14    19    1
    21    15    16    1
    22    16    17    1
    23    17    18    1
    24    18    19    1
    25    20    21   ar
    26    22    23   am
    27    23    24    2
    28    23    25    1
    29    25    26   ar
    30    25    30   ar
    31    26    27   ar
    32    27    28   ar
    33    28    29   ar
    34    29    30   ar
