@<TRIPOS>MOLECULE
32670_ChemDiv_8015-2521
 20 22 0 0 0
SMALL
GASTEIGER
Energy = 0

@<TRIPOS>ATOM
      1 N          -1.5000   -0.4290    0.0000 N.ar    1  LIG1       -0.2307
      2 C          -1.0000    0.4380    0.0000 C.ar    1  LIG1        0.1320
      3 N           0.0000    0.4380    0.0000 N.pl3   1  LIG1       -0.2824
      4 C           0.5000   -0.4290    0.0000 C.3     1  LIG1        0.1555
      5 C           1.4960   -0.4290    0.0000 C.3     1  LIG1        0.1612
      6 N           1.9960    0.4380    0.0000 N.4     1  LIG1        0.3872
      7 C           2.9960    0.4380    0.0000 C.3     1  LIG1        0.2284
      8 C           3.5000   -0.4290    0.0000 C.2     1  LIG1        0.3184
      9 O           2.9960   -1.2960    0.0000 O.2     1  LIG1       -0.2652
     10 N           4.5000   -0.4290    0.0000 N.am    1  LIG1       -0.0826
     11 C           1.4960    1.3000    0.0000 C.3     1  LIG1        0.1612
     12 C           0.5000    1.3000    0.0000 C.3     1  LIG1        0.1555
     13 C          -1.5000    1.3000    0.0000 C.ar    1  LIG1        0.0343
     14 C          -2.5000    1.3000    0.0000 C.ar    1  LIG1        0.0044
     15 C          -3.0000    0.4380    0.0000 C.ar    1  LIG1        0.0178
     16 C          -2.5000   -0.4290    0.0000 C.ar    1  LIG1        0.0827
     17 C          -3.0000   -1.2960    0.0000 C.ar    1  LIG1        0.0191
     18 C          -4.0000   -1.2920    0.0000 C.ar    1  LIG1        0.0015
     19 C          -4.5040   -0.4290    0.0000 C.ar    1  LIG1        0.0001
     20 C          -4.0000    0.4380    0.0000 C.ar    1  LIG1        0.0015
@<TRIPOS>BOND
     1     1     2   ar
     2     1    16   ar
     3     2     3    1
     4     2    13   ar
     5     3     4    1
     6     3    12    1
     7     4     5    1
     8     5     6    1
     9     6     7    1
    10     6    11    1
    11     7     8    1
    12     8     9    2
    13     8    10   am
    14    11    12    1
    15    13    14   ar
    16    14    15   ar
    17    15    16   ar
    18    15    20   ar
    19    16    17   ar
    20    17    18   ar
    21    18    19   ar
    22    19    20   ar
