@<TRIPOS>MOLECULE
32679_ChemDiv_6228-0295
 21 23 0 0 0
SMALL
GASTEIGER
Energy = 0

@<TRIPOS>ATOM
      1 C          -1.3330   -0.2540    0.0000 C.3     1  LIG1        0.0589
      2 C          -2.2080    0.2580    0.0000 C.3     1  LIG1        0.0261
      3 C          -3.0670   -0.2540    0.0000 C.2     1  LIG1       -0.0348
      4 C          -3.0670   -1.2540    0.0000 C.2     1  LIG1       -0.0482
      5 C          -2.2080   -1.7500    0.0000 C.3     1  LIG1        0.0219
      6 C          -1.3330   -1.2540    0.0000 C.3     1  LIG1        0.0090
      7 C          -0.4670   -1.7500    0.0000 C.3     1  LIG1        0.0005
      8 C          -3.9330   -1.7500    0.0000 C.3     1  LIG1        0.0260
      9 C          -2.2080    1.2580    0.0000 C.3     1  LIG1        0.0048
     10 C          -0.6330   -0.9630    0.0000 C.3     1  LIG1        0.1477
     11 O           0.3290   -0.7040    0.0000 O.3     1  LIG1       -0.3269
     12 C           0.5920    0.2630    0.0000 C.3     1  LIG1        0.2660
     13 C           1.5580    0.5290    0.0000 C.ar    1  LIG1        0.1034
     14 C           2.2630   -0.1790    0.0000 C.ar    1  LIG1        0.2907
     15 N           3.2210    0.0790    0.0000 N.ar    1  LIG1       -0.1535
     16 C           3.4790    1.0460    0.0000 C.ar    1  LIG1        0.2903
     17 C           2.7670    1.7540    0.0000 C.ar    1  LIG1        0.0757
     18 C           1.8000    1.5000    0.0000 C.ar    1  LIG1        0.0130
     19 C           3.9290   -0.6170    0.0000 C.3     1  LIG1        0.4084
     20 O          -0.1130    0.9710    0.0000 O.3     1  LIG1       -0.3269
     21 C          -1.0880    0.7130    0.0000 C.3     1  LIG1        0.1477
@<TRIPOS>BOND
     1     1     2    1
     2     1     6    1
     3     1    10    1
     4     1    21    1
     5     2     3    1
     6     2     9    1
     7     3     4    2
     8     4     5    1
     9     4     8    1
    10     5     6    1
    11     6     7    1
    12    10    11    1
    13    11    12    1
    14    12    13    1
    15    12    20    1
    16    13    14   ar
    17    13    18   ar
    18    14    15   ar
    19    15    16   ar
    20    15    19    1
    21    16    17   ar
    22    17    18   ar
    23    20    21    1
