@<TRIPOS>MOLECULE
32672_ChemDiv_8016-4437
 24 27 0 0 0
SMALL
GASTEIGER
Energy = 0

@<TRIPOS>ATOM
      1 N           0.4250    1.6540    0.0000 N.pl3   1  LIG1       -0.2824
      2 C           1.3920    1.9170    0.0000 C.ar    1  LIG1        0.1320
      3 N           2.1000    1.2080    0.0000 N.ar    1  LIG1       -0.2292
      4 C           3.0670    1.4710    0.0000 C.ar    1  LIG1        0.1003
      5 C           3.3170    2.4460    0.0000 C.ar    1  LIG1        0.0208
      6 C           2.6040    3.1420    0.0000 C.ar    1  LIG1        0.0045
      7 C           1.6380    2.8710    0.0000 C.ar    1  LIG1        0.0343
      8 C           0.1670    0.6790    0.0000 C.3     1  LIG1        0.1555
      9 C          -0.7920    0.4210    0.0000 C.3     1  LIG1        0.1610
     10 N          -1.5040    1.1290    0.0000 N.4     1  LIG1        0.3834
     11 C          -2.4580    0.8670    0.0000 C.3     1  LIG1        0.1664
     12 C          -2.4540   -0.1290    0.0000 C.ar    1  LIG1        0.0360
     13 C          -1.5920   -0.6290    0.0000 C.ar    1  LIG1        0.0224
     14 C          -1.5830   -1.6380    0.0000 C.ar    1  LIG1        0.1200
     15 N          -0.7210   -2.1290    0.0000 N.ar    1  LIG1       -0.2406
     16 C           0.1460   -1.6290    0.0000 C.ar    1  LIG1        0.0989
     17 C           0.1380   -0.6170    0.0000 C.ar    1  LIG1        0.0207
     18 C          -0.7290   -0.1290    0.0000 C.ar    1  LIG1        0.0031
     19 C          -2.4540   -2.1380    0.0000 C.ar    1  LIG1        0.2131
     20 C          -3.3210   -1.6380    0.0000 C.ar    1  LIG1        0.0435
     21 C          -3.3170   -0.6380    0.0000 C.ar    1  LIG1        0.0048
     22 O          -2.4580   -3.1380    0.0000 O.3     1  LIG1       -0.2850
     23 C          -1.2460    2.0920    0.0000 C.3     1  LIG1        0.1610
     24 C          -0.2790    2.3540    0.0000 C.3     1  LIG1        0.1555
@<TRIPOS>BOND
     1     1     2    1
     2     1     8    1
     3     1    24    1
     4     2     3   ar
     5     2     7   ar
     6     3     4   ar
     7     4     5   ar
     8     5     6   ar
     9     6     7   ar
    10     8     9    1
    11     9    10    1
    12    10    11    1
    13    10    23    1
    14    11    12    1
    15    12    13   ar
    16    12    21   ar
    17    13    14   ar
    18    13    18   ar
    19    14    15   ar
    20    14    19   ar
    21    15    16   ar
    22    16    17   ar
    23    17    18   ar
    24    19    20   ar
    25    19    22    1
    26    20    21   ar
    27    23    24    1
