@<TRIPOS>MOLECULE
32681_ChemDiv_6228-0712
 17 18 0 0 0
SMALL
GASTEIGER
Energy = 0

@<TRIPOS>ATOM
      1 C           0.4790    0.0630    0.0000 C.3     1  LIG1        0.2929
      2 O           1.4500    0.3210    0.0000 O.3     1  LIG1       -0.3309
      3 C           1.7250    1.2790    0.0000 C.3     1  LIG1        0.0979
      4 C           1.0080    1.9880    0.0000 C.3     1  LIG1        0.0569
      5 C           0.0330    1.7250    0.0000 C.3     1  LIG1        0.1204
      6 O          -0.2130    0.7830    0.0000 O.3     1  LIG1       -0.3286
      7 C          -0.6880    2.4130    0.0000 C.3     1  LIG1        0.0322
      8 C           2.4170    1.9830    0.0000 C.3     1  LIG1        0.0298
      9 C           2.6710    1.0210    0.0000 C.3     1  LIG1        0.0298
     10 C           0.2330   -0.9170    0.0000 C.3     1  LIG1        0.1710
     11 N          -0.7290   -1.1880    0.0000 N.4     1  LIG1        0.3054
     12 C          -0.0380   -1.8880    0.0000 C.3     1  LIG1        0.1706
     13 C          -0.9830   -2.1630    0.0000 C.3     1  LIG1        0.1089
     14 C          -1.9750   -2.4080    0.0000 C.3     1  LIG1        0.0612
     15 C          -2.6750   -1.7040    0.0000 C.3     1  LIG1        0.0122
     16 C          -2.4210   -0.7250    0.0000 C.3     1  LIG1        0.0612
     17 C          -1.4420   -0.4710    0.0000 C.3     1  LIG1        0.1089
@<TRIPOS>BOND
     1     1     2    1
     2     1     6    1
     3     1    10    1
     4     2     3    1
     5     3     4    1
     6     3     8    1
     7     3     9    1
     8     4     5    1
     9     5     6    1
    10     5     7    1
    11    10    11    1
    12    11    12    1
    13    11    13    1
    14    11    17    1
    15    13    14    1
    16    14    15    1
    17    15    16    1
    18    16    17    1
