@<TRIPOS>MOLECULE
32680_ChemDiv_C588-0034
 16 18 0 0 0
SMALL
GASTEIGER
Energy = 0

@<TRIPOS>ATOM
      1 C           0.8540   -0.1130    0.0000 C.3     1  LIG1        0.0063
      2 C           0.1000   -0.5330    0.0000 C.3     1  LIG1        0.0004
      3 C          -0.8540   -0.2000    0.0000 C.3     1  LIG1        0.0063
      4 C          -0.8540    0.6540    0.0000 C.3     1  LIG1        0.0002
      5 C           0.0460    1.1670    0.0000 C.3     1  LIG1        0.0000
      6 C           0.8540    0.6540    0.0000 C.3     1  LIG1        0.0002
      7 C          -0.4880    0.4040    0.0000 C.3     1  LIG1        0.0000
      8 C          -0.4880   -0.7540    0.0000 C.3     1  LIG1        0.0000
      9 C           0.5130   -1.1630    0.0000 C.3     1  LIG1        0.0002
     10 C          -1.4880   -1.1170    0.0000 C.3     1  LIG1        0.0002
     11 C          -1.8630   -0.1920    0.0000 C.3     1  LIG1        0.0806
     12 C          -2.3710   -1.0670    0.0000 C.3     1  LIG1        0.3152
     13 N          -3.3830   -1.0630    0.0000 N.4     1  LIG1        0.5972
     14 C           1.8670   -0.1130    0.0000 C.3     1  LIG1        0.0806
     15 C           2.3670   -0.9830    0.0000 C.3     1  LIG1        0.3152
     16 N           3.3790   -0.9830    0.0000 N.4     1  LIG1        0.5972
@<TRIPOS>BOND
     1     1     2    1
     2     1     6    1
     3     1     9    1
     4     1    14    1
     5     2     3    1
     6     3     4    1
     7     3    10    1
     8     3    11    1
     9     4     5    1
    10     5     6    1
    11     5     7    1
    12     7     8    1
    13     8     9    1
    14     8    10    1
    15    11    12    1
    16    12    13    1
    17    14    15    1
    18    15    16    1
