@<TRIPOS>MOLECULE
32685_ChemDiv_6228-0768
 23 25 0 0 0
SMALL
GASTEIGER
Energy = 0

@<TRIPOS>ATOM
      1 C           3.3290    0.2540    0.0000 C.ar    1  LIG1        0.0909
      2 C           2.4580    0.7540    0.0000 C.ar    1  LIG1        0.0799
      3 N           1.6630    0.3040    0.0000 N.am    1  LIG1       -0.1752
      4 C           0.9960    1.0540    0.0000 C.2     1  LIG1        0.2690
      5 C           0.0130    0.8460    0.0000 C.ar    1  LIG1        0.0553
      6 C          -0.6580    1.5880    0.0000 C.ar    1  LIG1        0.0034
      7 C          -1.6330    1.3830    0.0000 C.ar    1  LIG1        0.0155
      8 C          -1.9460    0.4290    0.0000 C.ar    1  LIG1        0.1345
      9 O          -2.9500    0.4250    0.0000 O.3     1  LIG1       -0.4791
     10 C          -3.2540    1.3830    0.0000 C.3     1  LIG1        0.1704
     11 C          -2.4500    1.9710    0.0000 C.3     1  LIG1        0.0729
     12 C          -4.2080    1.6920    0.0000 C.3     1  LIG1        0.0476
     13 C          -1.2830   -0.3170    0.0000 C.ar    1  LIG1        0.0367
     14 C          -0.2960   -0.1130    0.0000 C.ar    1  LIG1        0.0077
     15 O           1.3040    2.0040    0.0000 O.2     1  LIG1       -0.2680
     16 C           2.4580    1.7580    0.0000 C.ar    1  LIG1        0.0168
     17 C           3.3290    2.2630    0.0000 C.ar    1  LIG1        0.0013
     18 C           4.2040    1.7630    0.0000 C.ar    1  LIG1        0.0003
     19 C           4.2040    0.7540    0.0000 C.ar    1  LIG1        0.0078
     20 C           3.3290   -0.7540    0.0000 C.2     1  LIG1        0.3426
     21 O           2.4580   -1.2540    0.0000 O.2     1  LIG1       -0.2448
     22 O           4.2040   -1.2540    0.0000 O.3     1  LIG1       -0.4413
     23 C           4.2040   -2.2580    0.0000 C.3     1  LIG1        0.2560
@<TRIPOS>BOND
     1     1     2   ar
     2     1    19   ar
     3     1    20    1
     4     2     3    1
     5     2    16   ar
     6     3     4   am
     7     4     5    1
     8     4    15    2
     9     5     6   ar
    10     5    14   ar
    11     6     7   ar
    12     7     8   ar
    13     7    11    1
    14     8     9    1
    15     8    13   ar
    16     9    10    1
    17    10    11    1
    18    10    12    1
    19    13    14   ar
    20    16    17   ar
    21    17    18   ar
    22    18    19   ar
    23    20    21    2
    24    20    22    1
    25    22    23    1
