@<TRIPOS>MOLECULE
32687_ChemDiv_6228-0825
 32 35 0 0 0
SMALL
GASTEIGER
Energy = 0

@<TRIPOS>ATOM
      1 S          -1.0460   -0.7250    0.0000 S.O2    1  LIG1        0.0112
      2 C          -0.0460   -0.7210    0.0000 C.ar    1  LIG1        0.1165
      3 C           0.4540   -1.5880    0.0000 C.ar    1  LIG1        0.0269
      4 C           1.4580   -1.5880    0.0000 C.ar    1  LIG1        0.0902
      5 C           1.9580   -0.7210    0.0000 C.ar    1  LIG1        0.0550
      6 C           1.4580    0.1420    0.0000 C.ar    1  LIG1        0.0274
      7 C           0.4540    0.1420    0.0000 C.ar    1  LIG1        0.0759
      8 CL         -0.0630    1.0170    0.0000 Cl      1  LIG1       -0.0809
      9 N           2.9630   -0.7210    0.0000 N.pl3   1  LIG1       -0.3073
     10 C           3.5130   -1.5460    0.0000 C.3     1  LIG1        0.0908
     11 C           4.4710   -1.2750    0.0000 C.3     1  LIG1        0.0232
     12 C           4.5210   -0.2960    0.0000 C.3     1  LIG1        0.0232
     13 C           3.5880    0.0540    0.0000 C.3     1  LIG1        0.0908
     14 C           1.9710   -2.4630    0.0000 C.2     1  LIG1        0.3426
     15 O           2.9670   -2.4540    0.0000 O.2     1  LIG1       -0.2448
     16 O           1.4670   -3.3330    0.0000 O.3     1  LIG1       -0.4413
     17 C           0.4750   -3.3420    0.0000 C.3     1  LIG1        0.2560
     18 C          -1.0460    0.2710    0.0000 C.3     1  LIG1        0.1763
     19 C          -1.9210    0.7710    0.0000 C.3     1  LIG1        0.1044
     20 N          -1.9290    1.7710    0.0000 N.3     1  LIG1       -0.2689
     21 C          -2.7920    2.2750    0.0000 C.3     1  LIG1        0.0724
     22 C          -2.5790    3.2500    0.0000 C.3     1  LIG1        0.0188
     23 C          -1.5790    3.3460    0.0000 C.3     1  LIG1        0.0188
     24 C          -1.1830    2.4500    0.0000 C.3     1  LIG1        0.0724
     25 C          -2.7920    0.2630    0.0000 C.ar    1  LIG1       -0.0061
     26 C          -3.6670    0.7630    0.0000 C.ar    1  LIG1       -0.0029
     27 C          -4.5250    0.2630    0.0000 C.ar    1  LIG1       -0.0003
     28 C          -4.5250   -0.7420    0.0000 C.ar    1  LIG1       -0.0000
     29 C          -3.6670   -1.2330    0.0000 C.ar    1  LIG1       -0.0003
     30 C          -2.7920   -0.7420    0.0000 C.ar    1  LIG1       -0.0029
     31 O          -2.0460   -0.7250    0.0000 O.2     1  LIG1       -0.1685
     32 O          -1.0460   -1.7250    0.0000 O.2     1  LIG1       -0.1685
@<TRIPOS>BOND
     1     1     2    1
     2     1    18    1
     3     1    31    2
     4     1    32    2
     5     2     3   ar
     6     2     7   ar
     7     3     4   ar
     8     4     5   ar
     9     4    14    1
    10     5     6   ar
    11     5     9    1
    12     6     7   ar
    13     7     8    1
    14     9    10    1
    15     9    13    1
    16    10    11    1
    17    11    12    1
    18    12    13    1
    19    14    15    2
    20    14    16    1
    21    16    17    1
    22    18    19    1
    23    19    20    1
    24    19    25    1
    25    20    21    1
    26    20    24    1
    27    21    22    1
    28    22    23    1
    29    23    24    1
    30    25    26   ar
    31    25    30   ar
    32    26    27   ar
    33    27    28   ar
    34    28    29   ar
    35    29    30   ar
