@<TRIPOS>MOLECULE
32686_ChemDiv_6623-1375
 36 40 0 0 0
SMALL
GASTEIGER
Energy = 0

@<TRIPOS>ATOM
      1 C           3.8630   -0.5710    0.0000 C.ar    1  LIG1        0.1658
      2 N           4.4210   -1.4040    0.0000 N.ar    1  LIG1       -0.3072
      3 C           5.3830   -1.1460    0.0000 C.ar    1  LIG1        0.0629
      4 C           5.4040   -0.1290    0.0000 C.ar    1  LIG1        0.0382
      5 C           4.4630    0.2040    0.0000 C.ar    1  LIG1        0.1383
      6 N           4.0710    1.1420    0.0000 N.ar    1  LIG1       -0.1429
      7 N           3.0790    1.2500    0.0000 N.ar    1  LIG1       -0.1217
      8 C           2.4670    0.5000    0.0000 C.ar    1  LIG1        0.2123
      9 N           2.8540   -0.4330    0.0000 N.ar    1  LIG1       -0.2008
     10 S           1.4710    0.6210    0.0000 S.3     1  LIG1       -0.0641
     11 C           1.0750    1.5580    0.0000 C.3     1  LIG1        0.1521
     12 C           0.0920    1.6290    0.0000 C.2     1  LIG1        0.2588
     13 N          -0.3040    2.5710    0.0000 N.am    1  LIG1       -0.1521
     14 C          -1.3000    2.6750    0.0000 C.ar    1  LIG1        0.2077
     15 S          -1.9830    1.9420    0.0000 S.2     1  LIG1       -0.0325
     16 C          -2.8580    2.3880    0.0000 C.ar    1  LIG1        0.1236
     17 N          -2.7750    3.3750    0.0000 N.ar    1  LIG1       -0.1434
     18 N          -1.7710    3.5750    0.0000 N.ar    1  LIG1       -0.1239
     19 C          -3.7290    1.8960    0.0000 C.3     1  LIG1        0.1638
     20 C          -4.5670    2.4170    0.0000 C.2     1  LIG1        0.3237
     21 O          -4.5500    3.3630    0.0000 O.2     1  LIG1       -0.2496
     22 O          -5.4460    1.9670    0.0000 O.3     1  LIG1       -0.4482
     23 C          -6.2920    2.5040    0.0000 C.3     1  LIG1        0.2086
     24 C          -7.1460    1.9790    0.0000 C.3     1  LIG1        0.0513
     25 O          -0.5130    0.8790    0.0000 O.2     1  LIG1       -0.2720
     26 C           6.3130    0.3420    0.0000 C.ar    1  LIG1        0.0031
     27 C           7.1460   -0.1880    0.0000 C.ar    1  LIG1        0.0001
     28 C           7.1000   -1.1960    0.0000 C.ar    1  LIG1        0.0015
     29 C           6.2210   -1.6830    0.0000 C.ar    1  LIG1        0.0173
     30 C           4.0710   -2.3170    0.0000 C.3     1  LIG1        0.1342
     31 C           3.0790   -2.4750    0.0000 C.ar    1  LIG1        0.0004
     32 C           2.4380   -1.6880    0.0000 C.ar    1  LIG1       -0.0024
     33 C           1.4420   -1.8460    0.0000 C.ar    1  LIG1       -0.0003
     34 C           1.0710   -2.7830    0.0000 C.ar    1  LIG1       -0.0000
     35 C           1.7040   -3.5710    0.0000 C.ar    1  LIG1       -0.0003
     36 C           2.7000   -3.4130    0.0000 C.ar    1  LIG1       -0.0024
@<TRIPOS>BOND
     1     1     2   ar
     2     1     5   ar
     3     1     9   ar
     4     2     3   ar
     5     2    30    1
     6     3     4   ar
     7     3    29   ar
     8     4     5   ar
     9     4    26   ar
    10     5     6   ar
    11     6     7   ar
    12     7     8   ar
    13     8     9   ar
    14     8    10    1
    15    10    11    1
    16    11    12    1
    17    12    13   am
    18    12    25    2
    19    13    14    1
    20    14    15   ar
    21    14    18   ar
    22    15    16   ar
    23    16    17   ar
    24    16    19    1
    25    17    18   ar
    26    19    20    1
    27    20    21    2
    28    20    22    1
    29    22    23    1
    30    23    24    1
    31    26    27   ar
    32    27    28   ar
    33    28    29   ar
    34    30    31    1
    35    31    32   ar
    36    31    36   ar
    37    32    33   ar
    38    33    34   ar
    39    34    35   ar
    40    35    36   ar
