@<TRIPOS>MOLECULE
32689_ChemDiv_6322-0150
 27 29 0 0 0
SMALL
GASTEIGER
Energy = 0

@<TRIPOS>ATOM
      1 N           0.4460    0.4920    0.0000 N.ar    1  LIG1       -0.1877
      2 C           1.4080    0.7630    0.0000 C.ar    1  LIG1        0.2768
      3 O           1.4540    1.7460    0.0000 O.2     1  LIG1       -0.3333
      4 N           0.5170    2.1130    0.0000 N.ar    1  LIG1       -0.0559
      5 C          -0.1040    1.3250    0.0000 C.ar    1  LIG1        0.2034
      6 C          -1.1130    1.3250    0.0000 C.ar    1  LIG1        0.0393
      7 C          -1.6170    2.2000    0.0000 C.ar    1  LIG1        0.0063
      8 C          -2.6250    2.2000    0.0000 C.ar    1  LIG1        0.0370
      9 C          -3.1250    1.3250    0.0000 C.ar    1  LIG1        0.1393
     10 O          -4.1250    1.3250    0.0000 O.3     1  LIG1       -0.4655
     11 C          -4.6130    0.4630    0.0000 C.3     1  LIG1        0.2929
     12 C          -5.6130    0.4500    0.0000 C.2     1  LIG1        0.3052
     13 O          -6.1170    1.3130    0.0000 O.2     1  LIG1       -0.2676
     14 N          -6.1040   -0.4170    0.0000 N.am    1  LIG1       -0.0845
     15 C          -2.6250    0.4630    0.0000 C.ar    1  LIG1        0.0370
     16 C          -1.6170    0.4630    0.0000 C.ar    1  LIG1        0.0063
     17 C           2.1670    0.1040    0.0000 C.3     1  LIG1        0.2438
     18 O           3.1080    0.4290    0.0000 O.3     1  LIG1       -0.4700
     19 C           3.8630   -0.2290    0.0000 C.ar    1  LIG1        0.1351
     20 C           4.8040    0.1000    0.0000 C.ar    1  LIG1        0.0130
     21 C           5.5540   -0.5540    0.0000 C.ar    1  LIG1        0.0101
     22 C           5.3630   -1.5380    0.0000 C.ar    1  LIG1        0.0576
     23 C           4.4210   -1.8540    0.0000 C.ar    1  LIG1        0.0145
     24 C           3.6710   -1.2040    0.0000 C.ar    1  LIG1        0.0375
     25 CL          6.1170   -2.1960    0.0000 Cl      1  LIG1       -0.0823
     26 C           4.9880    1.0830    0.0000 C.3     1  LIG1        0.0342
     27 C           1.9750   -0.8710    0.0000 C.3     1  LIG1        0.0577
@<TRIPOS>BOND
     1     1     2   ar
     2     1     5   ar
     3     2     3   ar
     4     2    17    1
     5     3     4   ar
     6     4     5   ar
     7     5     6    1
     8     6     7   ar
     9     6    16   ar
    10     7     8   ar
    11     8     9   ar
    12     9    10    1
    13     9    15   ar
    14    10    11    1
    15    11    12    1
    16    12    13    2
    17    12    14   am
    18    15    16   ar
    19    17    18    1
    20    17    27    1
    21    18    19    1
    22    19    20   ar
    23    19    24   ar
    24    20    21   ar
    25    20    26    1
    26    21    22   ar
    27    22    23   ar
    28    22    25    1
    29    23    24   ar
