@<TRIPOS>MOLECULE
32684_ChemDiv_6623-1095
 21 22 0 0 0
SMALL
GASTEIGER
Energy = 0

@<TRIPOS>ATOM
      1 N          -0.4630    1.4630    0.0000 N.ar    1  LIG1       -0.2155
      2 C           0.4170    0.9630    0.0000 C.ar    1  LIG1        0.1820
      3 N           0.4170   -0.0330    0.0000 N.ar    1  LIG1       -0.3065
      4 C          -0.4630   -0.5290    0.0000 C.ar    1  LIG1        0.0442
      5 C          -1.3330   -0.0330    0.0000 C.ar    1  LIG1        0.0699
      6 C          -1.3330    0.9630    0.0000 C.ar    1  LIG1        0.1126
      7 S          -2.1830    1.4630    0.0000 S.3     1  LIG1       -0.0948
      8 C          -3.0380    0.9790    0.0000 C.3     1  LIG1        0.0637
      9 C          -3.8960    1.4750    0.0000 C.3     1  LIG1        0.0130
     10 C          -2.1830   -0.5290    0.0000 C.2     1  LIG1        0.1765
     11 O          -2.1830   -1.5330    0.0000 O.2     1  LIG1       -0.2912
     12 C          -3.0630   -0.0330    0.0000 C.3     1  LIG1        0.0774
     13 C          -0.4630   -1.5330    0.0000 C.3     1  LIG1        0.0502
     14 C           1.2790   -0.5170    0.0000 C.3     1  LIG1        0.1343
     15 C           2.1540    0.0080    0.0000 C.ar    1  LIG1        0.0004
     16 C           3.0250   -0.4670    0.0000 C.ar    1  LIG1       -0.0024
     17 C           3.8710    0.0790    0.0000 C.ar    1  LIG1       -0.0003
     18 C           3.8920    1.0580    0.0000 C.ar    1  LIG1       -0.0000
     19 C           3.0040    1.5380    0.0000 C.ar    1  LIG1       -0.0003
     20 C           2.1380    1.0420    0.0000 C.ar    1  LIG1       -0.0024
     21 S           1.2790    1.4580    0.0000 S.2     1  LIG1       -0.0109
@<TRIPOS>BOND
     1     1     2   ar
     2     1     6   ar
     3     2     3   ar
     4     2    21    2
     5     3     4   ar
     6     3    14    1
     7     4     5   ar
     8     4    13    1
     9     5     6   ar
    10     5    10    1
    11     6     7    1
    12     7     8    1
    13     8     9    1
    14    10    11    2
    15    10    12    1
    16    14    15    1
    17    15    16   ar
    18    15    20   ar
    19    16    17   ar
    20    17    18   ar
    21    18    19   ar
    22    19    20   ar
