@<TRIPOS>MOLECULE
32688_ChemDiv_6623-1601
 27 30 0 0 0
SMALL
GASTEIGER
Energy = 0

@<TRIPOS>ATOM
      1 N          -0.2210   -0.3960    0.0000 N.am    1  LIG1       -0.2769
      2 C           0.0830   -1.3210    0.0000 C.2     1  LIG1        0.2490
      3 C           1.0670   -1.5290    0.0000 C.ar    1  LIG1        0.0536
      4 C           1.7250   -0.7290    0.0000 C.ar    1  LIG1        0.0054
      5 C           2.7130   -0.9130    0.0000 C.ar    1  LIG1        0.0115
      6 C           3.0540   -1.8710    0.0000 C.ar    1  LIG1        0.0577
      7 C           2.3960   -2.5790    0.0000 C.ar    1  LIG1        0.0115
      8 C           1.4170   -2.4330    0.0000 C.ar    1  LIG1        0.0054
      9 CL          4.0130   -2.1290    0.0000 Cl      1  LIG1       -0.0822
     10 O          -0.6000   -2.0790    0.0000 O.2     1  LIG1       -0.2699
     11 C          -1.2080   -0.1920    0.0000 C.3     1  LIG1        0.0871
     12 C          -1.5460    0.4420    0.0000 C.3     1  LIG1        0.0767
     13 C          -2.6210    0.4540    0.0000 C.3     1  LIG1        0.0888
     14 N          -2.7710    1.3790    0.0000 N.4     1  LIG1        0.3735
     15 C          -2.8670    0.0250    0.0000 C.3     1  LIG1        0.0888
     16 C          -1.8460   -0.6040    0.0000 C.3     1  LIG1        0.0767
     17 C          -4.0170   -0.4380    0.0000 C.3     1  LIG1        0.0627
     18 C          -3.7250    0.0250    0.0000 C.3     1  LIG1        0.0627
     19 C          -2.7880    2.3630    0.0000 C.3     1  LIG1        0.2016
     20 C           0.4630    0.3330    0.0000 C.3     1  LIG1        0.0983
     21 C           1.4330    0.1290    0.0000 C.3     1  LIG1        0.0478
     22 C           2.1000    0.8710    0.0000 C.ar    1  LIG1       -0.0205
     23 C           3.0790    0.6750    0.0000 C.ar    1  LIG1       -0.0042
     24 C           3.7580    1.4040    0.0000 C.ar    1  LIG1       -0.0003
     25 C           3.4630    2.3670    0.0000 C.ar    1  LIG1       -0.0000
     26 C           2.4750    2.5830    0.0000 C.ar    1  LIG1       -0.0003
     27 C           1.8080    1.8460    0.0000 C.ar    1  LIG1       -0.0042
@<TRIPOS>BOND
     1     1     2   am
     2     1    11    1
     3     1    20    1
     4     2     3    1
     5     2    10    2
     6     3     4   ar
     7     3     8   ar
     8     4     5   ar
     9     5     6   ar
    10     6     7   ar
    11     6     9    1
    12     7     8   ar
    13    11    12    1
    14    11    16    1
    15    12    13    1
    16    13    14    1
    17    13    18    1
    18    14    15    1
    19    14    19    1
    20    15    16    1
    21    15    17    1
    22    17    18    1
    23    20    21    1
    24    21    22    1
    25    22    23   ar
    26    22    27   ar
    27    23    24   ar
    28    24    25   ar
    29    25    26   ar
    30    26    27   ar
