@<TRIPOS>MOLECULE
32682_ChemDiv_6623-0976
 22 25 0 0 0
SMALL
GASTEIGER
Energy = 0

@<TRIPOS>ATOM
      1 C          -0.0210    0.1630    0.0000 C.ar    1  LIG1        0.1650
      2 C          -0.0330   -0.7630    0.0000 C.ar    1  LIG1        0.0509
      3 C          -1.5210   -0.7630    0.0000 C.ar    1  LIG1        0.0234
      4 C          -1.5210    0.1630    0.0000 C.ar    1  LIG1        0.0831
      5 N          -0.7670    0.6750    0.0000 N.ar    1  LIG1       -0.2265
      6 C          -2.4210    0.5460    0.0000 C.ar    1  LIG1        0.0177
      7 C          -3.2170   -0.0420    0.0000 C.ar    1  LIG1        0.0015
      8 C          -4.1290    0.3460    0.0000 C.ar    1  LIG1        0.0000
      9 C          -4.2710    1.3210    0.0000 C.ar    1  LIG1        0.0000
     10 C          -3.4630    1.9080    0.0000 C.ar    1  LIG1        0.0000
     11 C          -2.5500    1.5250    0.0000 C.ar    1  LIG1        0.0015
     12 C           0.8420   -1.2500    0.0000 C.ar    1  LIG1        0.0640
     13 N           1.6960   -0.7500    0.0000 N.ar    1  LIG1       -0.2308
     14 C           1.6960    0.2460    0.0000 C.ar    1  LIG1        0.1635
     15 N           0.8420    0.7420    0.0000 N.ar    1  LIG1       -0.2078
     16 C           2.5500    0.7540    0.0000 C.ar    1  LIG1        0.0358
     17 C           2.5500    1.7330    0.0000 C.ar    1  LIG1        0.0030
     18 C           3.4040    2.2420    0.0000 C.ar    1  LIG1        0.0001
     19 C           4.2670    1.7670    0.0000 C.ar    1  LIG1        0.0000
     20 C           4.2670    0.7710    0.0000 C.ar    1  LIG1        0.0001
     21 C           3.4080    0.2790    0.0000 C.ar    1  LIG1        0.0030
     22 C           0.8420   -2.2380    0.0000 C.3     1  LIG1        0.0523
@<TRIPOS>BOND
     1     1     2   ar
     2     1     5   ar
     3     1    15   ar
     4     2     3   ar
     5     2    12   ar
     6     3     4   ar
     7     4     5   ar
     8     4     6    1
     9     6     7   ar
    10     6    11   ar
    11     7     8   ar
    12     8     9   ar
    13     9    10   ar
    14    10    11   ar
    15    12    13   ar
    16    12    22    1
    17    13    14   ar
    18    14    15   ar
    19    14    16    1
    20    16    17   ar
    21    16    21   ar
    22    17    18   ar
    23    18    19   ar
    24    19    20   ar
    25    20    21   ar
