@<TRIPOS>MOLECULE
32693_ChemDiv_6331-2939
 17 19 0 0 0
SMALL
GASTEIGER
Energy = 0

@<TRIPOS>ATOM
      1 N          -0.9420    0.3170    0.0000 N.ar    1  LIG1       -0.2237
      2 C          -0.3630   -0.5000    0.0000 C.ar    1  LIG1        0.1623
      3 N          -0.9380   -1.3040    0.0000 N.ar    1  LIG1       -0.2250
      4 C          -1.8880   -0.9960    0.0000 C.ar    1  LIG1        0.1019
      5 C          -1.8920    0.0080    0.0000 C.ar    1  LIG1        0.1172
      6 C          -2.7670    0.5080    0.0000 C.ar    1  LIG1        0.1082
      7 N          -2.7750    1.5040    0.0000 N.pl3   1  LIG1       -0.1264
      8 C          -3.6380    0.0000    0.0000 C.ar    1  LIG1        0.0197
      9 C          -3.6250   -1.0000    0.0000 C.ar    1  LIG1        0.0030
     10 C          -2.7630   -1.5000    0.0000 C.ar    1  LIG1        0.0208
     11 C           0.6420   -0.5000    0.0000 C.ar    1  LIG1        0.0359
     12 C           1.1380   -1.3630    0.0000 C.ar    1  LIG1        0.0044
     13 C           2.1380   -1.3630    0.0000 C.ar    1  LIG1        0.0182
     14 C           2.6380   -0.4880    0.0000 C.ar    1  LIG1        0.0891
     15 N           3.6330   -0.4880    0.0000 N.pl3   1  LIG1       -0.1281
     16 C           2.1250    0.3710    0.0000 C.ar    1  LIG1        0.0182
     17 C           1.1290    0.3710    0.0000 C.ar    1  LIG1        0.0044
@<TRIPOS>BOND
     1     1     2   ar
     2     1     5   ar
     3     2     3   ar
     4     2    11    1
     5     3     4   ar
     6     4     5   ar
     7     4    10   ar
     8     5     6   ar
     9     6     7    1
    10     6     8   ar
    11     8     9   ar
    12     9    10   ar
    13    11    12   ar
    14    11    17   ar
    15    12    13   ar
    16    13    14   ar
    17    14    15    1
    18    14    16   ar
    19    16    17   ar
