@<TRIPOS>MOLECULE
32697_ChemDiv_6339-0312
 22 25 0 0 0
SMALL
GASTEIGER
Energy = 0

@<TRIPOS>ATOM
      1 N           0.8580    1.0040    0.0000 N.pl3   1  LIG1       -0.1807
      2 C           0.8580    2.0000    0.0000 C.2     1  LIG1        0.3229
      3 N           0.0000    2.5040    0.0000 N.2     1  LIG1       -0.0428
      4 C          -0.8630    2.0000    0.0000 C.ar    1  LIG1        0.1930
      5 C          -0.8630    1.0040    0.0000 C.ar    1  LIG1        0.0681
      6 C           0.0000    0.5040    0.0000 C.3     1  LIG1        0.2092
      7 C           0.0000   -0.4920    0.0000 C.ar    1  LIG1        0.0244
      8 C          -0.8670   -0.9920    0.0000 C.ar    1  LIG1       -0.0001
      9 C          -0.8670   -1.9960    0.0000 C.ar    1  LIG1       -0.0002
     10 C           0.0000   -2.5000    0.0000 C.ar    1  LIG1       -0.0000
     11 C           0.8710   -1.9880    0.0000 C.ar    1  LIG1       -0.0002
     12 C           0.8580   -0.9920    0.0000 C.ar    1  LIG1       -0.0001
     13 C          -1.7290    0.5040    0.0000 C.ar    1  LIG1        0.0150
     14 C          -2.5830    1.0040    0.0000 C.ar    1  LIG1        0.0577
     15 C          -2.5920    2.0040    0.0000 C.ar    1  LIG1        0.0152
     16 C          -1.7250    2.5000    0.0000 C.ar    1  LIG1        0.0472
     17 CL         -3.4630    0.4960    0.0000 Cl      1  LIG1       -0.0822
     18 C           1.7290    2.5000    0.0000 C.3     1  LIG1        0.2317
     19 N           2.5960    2.0000    0.0000 N.am    1  LIG1       -0.1888
     20 C           2.5960    0.9960    0.0000 C.2     1  LIG1        0.2897
     21 C           1.7210    0.4960    0.0000 C.3     1  LIG1        0.2899
     22 O           3.4580    0.4920    0.0000 O.2     1  LIG1       -0.2688
@<TRIPOS>BOND
     1     1     2    1
     2     1     6    1
     3     1    21    1
     4     2     3    2
     5     2    18    1
     6     3     4    1
     7     4     5   ar
     8     4    16   ar
     9     5     6    1
    10     5    13   ar
    11     6     7    1
    12     7     8   ar
    13     7    12   ar
    14     8     9   ar
    15     9    10   ar
    16    10    11   ar
    17    11    12   ar
    18    13    14   ar
    19    14    15   ar
    20    14    17    1
    21    15    16   ar
    22    18    19    1
    23    19    20   am
    24    20    21    1
    25    20    22    2
