@<TRIPOS>MOLECULE
32691_ChemDiv_K907-0203
 34 38 0 0 0
SMALL
GASTEIGER
Energy = 0

@<TRIPOS>ATOM
      1 N          -1.9630    1.9500    0.0000 N.ar    1  LIG1       -0.1876
      2 C          -2.8210    1.4500    0.0000 C.ar    1  LIG1        0.2034
      3 N          -3.5670    2.1210    0.0000 N.ar    1  LIG1       -0.0559
      4 O          -3.1670    3.0380    0.0000 O.2     1  LIG1       -0.3331
      5 C          -2.1710    2.9380    0.0000 C.ar    1  LIG1        0.2811
      6 C          -1.5130    3.7040    0.0000 C.3     1  LIG1        0.2923
      7 O          -0.5290    3.5080    0.0000 O.3     1  LIG1       -0.4654
      8 C           0.1250    4.2670    0.0000 C.ar    1  LIG1        0.1393
      9 C           1.0920    4.0830    0.0000 C.ar    1  LIG1        0.0366
     10 C           1.7420    4.8420    0.0000 C.ar    1  LIG1       -0.0012
     11 C           1.4080    5.7750    0.0000 C.ar    1  LIG1       -0.0220
     12 C           0.4420    5.9580    0.0000 C.ar    1  LIG1       -0.0012
     13 C          -0.2130    5.1960    0.0000 C.ar    1  LIG1        0.0366
     14 C           2.0540    6.5500    0.0000 C.3     1  LIG1        0.0264
     15 C           3.0460    6.3750    0.0000 C.3     1  LIG1        0.0047
     16 C           3.6790    7.1500    0.0000 C.3     1  LIG1        0.0004
     17 C          -2.8210    0.4460    0.0000 C.ar    1  LIG1        0.0392
     18 C          -1.9540   -0.0540    0.0000 C.ar    1  LIG1        0.0045
     19 C          -1.9540   -1.0540    0.0000 C.ar    1  LIG1        0.0167
     20 C          -2.8210   -1.5580    0.0000 C.ar    1  LIG1        0.0737
     21 N          -2.8210   -2.5580    0.0000 N.am    1  LIG1       -0.1754
     22 C          -1.9540   -3.0580    0.0000 C.2     1  LIG1        0.2691
     23 C          -1.9540   -4.0630    0.0000 C.ar    1  LIG1        0.0586
     24 C          -1.0960   -4.5630    0.0000 C.ar    1  LIG1        0.0448
     25 C          -1.0960   -5.5630    0.0000 C.ar    1  LIG1        0.1766
     26 C          -1.9540   -6.0670    0.0000 C.ar    1  LIG1        0.1764
     27 O          -1.7460   -7.0500    0.0000 O.3     1  LIG1       -0.4346
     28 C          -0.7630   -7.1500    0.0000 C.3     1  LIG1        0.4294
     29 O          -0.3460   -6.2330    0.0000 O.3     1  LIG1       -0.4346
     30 C          -2.8210   -5.5630    0.0000 C.ar    1  LIG1        0.0403
     31 C          -2.8210   -4.5630    0.0000 C.ar    1  LIG1        0.0079
     32 O          -1.0960   -2.5580    0.0000 O.2     1  LIG1       -0.2680
     33 C          -3.6830   -1.0540    0.0000 C.ar    1  LIG1        0.0167
     34 C          -3.6830   -0.0540    0.0000 C.ar    1  LIG1        0.0045
@<TRIPOS>BOND
     1     1     2   ar
     2     1     5   ar
     3     2     3   ar
     4     2    17    1
     5     3     4   ar
     6     4     5   ar
     7     5     6    1
     8     6     7    1
     9     7     8    1
    10     8     9   ar
    11     8    13   ar
    12     9    10   ar
    13    10    11   ar
    14    11    12   ar
    15    11    14    1
    16    12    13   ar
    17    14    15    1
    18    15    16    1
    19    17    18   ar
    20    17    34   ar
    21    18    19   ar
    22    19    20   ar
    23    20    21    1
    24    20    33   ar
    25    21    22   am
    26    22    23    1
    27    22    32    2
    28    23    24   ar
    29    23    31   ar
    30    24    25   ar
    31    25    26   ar
    32    25    29    1
    33    26    27    1
    34    26    30   ar
    35    27    28    1
    36    28    29    1
    37    30    31   ar
    38    33    34   ar
