@<TRIPOS>MOLECULE
32702_ChemDiv_6466-1252
 27 29 0 0 0
SMALL
GASTEIGER
Energy = 0

@<TRIPOS>ATOM
      1 C           1.2750   -1.8630    0.0000 C.ar    1  LIG1        0.2405
      2 N           1.8580   -2.6790    0.0000 N.ar    1  LIG1       -0.1849
      3 C           2.8040   -2.3630    0.0000 C.ar    1  LIG1        0.2547
      4 N           2.8040   -1.3710    0.0000 N.ar    1  LIG1       -0.1934
      5 N           1.8580   -1.0500    0.0000 N.ar    1  LIG1       -0.1381
      6 C           3.6790   -0.8580    0.0000 C.ar    1  LIG1        0.1052
      7 C           4.5420   -1.3710    0.0000 C.ar    1  LIG1        0.0415
      8 C           4.5420   -2.3630    0.0000 C.ar    1  LIG1        0.1037
      9 N           3.6790   -2.8670    0.0000 N.ar    1  LIG1       -0.2084
     10 C           0.2710   -1.8630    0.0000 C.2     1  LIG1        0.3072
     11 N          -0.2210   -1.0000    0.0000 N.am    1  LIG1       -0.1660
     12 C          -1.2290   -1.0000    0.0000 C.ar    1  LIG1        0.1092
     13 C          -1.7250   -0.1330    0.0000 C.ar    1  LIG1        0.0937
     14 C          -2.7000   -0.3630    0.0000 C.ar    1  LIG1       -0.0033
     15 C          -2.8080   -1.3250    0.0000 C.ar    1  LIG1        0.0835
     16 S          -1.8920   -1.7500    0.0000 S.2     1  LIG1       -0.0659
     17 C          -3.6920   -1.8380    0.0000 C.2     1  LIG1        0.2899
     18 O          -3.7080   -2.8330    0.0000 O.2     1  LIG1       -0.2661
     19 N          -4.5460   -1.3130    0.0000 N.am    1  LIG1       -0.0833
     20 C          -3.4420    0.3130    0.0000 C.3     1  LIG1        0.0320
     21 C          -1.3210    0.7920    0.0000 C.2     1  LIG1        0.3427
     22 O          -1.9250    1.6040    0.0000 O.2     1  LIG1       -0.2448
     23 O          -0.3170    0.9250    0.0000 O.3     1  LIG1       -0.4454
     24 C           0.0670    1.8210    0.0000 C.3     1  LIG1        0.2088
     25 C           1.0540    1.9630    0.0000 C.3     1  LIG1        0.0475
     26 C           1.4540    2.8710    0.0000 C.3     1  LIG1        0.0040
     27 O          -0.2210   -2.7130    0.0000 O.2     1  LIG1       -0.2645
@<TRIPOS>BOND
     1     1     2   ar
     2     1     5   ar
     3     1    10    1
     4     2     3   ar
     5     3     4   ar
     6     3     9   ar
     7     4     5   ar
     8     4     6   ar
     9     6     7   ar
    10     7     8   ar
    11     8     9   ar
    12    10    11   am
    13    10    27    2
    14    11    12    1
    15    12    13   ar
    16    12    16   ar
    17    13    14   ar
    18    13    21    1
    19    14    15   ar
    20    14    20    1
    21    15    16   ar
    22    15    17    1
    23    17    18    2
    24    17    19   am
    25    21    22    2
    26    21    23    1
    27    23    24    1
    28    24    25    1
    29    25    26    1
