@<TRIPOS>MOLECULE
32706_ChemDiv_6623-1602
 28 31 0 0 0
SMALL
GASTEIGER
Energy = 0

@<TRIPOS>ATOM
      1 C           0.2130   -0.8580    0.0000 C.2     1  LIG1        0.2490
      2 N          -0.0920    0.0670    0.0000 N.am    1  LIG1       -0.2769
      3 C          -1.0790    0.2710    0.0000 C.3     1  LIG1        0.0871
      4 C          -1.7170   -0.1420    0.0000 C.3     1  LIG1        0.0767
      5 C          -2.7380    0.4880    0.0000 C.3     1  LIG1        0.0888
      6 N          -2.6420    1.8420    0.0000 N.4     1  LIG1        0.3735
      7 C          -2.4920    0.9170    0.0000 C.3     1  LIG1        0.0888
      8 C          -1.4210    0.9040    0.0000 C.3     1  LIG1        0.0767
      9 C          -3.6000    0.4880    0.0000 C.3     1  LIG1        0.0627
     10 C          -3.8920    0.0250    0.0000 C.3     1  LIG1        0.0627
     11 C          -2.6630    2.8250    0.0000 C.3     1  LIG1        0.2016
     12 C           0.5880    0.7960    0.0000 C.3     1  LIG1        0.0983
     13 C           1.5630    0.5920    0.0000 C.3     1  LIG1        0.0478
     14 C           2.2290    1.3330    0.0000 C.ar    1  LIG1       -0.0205
     15 C           3.2040    1.1380    0.0000 C.ar    1  LIG1       -0.0042
     16 C           3.8880    1.8710    0.0000 C.ar    1  LIG1       -0.0003
     17 C           3.5920    2.8290    0.0000 C.ar    1  LIG1       -0.0000
     18 C           2.6040    3.0460    0.0000 C.ar    1  LIG1       -0.0003
     19 C           1.9380    2.3080    0.0000 C.ar    1  LIG1       -0.0042
     20 C           1.1920   -1.0670    0.0000 C.ar    1  LIG1        0.0530
     21 C           1.8540   -0.2670    0.0000 C.ar    1  LIG1        0.0002
     22 C           2.8420   -0.4500    0.0000 C.ar    1  LIG1       -0.0220
     23 C           3.1830   -1.4080    0.0000 C.ar    1  LIG1       -0.0085
     24 C           2.5250   -2.1170    0.0000 C.ar    1  LIG1       -0.0220
     25 C           1.5460   -1.9710    0.0000 C.ar    1  LIG1        0.0002
     26 C           2.8880   -3.0420    0.0000 C.3     1  LIG1        0.0310
     27 C           3.4750    0.3170    0.0000 C.3     1  LIG1        0.0310
     28 O          -0.4710   -1.6170    0.0000 O.2     1  LIG1       -0.2699
@<TRIPOS>BOND
     1     1     2   am
     2     1    20    1
     3     1    28    2
     4     2     3    1
     5     2    12    1
     6     3     4    1
     7     3     8    1
     8     4     5    1
     9     5     6    1
    10     5    10    1
    11     6     7    1
    12     6    11    1
    13     7     8    1
    14     7     9    1
    15     9    10    1
    16    12    13    1
    17    13    14    1
    18    14    15   ar
    19    14    19   ar
    20    15    16   ar
    21    16    17   ar
    22    17    18   ar
    23    18    19   ar
    24    20    21   ar
    25    20    25   ar
    26    21    22   ar
    27    22    23   ar
    28    22    27    1
    29    23    24   ar
    30    24    25   ar
    31    24    26    1
