@<TRIPOS>MOLECULE
32704_ChemDiv_7213-0469
 29 31 0 0 0
SMALL
GASTEIGER
Energy = 0

@<TRIPOS>ATOM
      1 C           1.7210   -1.2250    0.0000 C.ar    1  LIG1        0.2405
      2 N           2.2920   -2.0460    0.0000 N.ar    1  LIG1       -0.1849
      3 C           3.2420   -1.7330    0.0000 C.ar    1  LIG1        0.2547
      4 N           3.2420   -0.7170    0.0000 N.ar    1  LIG1       -0.1934
      5 N           2.2920   -0.4330    0.0000 N.ar    1  LIG1       -0.1381
      6 C           4.1040   -0.2420    0.0000 C.ar    1  LIG1        0.1052
      7 C           4.9790   -0.7330    0.0000 C.ar    1  LIG1        0.0415
      8 C           4.9790   -1.7130    0.0000 C.ar    1  LIG1        0.1037
      9 N           4.1040   -2.2210    0.0000 N.ar    1  LIG1       -0.2084
     10 C           0.7130   -1.2250    0.0000 C.2     1  LIG1        0.3072
     11 N           0.2130   -0.3830    0.0000 N.am    1  LIG1       -0.1660
     12 C          -0.7880   -0.3830    0.0000 C.ar    1  LIG1        0.1092
     13 C          -1.2880    0.4920    0.0000 C.ar    1  LIG1        0.0937
     14 C          -2.2710    0.2790    0.0000 C.ar    1  LIG1       -0.0034
     15 C          -2.3710   -0.7170    0.0000 C.ar    1  LIG1        0.0805
     16 S          -1.4580   -1.1170    0.0000 S.2     1  LIG1       -0.0660
     17 C          -3.2460   -1.2080    0.0000 C.2     1  LIG1        0.2548
     18 N          -4.1170   -0.7170    0.0000 N.am    1  LIG1       -0.2757
     19 C          -4.9830   -1.2080    0.0000 C.3     1  LIG1        0.0938
     20 C          -4.9830   -2.2210    0.0000 C.3     1  LIG1        0.0233
     21 C          -4.1170    0.2790    0.0000 C.3     1  LIG1        0.0938
     22 C          -4.9830    0.7960    0.0000 C.3     1  LIG1        0.0233
     23 O          -3.2630   -2.2080    0.0000 O.2     1  LIG1       -0.2694
     24 C          -3.0170    0.9420    0.0000 C.3     1  LIG1        0.0320
     25 C          -0.8750    1.4170    0.0000 C.2     1  LIG1        0.3428
     26 O           0.1210    1.5130    0.0000 O.2     1  LIG1       -0.2448
     27 O          -1.4580    2.2250    0.0000 O.3     1  LIG1       -0.4413
     28 C          -2.4710    2.1500    0.0000 C.3     1  LIG1        0.2560
     29 O           0.2210   -2.1130    0.0000 O.2     1  LIG1       -0.2645
@<TRIPOS>BOND
     1     1     2   ar
     2     1     5   ar
     3     1    10    1
     4     2     3   ar
     5     3     4   ar
     6     3     9   ar
     7     4     5   ar
     8     4     6   ar
     9     6     7   ar
    10     7     8   ar
    11     8     9   ar
    12    10    11   am
    13    10    29    2
    14    11    12    1
    15    12    13   ar
    16    12    16   ar
    17    13    14   ar
    18    13    25    1
    19    14    15   ar
    20    14    24    1
    21    15    16   ar
    22    15    17    1
    23    17    18   am
    24    17    23    2
    25    18    19    1
    26    18    21    1
    27    19    20    1
    28    21    22    1
    29    25    26    2
    30    25    27    1
    31    27    28    1
