@<TRIPOS>MOLECULE
32709_ChemDiv_6228-1069
 27 30 0 0 0
SMALL
GASTEIGER
Energy = 0

@<TRIPOS>ATOM
      1 N          -1.1080    2.6130    0.0000 N.pl3   1  LIG1       -0.2093
      2 N          -1.9130    3.1920    0.0000 N.2     1  LIG1       -0.1864
      3 C          -2.7170    2.6130    0.0000 C.2     1  LIG1        0.0566
      4 C          -2.4000    1.5580    0.0000 C.3     1  LIG1        0.0692
      5 C          -1.4130    1.6580    0.0000 C.3     1  LIG1        0.1240
      6 C          -0.8290    0.8540    0.0000 C.ar    1  LIG1       -0.0019
      7 C          -1.2420   -0.0580    0.0000 C.ar    1  LIG1        0.0005
      8 C          -0.6580   -0.8630    0.0000 C.ar    1  LIG1        0.0366
      9 C           0.3330   -0.7630    0.0000 C.ar    1  LIG1        0.1393
     10 O           0.9210   -1.5710    0.0000 O.3     1  LIG1       -0.4656
     11 C           0.5080   -2.4830    0.0000 C.3     1  LIG1        0.2896
     12 C           1.0920   -3.2920    0.0000 C.2     1  LIG1        0.2702
     13 N           2.0830   -3.1880    0.0000 N.am    1  LIG1       -0.2765
     14 C           2.5790   -4.0540    0.0000 C.3     1  LIG1        0.0936
     15 C           3.5540   -3.8540    0.0000 C.3     1  LIG1        0.0233
     16 C           3.6580   -2.8630    0.0000 C.3     1  LIG1        0.0233
     17 C           2.7500   -2.4540    0.0000 C.3     1  LIG1        0.0936
     18 O           0.6880   -4.2040    0.0000 O.2     1  LIG1       -0.2708
     19 C           0.7420    0.1500    0.0000 C.ar    1  LIG1        0.0366
     20 C           0.1540    0.9580    0.0000 C.ar    1  LIG1        0.0005
     21 C          -3.6630    2.9210    0.0000 C.3     1  LIG1        0.0490
     22 C          -0.1540    2.9210    0.0000 C.ar    1  LIG1        0.0693
     23 C           0.5830    2.2500    0.0000 C.ar    1  LIG1        0.0163
     24 C           1.5290    2.5580    0.0000 C.ar    1  LIG1        0.0013
     25 C           1.7380    3.5290    0.0000 C.ar    1  LIG1        0.0001
     26 C           0.9920    4.2040    0.0000 C.ar    1  LIG1        0.0013
     27 C           0.0460    3.8880    0.0000 C.ar    1  LIG1        0.0163
@<TRIPOS>BOND
     1     1     2    1
     2     1     5    1
     3     1    22    1
     4     2     3    2
     5     3     4    1
     6     3    21    1
     7     4     5    1
     8     5     6    1
     9     6     7   ar
    10     6    20   ar
    11     7     8   ar
    12     8     9   ar
    13     9    10    1
    14     9    19   ar
    15    10    11    1
    16    11    12    1
    17    12    13   am
    18    12    18    2
    19    13    14    1
    20    13    17    1
    21    14    15    1
    22    15    16    1
    23    16    17    1
    24    19    20   ar
    25    22    23   ar
    26    22    27   ar
    27    23    24   ar
    28    24    25   ar
    29    25    26   ar
    30    26    27   ar
