@<TRIPOS>MOLECULE
32707_ChemDiv_6228-0848
 22 24 0 0 0
SMALL
GASTEIGER
Energy = 0

@<TRIPOS>ATOM
      1 C           0.4290    1.4960    0.0000 C.3     1  LIG1        0.0623
      2 C           1.2960    2.0080    0.0000 C.2     1  LIG1        0.0538
      3 O           1.2880    3.0000    0.0000 O.co2   1  LIG1       -0.5489
      4 O           2.1630    1.5080    0.0000 O.co2   1  LIG1       -0.5489
      5 C          -0.4330    0.9920    0.0000 C.3     1  LIG1        0.0722
      6 C          -0.4330   -0.0080    0.0000 C.3     1  LIG1        0.1397
      7 N           0.4290   -0.5040    0.0000 N.4     1  LIG1        0.3807
      8 C           1.2960   -0.0080    0.0000 C.3     1  LIG1        0.1397
      9 C           1.2960    0.9920    0.0000 C.3     1  LIG1        0.0722
     10 C           0.4290   -1.5080    0.0000 C.3     1  LIG1        0.1662
     11 C          -0.4380   -2.0130    0.0000 C.ar    1  LIG1        0.0344
     12 C          -0.4330   -3.0040    0.0000 C.ar    1  LIG1        0.0014
     13 C          -1.2920   -3.5080    0.0000 C.ar    1  LIG1       -0.0001
     14 C          -2.1670   -3.0080    0.0000 C.ar    1  LIG1       -0.0000
     15 C          -2.1670   -2.0130    0.0000 C.ar    1  LIG1       -0.0001
     16 C          -1.3000   -1.5080    0.0000 C.ar    1  LIG1        0.0014
     17 C          -0.4290    1.9960    0.0000 C.ar    1  LIG1       -0.0175
     18 C          -1.2920    1.5080    0.0000 C.ar    1  LIG1       -0.0039
     19 C          -2.1540    2.0130    0.0000 C.ar    1  LIG1       -0.0003
     20 C          -2.1500    3.0130    0.0000 C.ar    1  LIG1       -0.0000
     21 C          -1.2790    3.5130    0.0000 C.ar    1  LIG1       -0.0003
     22 C          -0.4130    3.0000    0.0000 C.ar    1  LIG1       -0.0039
@<TRIPOS>BOND
     1     1     2    1
     2     1     5    1
     3     1     9    1
     4     1    17    1
     5     2     3   ar
     6     2     4   ar
     7     5     6    1
     8     6     7    1
     9     7     8    1
    10     7    10    1
    11     8     9    1
    12    10    11    1
    13    11    12   ar
    14    11    16   ar
    15    12    13   ar
    16    13    14   ar
    17    14    15   ar
    18    15    16   ar
    19    17    18   ar
    20    17    22   ar
    21    18    19   ar
    22    19    20   ar
    23    20    21   ar
    24    21    22   ar
