@<TRIPOS>MOLECULE
32701_ChemDiv_6364-0117
 18 20 0 0 0
SMALL
GASTEIGER
Energy = 0

@<TRIPOS>ATOM
      1 C           2.0580    0.2000    0.0000 C.ar    1  LIG1        0.1516
      2 C           3.0250    0.4580    0.0000 C.ar    1  LIG1        0.1861
      3 N           3.0790    1.4540    0.0000 N.ar    1  LIG1       -0.2032
      4 C           2.1500    1.8170    0.0000 C.ar    1  LIG1        0.2005
      5 N           1.5170    1.0460    0.0000 N.ar    1  LIG1       -0.2179
      6 N           3.7330   -0.2500    0.0000 N.ar    1  LIG1       -0.2031
      7 C           3.4750   -1.2040    0.0000 C.ar    1  LIG1        0.2016
      8 N           2.5040   -1.4630    0.0000 N.ar    1  LIG1       -0.2059
      9 C           1.7960   -0.7670    0.0000 C.ar    1  LIG1        0.1704
     10 N           0.8290   -1.0250    0.0000 N.pl3   1  LIG1       -0.2141
     11 C           0.1210   -0.3170    0.0000 C.3     1  LIG1        0.1402
     12 C          -0.8290   -0.5830    0.0000 C.ar    1  LIG1       -0.0005
     13 C          -1.0880   -1.5540    0.0000 C.ar    1  LIG1       -0.0017
     14 C          -2.0540   -1.8130    0.0000 C.ar    1  LIG1        0.0111
     15 C          -2.7630   -1.1130    0.0000 C.ar    1  LIG1        0.0577
     16 CL         -3.7380   -1.3880    0.0000 Cl      1  LIG1       -0.0822
     17 C          -2.4920   -0.1290    0.0000 C.ar    1  LIG1        0.0111
     18 C          -1.5380    0.1250    0.0000 C.ar    1  LIG1       -0.0017
@<TRIPOS>BOND
     1     1     2   ar
     2     1     5   ar
     3     1     9   ar
     4     2     3   ar
     5     2     6   ar
     6     3     4   ar
     7     4     5   ar
     8     6     7   ar
     9     7     8   ar
    10     8     9   ar
    11     9    10    1
    12    10    11    1
    13    11    12    1
    14    12    13   ar
    15    12    18   ar
    16    13    14   ar
    17    14    15   ar
    18    15    16    1
    19    15    17   ar
    20    17    18   ar
