@<TRIPOS>MOLECULE
32703_ChemDiv_C143-0034
 18 20 0 0 0
SMALL
GASTEIGER
Energy = 0

@<TRIPOS>ATOM
      1 C           0.0960   -2.2540    0.0000 C.ar    1  LIG1        0.1516
      2 C           0.0960   -3.2540    0.0000 C.ar    1  LIG1        0.1861
      3 N           1.0460   -3.5630    0.0000 N.ar    1  LIG1       -0.2032
      4 C           1.6290   -2.7580    0.0000 C.ar    1  LIG1        0.2005
      5 N           1.0460   -1.9420    0.0000 N.ar    1  LIG1       -0.2179
      6 N          -0.7670   -3.7540    0.0000 N.ar    1  LIG1       -0.2031
      7 C          -1.6330   -3.2540    0.0000 C.ar    1  LIG1        0.2016
      8 N          -1.6330   -2.2540    0.0000 N.ar    1  LIG1       -0.2059
      9 C          -0.7670   -1.7540    0.0000 C.ar    1  LIG1        0.1704
     10 N          -0.7670   -0.7540    0.0000 N.pl3   1  LIG1       -0.2141
     11 C           0.0960   -0.2500    0.0000 C.3     1  LIG1        0.1402
     12 C           0.0960    0.7500    0.0000 C.ar    1  LIG1       -0.0005
     13 C          -0.7670    1.2540    0.0000 C.ar    1  LIG1       -0.0002
     14 C          -0.7670    2.2540    0.0000 C.ar    1  LIG1        0.0294
     15 C           0.0960    2.7580    0.0000 C.ar    1  LIG1        0.1401
     16 F           0.0960    3.7580    0.0000 F       1  LIG1       -0.2042
     17 C           0.9630    2.2540    0.0000 C.ar    1  LIG1        0.0294
     18 C           0.9630    1.2540    0.0000 C.ar    1  LIG1       -0.0002
@<TRIPOS>BOND
     1     1     2   ar
     2     1     5   ar
     3     1     9   ar
     4     2     3   ar
     5     2     6   ar
     6     3     4   ar
     7     4     5   ar
     8     6     7   ar
     9     7     8   ar
    10     8     9   ar
    11     9    10    1
    12    10    11    1
    13    11    12    1
    14    12    13   ar
    15    12    18   ar
    16    13    14   ar
    17    14    15   ar
    18    15    16    1
    19    15    17   ar
    20    17    18   ar
