@<TRIPOS>MOLECULE
32715_ChemDiv_6228-1455
 28 32 0 0 0
SMALL
GASTEIGER
Energy = 0

@<TRIPOS>ATOM
      1 C           0.2880   -1.3040    0.0000 C.ar    1  LIG1        0.2001
      2 C           0.4460   -2.2670    0.0000 C.2     1  LIG1        0.3037
      3 N          -0.0130   -3.2040    0.0000 N.am    1  LIG1       -0.1727
      4 C          -0.9170   -3.2290    0.0000 C.ar    1  LIG1        0.0770
      5 C          -1.3210   -4.1080    0.0000 C.ar    1  LIG1        0.0568
      6 C          -2.2830   -4.2000    0.0000 C.ar    1  LIG1        0.1777
      7 C          -2.8420   -3.4130    0.0000 C.ar    1  LIG1        0.1765
      8 O          -3.7630   -3.7000    0.0000 O.3     1  LIG1       -0.4346
      9 C          -3.7750   -4.6630    0.0000 C.3     1  LIG1        0.4294
     10 O          -2.8630   -4.9710    0.0000 O.3     1  LIG1       -0.4346
     11 C          -2.4380   -2.5330    0.0000 C.ar    1  LIG1        0.0415
     12 C          -1.4790   -2.4420    0.0000 C.ar    1  LIG1        0.0199
     13 O           1.4130   -2.1540    0.0000 O.2     1  LIG1       -0.2646
     14 O           0.5830   -0.3790    0.0000 O.2     1  LIG1       -0.4494
     15 C          -0.1920    0.1830    0.0000 C.ar    1  LIG1        0.1670
     16 C          -0.9750   -0.3790    0.0000 C.ar    1  LIG1        0.0401
     17 C          -0.6790   -1.3040    0.0000 C.ar    1  LIG1        0.0452
     18 C           0.0960    1.0580    0.0000 C.3     1  LIG1        0.2689
     19 O           1.0380    1.2540    0.0000 O.3     1  LIG1       -0.4673
     20 C           1.3380    2.1750    0.0000 C.ar    1  LIG1        0.1389
     21 C           2.2880    2.3710    0.0000 C.ar    1  LIG1        0.0323
     22 C           2.5920    3.2920    0.0000 C.ar    1  LIG1       -0.0231
     23 C           1.9460    4.0000    0.0000 C.ar    1  LIG1       -0.0259
     24 C           0.9960    3.8130    0.0000 C.ar    1  LIG1       -0.0015
     25 C           0.6960    2.8920    0.0000 C.ar    1  LIG1        0.0366
     26 C           2.2460    4.9170    0.0000 C.3     1  LIG1        0.0264
     27 C           3.7710    4.9710    0.0000 C.3     1  LIG1        0.0093
     28 C           3.5330    3.4830    0.0000 C.3     1  LIG1        0.0265
@<TRIPOS>BOND
     1     1     2    1
     2     1    14   ar
     3     1    17   ar
     4     2     3   am
     5     2    13    2
     6     3     4    1
     7     4     5   ar
     8     4    12   ar
     9     5     6   ar
    10     6     7   ar
    11     6    10    1
    12     7     8    1
    13     7    11   ar
    14     8     9    1
    15     9    10    1
    16    11    12   ar
    17    14    15   ar
    18    15    16   ar
    19    15    18    1
    20    16    17   ar
    21    18    19    1
    22    19    20    1
    23    20    21   ar
    24    20    25   ar
    25    21    22   ar
    26    22    23   ar
    27    22    28    1
    28    23    24   ar
    29    23    26    1
    30    24    25   ar
    31    26    27    1
    32    27    28    1
