@<TRIPOS>MOLECULE
32717_ChemDiv_6232-1382
 18 19 0 0 0
SMALL
GASTEIGER
Energy = 0

@<TRIPOS>ATOM
      1 C          -0.9960    1.7420    0.0000 C.2     1  LIG1        0.0544
      2 C          -0.5000    0.8580    0.0000 C.3     1  LIG1        0.0631
      3 C           0.5000    0.8580    0.0000 C.3     1  LIG1        0.0363
      4 C           1.0000    0.0040    0.0000 C.ar    1  LIG1       -0.0214
      5 C           2.0000    0.0040    0.0000 C.ar    1  LIG1       -0.0029
      6 C           2.4960   -0.8500    0.0000 C.ar    1  LIG1        0.0177
      7 C           2.0000   -1.7330    0.0000 C.ar    1  LIG1        0.0891
      8 N           2.5170   -2.5880    0.0000 N.pl3   1  LIG1       -0.1281
      9 C           1.0000   -1.7330    0.0000 C.ar    1  LIG1        0.0177
     10 C           0.5000   -0.8500    0.0000 C.ar    1  LIG1       -0.0029
     11 C          -1.0210    0.0040    0.0000 C.ar    1  LIG1       -0.0169
     12 C          -0.5170   -0.8830    0.0000 C.ar    1  LIG1       -0.0039
     13 C          -1.0210   -1.7330    0.0000 C.ar    1  LIG1       -0.0003
     14 C          -2.0170   -1.7330    0.0000 C.ar    1  LIG1       -0.0000
     15 C          -2.5210   -0.8830    0.0000 C.ar    1  LIG1       -0.0003
     16 C          -2.0170    0.0040    0.0000 C.ar    1  LIG1       -0.0039
     17 O          -1.9960    1.7420    0.0000 O.co2   1  LIG1       -0.5488
     18 O          -0.5000    2.5920    0.0000 O.co2   1  LIG1       -0.5488
@<TRIPOS>BOND
     1     1     2    1
     2     1    17   ar
     3     1    18   ar
     4     2     3    1
     5     2    11    1
     6     3     4    1
     7     4     5   ar
     8     4    10   ar
     9     5     6   ar
    10     6     7   ar
    11     7     8    1
    12     7     9   ar
    13     9    10   ar
    14    11    12   ar
    15    11    16   ar
    16    12    13   ar
    17    13    14   ar
    18    14    15   ar
    19    15    16   ar
