@<TRIPOS>MOLECULE
32711_ChemDiv_6228-1211
 21 24 0 0 0
SMALL
GASTEIGER
Energy = 0

@<TRIPOS>ATOM
      1 C          -0.3830   -0.2540    0.0000 C.ar    1  LIG1        0.0889
      2 C           0.4580    0.2170    0.0000 C.ar    1  LIG1        0.1437
      3 N           1.1710   -0.4330    0.0000 N.ar    1  LIG1       -0.2194
      4 N           0.7750   -1.3130    0.0000 N.ar    1  LIG1       -0.1688
      5 C          -0.2000   -1.2080    0.0000 C.ar    1  LIG1        0.0845
      6 C          -0.8500   -1.9170    0.0000 C.3     1  LIG1        0.0539
      7 C           1.8210    0.2830    0.0000 C.ar    1  LIG1        0.0837
      8 C           1.5250    1.2040    0.0000 C.ar    1  LIG1        0.0192
      9 C           2.1710    1.9210    0.0000 C.ar    1  LIG1        0.0015
     10 C           3.1130    1.7170    0.0000 C.ar    1  LIG1        0.0001
     11 C           3.4250    0.8000    0.0000 C.ar    1  LIG1        0.0015
     12 C           2.7670    0.0750    0.0000 C.ar    1  LIG1        0.0192
     13 CL          0.5500    1.1880    0.0000 Cl      1  LIG1       -0.0613
     14 C          -1.2130   -0.0290    0.0000 C.3     1  LIG1        0.1796
     15 N          -1.7540   -0.6790    0.0000 N.3     1  LIG1       -0.2207
     16 C          -2.5170   -0.0670    0.0000 C.3     1  LIG1        0.1402
     17 C          -2.3000    0.8330    0.0000 C.3     1  LIG1        0.1585
     18 N          -1.3380    0.9330    0.0000 N.4     1  LIG1        0.3892
     19 C          -1.9750    1.4380    0.0000 C.3     1  LIG1        0.1422
     20 C          -3.4290    0.7080    0.0000 C.3     1  LIG1        0.0803
     21 C          -2.7000   -0.6130    0.0000 C.3     1  LIG1        0.0839
@<TRIPOS>BOND
     1     1     2   ar
     2     1     5   ar
     3     1    14    1
     4     2     3   ar
     5     2    13    1
     6     3     4   ar
     7     3     7    1
     8     4     5   ar
     9     5     6    1
    10     7     8   ar
    11     7    12   ar
    12     8     9   ar
    13     9    10   ar
    14    10    11   ar
    15    11    12   ar
    16    14    15    1
    17    14    18    1
    18    15    16    1
    19    15    21    1
    20    16    17    1
    21    17    18    1
    22    18    19    1
    23    19    20    1
    24    20    21    1
