@<TRIPOS>MOLECULE
32718_ChemDiv_6665-0465
 24 26 0 0 0
SMALL
GASTEIGER
Energy = 0

@<TRIPOS>ATOM
      1 N          -0.6790    0.8250    0.0000 N.ar    1  LIG1       -0.2612
      2 C          -0.1830   -0.0380    0.0000 C.2     1  LIG1        0.2656
      3 C          -0.6790   -0.9000    0.0000 C.ar    1  LIG1        0.0576
      4 C          -0.1710   -1.7670    0.0000 C.ar    1  LIG1        0.0186
      5 C           0.8290   -1.7500    0.0000 C.2     1  LIG1        0.0730
      6 O           1.3170   -0.8880    0.0000 O.co2   1  LIG1       -0.5446
      7 O           1.3330   -2.6130    0.0000 O.co2   1  LIG1       -0.5446
      8 C          -0.6670   -2.6290    0.0000 C.ar    1  LIG1        0.0013
      9 C          -1.6630   -2.6380    0.0000 C.ar    1  LIG1        0.0000
     10 C          -2.1710   -1.7670    0.0000 C.ar    1  LIG1        0.0002
     11 C          -1.6710   -0.9000    0.0000 C.ar    1  LIG1        0.0048
     12 O           0.8170   -0.0380    0.0000 O.2     1  LIG1       -0.2666
     13 C          -0.0920    1.6290    0.0000 C.ar    1  LIG1        0.1264
     14 N          -0.6710    2.4460    0.0000 N.ar    1  LIG1       -0.2305
     15 C          -1.6330    2.1420    0.0000 C.ar    1  LIG1        0.0987
     16 C          -1.6330    1.1290    0.0000 C.ar    1  LIG1        0.0855
     17 C          -2.5040    0.6330    0.0000 C.ar    1  LIG1        0.0192
     18 C          -3.3670    1.1290    0.0000 C.ar    1  LIG1        0.0016
     19 C          -3.3670    2.1420    0.0000 C.ar    1  LIG1        0.0016
     20 C          -2.5040    2.6420    0.0000 C.ar    1  LIG1        0.0206
     21 C           0.7750    2.1290    0.0000 C.3     1  LIG1        0.0644
     22 C           1.6380    1.6290    0.0000 C.3     1  LIG1        0.0079
     23 C           2.5000    2.1330    0.0000 C.3     1  LIG1        0.0005
     24 C           3.3630    1.6420    0.0000 C.3     1  LIG1        0.0000
@<TRIPOS>BOND
     1     1     2   am
     2     1    13   ar
     3     1    16   ar
     4     2     3    1
     5     2    12    2
     6     3     4   ar
     7     3    11   ar
     8     4     5    1
     9     4     8   ar
    10     5     6   ar
    11     5     7   ar
    12     8     9   ar
    13     9    10   ar
    14    10    11   ar
    15    13    14   ar
    16    13    21    1
    17    14    15   ar
    18    15    16   ar
    19    15    20   ar
    20    16    17   ar
    21    17    18   ar
    22    18    19   ar
    23    19    20   ar
    24    21    22    1
    25    22    23    1
    26    23    24    1
