@<TRIPOS>MOLECULE
32729_ChemDiv_6391-0280
 36 40 0 0 0
SMALL
GASTEIGER
Energy = 0

@<TRIPOS>ATOM
      1 N          -1.7000    0.1580    0.0000 N.am    1  LIG1       -0.2263
      2 C          -1.9130   -0.8250    0.0000 C.ar    1  LIG1        0.1694
      3 S          -2.8380   -1.2290    0.0000 S.2     1  LIG1       -0.0450
      4 C          -2.7460   -2.2170    0.0000 C.ar    1  LIG1        0.1211
      5 C          -1.7630   -2.4460    0.0000 C.ar    1  LIG1        0.0736
      6 N          -1.2500   -1.5710    0.0000 N.ar    1  LIG1       -0.2279
      7 C          -1.3580   -3.3500    0.0000 C.3     1  LIG1        0.0529
      8 C          -3.4790   -2.8960    0.0000 C.2     1  LIG1        0.3486
      9 O          -4.4330   -2.5790    0.0000 O.2     1  LIG1       -0.2443
     10 O          -3.2790   -3.8630    0.0000 O.3     1  LIG1       -0.4451
     11 C          -2.3420   -4.1750    0.0000 C.3     1  LIG1        0.2089
     12 C          -2.1250   -5.1420    0.0000 C.3     1  LIG1        0.0513
     13 C          -2.3830    0.9210    0.0000 C.2     1  LIG1        0.2892
     14 C          -1.8710    1.7750    0.0000 C.ar    1  LIG1        0.1998
     15 C          -0.8880    1.5670    0.0000 C.ar    1  LIG1        0.0784
     16 C          -0.7790    0.5630    0.0000 C.3     1  LIG1        0.1332
     17 C           0.0880    0.0750    0.0000 C.ar    1  LIG1        0.0035
     18 C           0.9500    0.5790    0.0000 C.ar    1  LIG1        0.0346
     19 C           1.8250    0.0750    0.0000 C.ar    1  LIG1        0.1383
     20 O           2.6790    0.5880    0.0000 O.3     1  LIG1       -0.4755
     21 C           3.5540    0.0880    0.0000 C.3     1  LIG1        0.2054
     22 C           3.5670   -0.9170    0.0000 C.3     1  LIG1        0.0473
     23 C           4.4290   -1.4080    0.0000 C.3     1  LIG1        0.0040
     24 C           1.8250   -0.9380    0.0000 C.ar    1  LIG1        0.0369
     25 C           0.9500   -1.4290    0.0000 C.ar    1  LIG1        0.0029
     26 C           0.0880   -0.9380    0.0000 C.ar    1  LIG1       -0.0021
     27 C          -0.2250    2.3080    0.0000 C.ar    1  LIG1        0.1995
     28 C          -0.5460    3.2540    0.0000 C.ar    1  LIG1        0.0733
     29 C          -1.5130    3.4630    0.0000 C.ar    1  LIG1        0.1485
     30 O          -2.1920    2.7130    0.0000 O.2     1  LIG1       -0.4489
     31 C          -1.8290    4.3960    0.0000 C.ar    1  LIG1        0.0376
     32 C          -1.1710    5.1420    0.0000 C.ar    1  LIG1        0.0031
     33 C          -0.1920    4.9380    0.0000 C.ar    1  LIG1        0.0003
     34 C           0.1170    3.9960    0.0000 C.ar    1  LIG1        0.0062
     35 O           0.7540    2.1000    0.0000 O.2     1  LIG1       -0.2866
     36 O          -3.3710    0.8130    0.0000 O.2     1  LIG1       -0.2662
@<TRIPOS>BOND
     1     1     2    1
     2     1    13   am
     3     1    16    1
     4     2     3   ar
     5     2     6   ar
     6     3     4   ar
     7     4     5   ar
     8     4     8    1
     9     5     6   ar
    10     5     7    1
    11     8     9    2
    12     8    10    1
    13    10    11    1
    14    11    12    1
    15    13    14    1
    16    13    36    2
    17    14    15   ar
    18    14    30   ar
    19    15    16    1
    20    15    27   ar
    21    16    17    1
    22    17    18   ar
    23    17    26   ar
    24    18    19   ar
    25    19    20    1
    26    19    24   ar
    27    20    21    1
    28    21    22    1
    29    22    23    1
    30    24    25   ar
    31    25    26   ar
    32    27    28   ar
    33    27    35    2
    34    28    29   ar
    35    28    34   ar
    36    29    30   ar
    37    29    31   ar
    38    31    32   ar
    39    32    33   ar
    40    33    34   ar
