@<TRIPOS>MOLECULE
32728_ChemDiv_7213-0429
 30 34 0 0 0
SMALL
GASTEIGER
Energy = 0

@<TRIPOS>ATOM
      1 C           2.1380   -0.4790    0.0000 C.ar    1  LIG1        0.2387
      2 N           3.1170   -0.6170    0.0000 N.ar    1  LIG1       -0.1850
      3 C           3.5670    0.2500    0.0000 C.ar    1  LIG1        0.2547
      4 N           2.8670    0.9460    0.0000 N.ar    1  LIG1       -0.1934
      5 N           1.9920    0.4920    0.0000 N.ar    1  LIG1       -0.1382
      6 C           3.1170    1.9040    0.0000 C.ar    1  LIG1        0.1052
      7 C           4.0960    2.1710    0.0000 C.ar    1  LIG1        0.0415
      8 C           4.7880    1.4920    0.0000 C.ar    1  LIG1        0.1037
      9 N           4.5250    0.4920    0.0000 N.ar    1  LIG1       -0.2084
     10 C           1.4420   -1.1920    0.0000 C.2     1  LIG1        0.2872
     11 N           0.4830   -0.9420    0.0000 N.am    1  LIG1       -0.2619
     12 C          -0.2380   -1.6540    0.0000 C.3     1  LIG1        0.1568
     13 C          -1.1830   -1.4170    0.0000 C.3     1  LIG1        0.1612
     14 N          -1.4710   -0.4500    0.0000 N.4     1  LIG1        0.3820
     15 C          -2.4420   -0.2290    0.0000 C.3     1  LIG1        0.1331
     16 C          -2.7290    0.7210    0.0000 C.ar    1  LIG1        0.0328
     17 C          -3.7130    0.9460    0.0000 C.ar    1  LIG1        0.0016
     18 C          -4.0130    1.9210    0.0000 C.ar    1  LIG1       -0.0001
     19 C          -3.3040    2.6630    0.0000 C.ar    1  LIG1       -0.0000
     20 C          -2.3290    2.4380    0.0000 C.ar    1  LIG1       -0.0001
     21 C          -2.0380    1.4750    0.0000 C.ar    1  LIG1        0.0016
     22 C          -3.1210   -0.9630    0.0000 C.ar    1  LIG1        0.0328
     23 C          -2.8380   -1.9210    0.0000 C.ar    1  LIG1        0.0016
     24 C          -3.5250   -2.6580    0.0000 C.ar    1  LIG1       -0.0001
     25 C          -4.5080   -2.4290    0.0000 C.ar    1  LIG1       -0.0000
     26 C          -4.7920   -1.4710    0.0000 C.ar    1  LIG1       -0.0001
     27 C          -4.1000   -0.7420    0.0000 C.ar    1  LIG1        0.0016
     28 C          -0.7750    0.2710    0.0000 C.3     1  LIG1        0.1612
     29 C           0.1920    0.0250    0.0000 C.3     1  LIG1        0.1568
     30 O           1.7130   -2.1500    0.0000 O.2     1  LIG1       -0.2665
@<TRIPOS>BOND
     1     1     2   ar
     2     1     5   ar
     3     1    10    1
     4     2     3   ar
     5     3     4   ar
     6     3     9   ar
     7     4     5   ar
     8     4     6   ar
     9     6     7   ar
    10     7     8   ar
    11     8     9   ar
    12    10    11   am
    13    10    30    2
    14    11    12    1
    15    11    29    1
    16    12    13    1
    17    13    14    1
    18    14    15    1
    19    14    28    1
    20    15    16    1
    21    15    22    1
    22    16    17   ar
    23    16    21   ar
    24    17    18   ar
    25    18    19   ar
    26    19    20   ar
    27    20    21   ar
    28    22    23   ar
    29    22    27   ar
    30    23    24   ar
    31    24    25   ar
    32    25    26   ar
    33    26    27   ar
    34    28    29    1
