@<TRIPOS>MOLECULE
32723_ChemDiv_6391-0001
 26 30 0 0 0
SMALL
GASTEIGER
Energy = 0

@<TRIPOS>ATOM
      1 N          -0.8750   -1.0920    0.0000 N.am    1  LIG1       -0.2263
      2 C          -1.3250   -0.1960    0.0000 C.2     1  LIG1        0.2892
      3 C          -0.6170    0.5040    0.0000 C.ar    1  LIG1        0.1998
      4 C           0.2790    0.0630    0.0000 C.ar    1  LIG1        0.0784
      5 C           0.1210   -0.9290    0.0000 C.3     1  LIG1        0.1331
      6 C           0.8290   -1.6500    0.0000 C.ar    1  LIG1        0.0005
      7 C           0.5580   -2.6080    0.0000 C.ar    1  LIG1       -0.0023
      8 C           1.2630   -3.3170    0.0000 C.ar    1  LIG1       -0.0003
      9 C           2.2250   -3.0580    0.0000 C.ar    1  LIG1       -0.0000
     10 C           2.4830   -2.0830    0.0000 C.ar    1  LIG1       -0.0003
     11 C           1.7750   -1.3790    0.0000 C.ar    1  LIG1       -0.0023
     12 C           1.1080    0.6130    0.0000 C.ar    1  LIG1        0.1995
     13 C           1.0420    1.5960    0.0000 C.ar    1  LIG1        0.0733
     14 C           0.1500    2.0460    0.0000 C.ar    1  LIG1        0.1485
     15 O          -0.6830    1.4960    0.0000 O.2     1  LIG1       -0.4489
     16 C           0.0880    3.0330    0.0000 C.ar    1  LIG1        0.0376
     17 C           0.9210    3.5830    0.0000 C.ar    1  LIG1        0.0031
     18 C           1.8210    3.1330    0.0000 C.ar    1  LIG1        0.0003
     19 C           1.8750    2.1500    0.0000 C.ar    1  LIG1        0.0062
     20 O           2.0040    0.1630    0.0000 O.2     1  LIG1       -0.2866
     21 O          -2.3170   -0.0290    0.0000 O.2     1  LIG1       -0.2662
     22 C          -1.3330   -1.9750    0.0000 C.ar    1  LIG1        0.1696
     23 N          -0.8750   -2.8750    0.0000 N.ar    1  LIG1       -0.2221
     24 C          -1.5880   -3.5790    0.0000 C.ar    1  LIG1        0.1079
     25 C          -2.4880   -3.1250    0.0000 C.ar    1  LIG1        0.0588
     26 S          -2.3290   -2.1250    0.0000 S.2     1  LIG1       -0.0505
@<TRIPOS>BOND
     1     1     2   am
     2     1     5    1
     3     1    22    1
     4     2     3    1
     5     2    21    2
     6     3     4   ar
     7     3    15   ar
     8     4     5    1
     9     4    12   ar
    10     5     6    1
    11     6     7   ar
    12     6    11   ar
    13     7     8   ar
    14     8     9   ar
    15     9    10   ar
    16    10    11   ar
    17    12    13   ar
    18    12    20    2
    19    13    14   ar
    20    13    19   ar
    21    14    15   ar
    22    14    16   ar
    23    16    17   ar
    24    17    18   ar
    25    18    19   ar
    26    22    23   ar
    27    22    26   ar
    28    23    24   ar
    29    24    25   ar
    30    25    26   ar
