@<TRIPOS>MOLECULE
32720_ChemDiv_6665-0607
 30 33 0 0 0
SMALL
GASTEIGER
Energy = 0

@<TRIPOS>ATOM
      1 N          -1.1130    0.3080    0.0000 N.ar    1  LIG1       -0.2577
      2 C          -0.5210    1.1250    0.0000 C.ar    1  LIG1        0.1500
      3 N          -1.1130    1.9420    0.0000 N.ar    1  LIG1       -0.2264
      4 C          -2.0710    1.6250    0.0000 C.ar    1  LIG1        0.0991
      5 C          -2.0670    0.6130    0.0000 C.ar    1  LIG1        0.0858
      6 C          -2.9420    0.1080    0.0000 C.ar    1  LIG1        0.0192
      7 C          -3.8080    0.6130    0.0000 C.ar    1  LIG1        0.0016
      8 C          -3.8080    1.6130    0.0000 C.ar    1  LIG1        0.0016
      9 C          -2.9420    2.1210    0.0000 C.ar    1  LIG1        0.0206
     10 C           0.3500    1.6290    0.0000 C.ar    1  LIG1        0.0378
     11 C           1.2170    1.1420    0.0000 C.ar    1  LIG1        0.0430
     12 C           2.0790    1.6420    0.0000 C.ar    1  LIG1        0.1725
     13 C           2.0750    2.6540    0.0000 C.ar    1  LIG1        0.1724
     14 C           1.2000    3.1330    0.0000 C.ar    1  LIG1        0.0401
     15 C           0.3330    2.6250    0.0000 C.ar    1  LIG1        0.0063
     16 O           2.9290    3.1500    0.0000 O.3     1  LIG1       -0.4684
     17 C           3.8040    2.6670    0.0000 C.3     1  LIG1        0.2526
     18 O           2.9540    1.1580    0.0000 O.3     1  LIG1       -0.4684
     19 C           2.9580    0.1540    0.0000 C.3     1  LIG1        0.2526
     20 C          -0.6130   -0.5540    0.0000 C.2     1  LIG1        0.2658
     21 C          -1.1040   -1.4170    0.0000 C.ar    1  LIG1        0.0576
     22 C          -0.6000   -2.2830    0.0000 C.ar    1  LIG1        0.0186
     23 C           0.3920   -2.2830    0.0000 C.2     1  LIG1        0.0730
     24 O           0.8830   -3.1460    0.0000 O.co2   1  LIG1       -0.5446
     25 O           0.8920   -1.4130    0.0000 O.co2   1  LIG1       -0.5446
     26 C          -1.0960   -3.1290    0.0000 C.ar    1  LIG1        0.0013
     27 C          -2.0960   -3.1420    0.0000 C.ar    1  LIG1        0.0000
     28 C          -2.5960   -2.2790    0.0000 C.ar    1  LIG1        0.0002
     29 C          -2.0960   -1.4130    0.0000 C.ar    1  LIG1        0.0048
     30 O           0.3830   -0.5500    0.0000 O.2     1  LIG1       -0.2666
@<TRIPOS>BOND
     1     1     2   ar
     2     1     5   ar
     3     1    20   am
     4     2     3   ar
     5     2    10    1
     6     3     4   ar
     7     4     5   ar
     8     4     9   ar
     9     5     6   ar
    10     6     7   ar
    11     7     8   ar
    12     8     9   ar
    13    10    11   ar
    14    10    15   ar
    15    11    12   ar
    16    12    13   ar
    17    12    18    1
    18    13    14   ar
    19    13    16    1
    20    14    15   ar
    21    16    17    1
    22    18    19    1
    23    20    21    1
    24    20    30    2
    25    21    22   ar
    26    21    29   ar
    27    22    23    1
    28    22    26   ar
    29    23    24   ar
    30    23    25   ar
    31    26    27   ar
    32    27    28   ar
    33    28    29   ar
