@<TRIPOS>MOLECULE
32734_ChemDiv_8014-9171
 27 32 0 0 0
SMALL
GASTEIGER
Energy = 0

@<TRIPOS>ATOM
      1 C           1.6460   -1.0380    0.0000 C.ar    1  LIG1        0.2387
      2 N           2.4540   -1.4960    0.0000 N.ar    1  LIG1       -0.1850
      3 C           3.2670   -1.0380    0.0000 C.ar    1  LIG1        0.2547
      4 N           3.2670   -0.1210    0.0000 N.ar    1  LIG1       -0.1934
      5 N           1.6460   -0.1210    0.0000 N.ar    1  LIG1       -0.1382
      6 C           4.0920    0.3380    0.0000 C.ar    1  LIG1        0.1052
      7 C           4.8920   -0.1210    0.0000 C.ar    1  LIG1        0.0415
      8 C           4.8920   -1.0380    0.0000 C.ar    1  LIG1        0.1037
      9 N           4.0920   -1.4960    0.0000 N.ar    1  LIG1       -0.2084
     10 C           0.7790   -1.5250    0.0000 C.2     1  LIG1        0.2872
     11 N          -0.0750   -0.9960    0.0000 N.am    1  LIG1       -0.2619
     12 C          -0.0500    0.0000    0.0000 C.3     1  LIG1        0.1568
     13 C          -0.8830    0.5290    0.0000 C.3     1  LIG1        0.1600
     14 N          -1.7790    0.0540    0.0000 N.4     1  LIG1        0.3718
     15 C          -2.6170    0.5710    0.0000 C.3     1  LIG1        0.0457
     16 C          -1.9830    1.2880    0.0000 C.3     1  LIG1        0.0512
     17 C          -2.3630    2.3130    0.0000 C.3     1  LIG1        0.0055
     18 C          -3.3380    1.9630    0.0000 C.3     1  LIG1        0.0004
     19 C          -4.0420    1.1920    0.0000 C.3     1  LIG1        0.0055
     20 C          -3.6630    0.3000    0.0000 C.3     1  LIG1        0.0512
     21 C          -4.8960    1.4380    0.0000 C.3     1  LIG1        0.0004
     22 C          -3.9000    1.8170    0.0000 C.3     1  LIG1        0.0055
     23 C          -3.4960    0.8960    0.0000 C.3     1  LIG1        0.0512
     24 C          -3.2250    2.5960    0.0000 C.3     1  LIG1        0.0004
     25 C          -1.7790   -0.9540    0.0000 C.3     1  LIG1        0.1600
     26 C          -0.9380   -1.4540    0.0000 C.3     1  LIG1        0.1568
     27 O           0.7790   -2.5920    0.0000 O.2     1  LIG1       -0.2665
@<TRIPOS>BOND
     1     1     2   ar
     2     1     5   ar
     3     1    10    1
     4     2     3   ar
     5     3     4   ar
     6     3     9   ar
     7     4     5   ar
     8     4     6   ar
     9     6     7   ar
    10     7     8   ar
    11     8     9   ar
    12    10    11   am
    13    10    27    2
    14    11    12    1
    15    11    26    1
    16    12    13    1
    17    13    14    1
    18    14    15    1
    19    14    25    1
    20    15    16    1
    21    15    20    1
    22    15    23    1
    23    16    17    1
    24    17    18    1
    25    17    24    1
    26    18    19    1
    27    19    20    1
    28    19    21    1
    29    21    22    1
    30    22    23    1
    31    22    24    1
    32    25    26    1
