@<TRIPOS>MOLECULE
32731_ChemDiv_6391-0371
 34 39 0 0 0
SMALL
GASTEIGER
Energy = 0

@<TRIPOS>ATOM
      1 N          -2.1170   -0.7630    0.0000 N.am    1  LIG1       -0.2249
      2 C          -2.5880   -1.6630    0.0000 C.ar    1  LIG1        0.1918
      3 S          -3.5750   -1.8080    0.0000 S.2     1  LIG1       -0.0344
      4 C          -3.7420   -2.7920    0.0000 C.ar    1  LIG1        0.1127
      5 N          -2.8420   -3.2630    0.0000 N.ar    1  LIG1       -0.1440
      6 N          -2.1250   -2.5500    0.0000 N.ar    1  LIG1       -0.1254
      7 C          -4.6170   -3.2420    0.0000 C.3     1  LIG1        0.0614
      8 C          -2.5710    0.1330    0.0000 C.2     1  LIG1        0.2892
      9 C          -1.8670    0.8250    0.0000 C.ar    1  LIG1        0.1998
     10 C          -0.9710    0.3920    0.0000 C.ar    1  LIG1        0.0784
     11 C          -1.1330   -0.6130    0.0000 C.3     1  LIG1        0.1333
     12 C          -0.4290   -1.3170    0.0000 C.ar    1  LIG1        0.0035
     13 C           0.5330   -1.0630    0.0000 C.ar    1  LIG1        0.0352
     14 C           1.2380   -1.7580    0.0000 C.ar    1  LIG1        0.1450
     15 O           2.2130   -1.4880    0.0000 O.3     1  LIG1       -0.4535
     16 C           2.9250   -2.2080    0.0000 C.ar    1  LIG1        0.1453
     17 C           3.9000   -1.9380    0.0000 C.ar    1  LIG1        0.0375
     18 C           4.6130   -2.6420    0.0000 C.ar    1  LIG1        0.0031
     19 C           4.3540   -3.6250    0.0000 C.ar    1  LIG1        0.0002
     20 C           3.3880   -3.8960    0.0000 C.ar    1  LIG1        0.0031
     21 C           2.6670   -3.1750    0.0000 C.ar    1  LIG1        0.0375
     22 C           0.9790   -2.7290    0.0000 C.ar    1  LIG1        0.0375
     23 C           0.0210   -2.9830    0.0000 C.ar    1  LIG1        0.0029
     24 C          -0.6880   -2.2790    0.0000 C.ar    1  LIG1       -0.0021
     25 C          -0.1500    0.9250    0.0000 C.ar    1  LIG1        0.1995
     26 C          -0.2170    1.9130    0.0000 C.ar    1  LIG1        0.0733
     27 C          -1.1000    2.3630    0.0000 C.ar    1  LIG1        0.1485
     28 O          -1.9330    1.8210    0.0000 O.2     1  LIG1       -0.4489
     29 C          -1.1540    3.3580    0.0000 C.ar    1  LIG1        0.0376
     30 C          -0.3290    3.9000    0.0000 C.ar    1  LIG1        0.0031
     31 C           0.5540    3.4500    0.0000 C.ar    1  LIG1        0.0003
     32 C           0.6170    2.4630    0.0000 C.ar    1  LIG1        0.0062
     33 O           0.7460    0.4750    0.0000 O.2     1  LIG1       -0.2866
     34 O          -3.5710    0.2920    0.0000 O.2     1  LIG1       -0.2662
@<TRIPOS>BOND
     1     1     2    1
     2     1     8   am
     3     1    11    1
     4     2     3   ar
     5     2     6   ar
     6     3     4   ar
     7     4     5   ar
     8     4     7    1
     9     5     6   ar
    10     8     9    1
    11     8    34    2
    12     9    10   ar
    13     9    28   ar
    14    10    11    1
    15    10    25   ar
    16    11    12    1
    17    12    13   ar
    18    12    24   ar
    19    13    14   ar
    20    14    15    1
    21    14    22   ar
    22    15    16    1
    23    16    17   ar
    24    16    21   ar
    25    17    18   ar
    26    18    19   ar
    27    19    20   ar
    28    20    21   ar
    29    22    23   ar
    30    23    24   ar
    31    25    26   ar
    32    25    33    2
    33    26    27   ar
    34    26    32   ar
    35    27    28   ar
    36    27    29   ar
    37    29    30   ar
    38    30    31   ar
    39    31    32   ar
