@<TRIPOS>MOLECULE
32738_ChemDiv_6682-0356
 21 23 0 0 0
SMALL
GASTEIGER
Energy = 0

@<TRIPOS>ATOM
      1 C          -0.7250    1.4630    0.0000 C.ar    1  LIG1        0.2078
      2 S          -1.7250    1.4630    0.0000 S.2     1  LIG1       -0.0330
      3 C          -2.0290    2.4170    0.0000 C.ar    1  LIG1        0.1124
      4 N          -1.2250    3.0040    0.0000 N.ar    1  LIG1       -0.1440
      5 N          -0.4170    2.4170    0.0000 N.ar    1  LIG1       -0.1239
      6 C          -2.9830    2.7290    0.0000 C.3     1  LIG1        0.0545
      7 C          -3.1960    3.7000    0.0000 C.3     1  LIG1        0.0073
      8 N          -0.1330    0.6500    0.0000 N.am    1  LIG1       -0.1498
      9 C          -0.5460   -0.2580    0.0000 C.2     1  LIG1        0.2880
     10 C           0.0420   -1.0710    0.0000 C.3     1  LIG1        0.2507
     11 O          -0.3750   -1.9790    0.0000 O.3     1  LIG1       -0.4393
     12 C           0.2130   -2.7920    0.0000 C.2     1  LIG1        0.3412
     13 C           1.2040   -2.6920    0.0000 C.ar    1  LIG1        0.0718
     14 C           1.6130   -1.7790    0.0000 C.ar    1  LIG1       -0.0118
     15 C           1.0330   -0.9630    0.0000 C.3     1  LIG1        0.0799
     16 C           2.6040   -1.6750    0.0000 C.ar    1  LIG1       -0.0039
     17 C           3.1920   -2.4830    0.0000 C.ar    1  LIG1       -0.0003
     18 C           2.7790   -3.3960    0.0000 C.ar    1  LIG1        0.0002
     19 C           1.7880   -3.4960    0.0000 C.ar    1  LIG1        0.0061
     20 O          -0.2000   -3.6960    0.0000 O.2     1  LIG1       -0.2449
     21 O          -1.5460   -0.3630    0.0000 O.2     1  LIG1       -0.2690
@<TRIPOS>BOND
     1     1     2   ar
     2     1     5   ar
     3     1     8    1
     4     2     3   ar
     5     3     4   ar
     6     3     6    1
     7     4     5   ar
     8     6     7    1
     9     8     9   am
    10     9    10    1
    11     9    21    2
    12    10    11    1
    13    10    15    1
    14    11    12    1
    15    12    13    1
    16    12    20    2
    17    13    14   ar
    18    13    19   ar
    19    14    15    1
    20    14    16   ar
    21    16    17   ar
    22    17    18   ar
    23    18    19   ar
