@<TRIPOS>MOLECULE
32732_ChemDiv_7213-0455
 21 23 0 0 0
SMALL
GASTEIGER
Energy = 0

@<TRIPOS>ATOM
      1 C           1.3750   -0.3630    0.0000 C.ar    1  LIG1        0.2405
      2 N           1.9580   -1.1710    0.0000 N.ar    1  LIG1       -0.1849
      3 C           2.8880   -0.8580    0.0000 C.ar    1  LIG1        0.2547
      4 N           2.8880    0.1290    0.0000 N.ar    1  LIG1       -0.1934
      5 N           1.9580    0.4330    0.0000 N.ar    1  LIG1       -0.1381
      6 C           3.7750    0.6380    0.0000 C.ar    1  LIG1        0.1052
      7 C           4.6460    0.1290    0.0000 C.ar    1  LIG1        0.0415
      8 C           4.6460   -0.8580    0.0000 C.ar    1  LIG1        0.1037
      9 N           3.7750   -1.3670    0.0000 N.ar    1  LIG1       -0.2084
     10 C           0.3710   -0.3830    0.0000 C.2     1  LIG1        0.3068
     11 N          -0.1130    0.4960    0.0000 N.am    1  LIG1       -0.1728
     12 C          -1.1330    0.4960    0.0000 C.ar    1  LIG1        0.0739
     13 C          -1.6380    1.3460    0.0000 C.ar    1  LIG1        0.0179
     14 C          -2.6460    1.3460    0.0000 C.ar    1  LIG1        0.0159
     15 C          -3.1420    0.4960    0.0000 C.ar    1  LIG1        0.0480
     16 N          -4.1460    0.5040    0.0000 N.pl3   1  LIG1       -0.3041
     17 C          -4.6500   -0.3540    0.0000 C.3     1  LIG1        0.1122
     18 C          -4.6500    1.3710    0.0000 C.3     1  LIG1        0.1122
     19 C          -2.6460   -0.3830    0.0000 C.ar    1  LIG1        0.0159
     20 C          -1.6380   -0.3830    0.0000 C.ar    1  LIG1        0.0179
     21 O          -0.1130   -1.2420    0.0000 O.2     1  LIG1       -0.2646
@<TRIPOS>BOND
     1     1     2   ar
     2     1     5   ar
     3     1    10    1
     4     2     3   ar
     5     3     4   ar
     6     3     9   ar
     7     4     5   ar
     8     4     6   ar
     9     6     7   ar
    10     7     8   ar
    11     8     9   ar
    12    10    11   am
    13    10    21    2
    14    11    12    1
    15    12    13   ar
    16    12    20   ar
    17    13    14   ar
    18    14    15   ar
    19    15    16    1
    20    15    19   ar
    21    16    17    1
    22    16    18    1
    23    19    20   ar
