@<TRIPOS>MOLECULE
32730_ChemDiv_7213-0436
 26 29 0 0 0
SMALL
GASTEIGER
Energy = 0

@<TRIPOS>ATOM
      1 C           0.6790    1.0880    0.0000 C.ar    1  LIG1        0.2387
      2 N           1.6880    0.9290    0.0000 N.ar    1  LIG1       -0.1850
      3 C           2.1290    1.8130    0.0000 C.ar    1  LIG1        0.2547
      4 N           1.4170    2.5290    0.0000 N.ar    1  LIG1       -0.1934
      5 N           0.5330    2.0750    0.0000 N.ar    1  LIG1       -0.1382
      6 C           1.6880    3.4830    0.0000 C.ar    1  LIG1        0.1052
      7 C           2.6460    3.7460    0.0000 C.ar    1  LIG1        0.0415
      8 C           3.3670    3.0330    0.0000 C.ar    1  LIG1        0.1037
      9 N           3.0830    2.0750    0.0000 N.ar    1  LIG1       -0.2084
     10 C          -0.0040    0.3750    0.0000 C.2     1  LIG1        0.2873
     11 N           0.2630   -0.5670    0.0000 N.am    1  LIG1       -0.2653
     12 C           1.2040   -0.8290    0.0000 C.3     1  LIG1        0.1209
     13 C           1.4790   -1.8080    0.0000 C.ar    1  LIG1       -0.0023
     14 C           0.7630   -2.5250    0.0000 C.ar    1  LIG1       -0.0026
     15 C           1.0380   -3.4790    0.0000 C.ar    1  LIG1       -0.0003
     16 C           1.9830   -3.7420    0.0000 C.ar    1  LIG1       -0.0000
     17 C           2.7000   -3.0500    0.0000 C.ar    1  LIG1       -0.0003
     18 C           2.4250   -2.0750    0.0000 C.ar    1  LIG1       -0.0026
     19 C          -0.4540   -1.2830    0.0000 C.3     1  LIG1        0.1209
     20 C          -1.4290   -1.0130    0.0000 C.ar    1  LIG1       -0.0023
     21 C          -1.6830   -0.0420    0.0000 C.ar    1  LIG1       -0.0026
     22 C          -2.6500    0.2210    0.0000 C.ar    1  LIG1       -0.0003
     23 C          -3.3710   -0.4750    0.0000 C.ar    1  LIG1       -0.0000
     24 C          -3.1080   -1.4420    0.0000 C.ar    1  LIG1       -0.0003
     25 C          -2.1460   -1.7250    0.0000 C.ar    1  LIG1       -0.0026
     26 O          -0.9750    0.6500    0.0000 O.2     1  LIG1       -0.2665
@<TRIPOS>BOND
     1     1     2   ar
     2     1     5   ar
     3     1    10    1
     4     2     3   ar
     5     3     4   ar
     6     3     9   ar
     7     4     5   ar
     8     4     6   ar
     9     6     7   ar
    10     7     8   ar
    11     8     9   ar
    12    10    11   am
    13    10    26    2
    14    11    12    1
    15    11    19    1
    16    12    13    1
    17    13    14   ar
    18    13    18   ar
    19    14    15   ar
    20    15    16   ar
    21    16    17   ar
    22    17    18   ar
    23    19    20    1
    24    20    21   ar
    25    20    25   ar
    26    21    22   ar
    27    22    23   ar
    28    23    24   ar
    29    24    25   ar
