@<TRIPOS>MOLECULE
32735_ChemDiv_6699-0026
 35 40 0 0 0
SMALL
GASTEIGER
Energy = 0

@<TRIPOS>ATOM
      1 C          -0.8920    1.8460    0.0000 C.ar    1  LIG1        0.0784
      2 C          -1.7880    2.2960    0.0000 C.ar    1  LIG1        0.1998
      3 C          -2.4880    1.6040    0.0000 C.2     1  LIG1        0.2888
      4 N          -2.0250    0.7080    0.0000 N.am    1  LIG1       -0.2314
      5 C          -1.0540    0.8630    0.0000 C.3     1  LIG1        0.1327
      6 C          -0.3460    0.1540    0.0000 C.ar    1  LIG1        0.0007
      7 C          -0.6000   -0.8170    0.0000 C.ar    1  LIG1        0.0008
      8 C           0.1000   -1.5250    0.0000 C.ar    1  LIG1        0.0367
      9 C           1.0710   -1.2710    0.0000 C.ar    1  LIG1        0.1390
     10 O           1.8000   -1.9960    0.0000 O.3     1  LIG1       -0.4706
     11 C           1.5250   -2.9750    0.0000 C.3     1  LIG1        0.2320
     12 C           2.2420   -3.6880    0.0000 C.ar    1  LIG1        0.0212
     13 C           3.2040   -3.4290    0.0000 C.ar    1  LIG1       -0.0007
     14 C           3.9170   -4.1380    0.0000 C.ar    1  LIG1       -0.0002
     15 C           3.6500   -5.1080    0.0000 C.ar    1  LIG1       -0.0000
     16 C           2.6880   -5.3670    0.0000 C.ar    1  LIG1       -0.0002
     17 C           1.9790   -4.6540    0.0000 C.ar    1  LIG1       -0.0007
     18 C           1.3330   -0.2880    0.0000 C.ar    1  LIG1        0.0367
     19 C           0.6250    0.4130    0.0000 C.ar    1  LIG1        0.0008
     20 C          -2.4790   -0.1830    0.0000 C.ar    1  LIG1        0.1382
     21 N          -1.9290   -1.0130    0.0000 N.ar    1  LIG1       -0.2288
     22 C          -2.3750   -1.9040    0.0000 C.ar    1  LIG1        0.1003
     23 C          -3.3790   -1.9630    0.0000 C.ar    1  LIG1        0.0208
     24 C          -3.9210   -1.1290    0.0000 C.ar    1  LIG1        0.0045
     25 C          -3.4710   -0.2330    0.0000 C.ar    1  LIG1        0.0347
     26 O          -3.4710    1.7500    0.0000 O.2     1  LIG1       -0.2662
     27 O          -1.8420    3.2960    0.0000 O.2     1  LIG1       -0.4489
     28 C          -1.0130    3.8380    0.0000 C.ar    1  LIG1        0.1485
     29 C          -0.1170    3.3830    0.0000 C.ar    1  LIG1        0.0733
     30 C          -0.0630    2.3880    0.0000 C.ar    1  LIG1        0.1995
     31 O           0.8250    1.9420    0.0000 O.2     1  LIG1       -0.2866
     32 C           0.7250    3.9290    0.0000 C.ar    1  LIG1        0.0062
     33 C           0.6670    4.9130    0.0000 C.ar    1  LIG1        0.0003
     34 C          -0.2210    5.3670    0.0000 C.ar    1  LIG1        0.0031
     35 C          -1.0540    4.8250    0.0000 C.ar    1  LIG1        0.0376
@<TRIPOS>BOND
     1     1     2   ar
     2     1     5    1
     3     1    30   ar
     4     2     3    1
     5     2    27   ar
     6     3     4   am
     7     3    26    2
     8     4     5    1
     9     4    20    1
    10     5     6    1
    11     6     7   ar
    12     6    19   ar
    13     7     8   ar
    14     8     9   ar
    15     9    10    1
    16     9    18   ar
    17    10    11    1
    18    11    12    1
    19    12    13   ar
    20    12    17   ar
    21    13    14   ar
    22    14    15   ar
    23    15    16   ar
    24    16    17   ar
    25    18    19   ar
    26    20    21   ar
    27    20    25   ar
    28    21    22   ar
    29    22    23   ar
    30    23    24   ar
    31    24    25   ar
    32    27    28   ar
    33    28    29   ar
    34    28    35   ar
    35    29    30   ar
    36    29    32   ar
    37    30    31    2
    38    32    33   ar
    39    33    34   ar
    40    34    35   ar
