@<TRIPOS>MOLECULE
32733_ChemDiv_6699-0021
 27 31 0 0 0
SMALL
GASTEIGER
Energy = 0

@<TRIPOS>ATOM
      1 C           0.4000    0.1420    0.0000 C.ar    1  LIG1        0.0784
      2 C          -0.5000    0.5920    0.0000 C.ar    1  LIG1        0.1998
      3 C          -1.1960   -0.1130    0.0000 C.2     1  LIG1        0.2888
      4 N          -0.7380   -1.0080    0.0000 N.am    1  LIG1       -0.2314
      5 C           0.2420   -0.8420    0.0000 C.3     1  LIG1        0.1342
      6 C           0.9580   -1.5500    0.0000 C.ar    1  LIG1        0.0197
      7 C           1.9170   -1.2880    0.0000 C.ar    1  LIG1        0.0965
      8 N           2.6330   -1.9880    0.0000 N.ar    1  LIG1       -0.2426
      9 C           2.3710   -2.9670    0.0000 C.ar    1  LIG1        0.0989
     10 C           1.4080   -3.2210    0.0000 C.ar    1  LIG1        0.0204
     11 C           0.7000   -2.5130    0.0000 C.ar    1  LIG1        0.0008
     12 C          -1.1920   -1.8960    0.0000 C.ar    1  LIG1        0.1382
     13 N          -0.6330   -2.7250    0.0000 N.ar    1  LIG1       -0.2288
     14 C          -1.0750   -3.6210    0.0000 C.ar    1  LIG1        0.1003
     15 C          -2.0750   -3.6830    0.0000 C.ar    1  LIG1        0.0208
     16 C          -2.6380   -2.8460    0.0000 C.ar    1  LIG1        0.0045
     17 C          -2.1830   -1.9580    0.0000 C.ar    1  LIG1        0.0347
     18 O          -2.1880    0.0460    0.0000 O.2     1  LIG1       -0.2662
     19 O          -0.5580    1.5960    0.0000 O.2     1  LIG1       -0.4489
     20 C           0.2790    2.1380    0.0000 C.ar    1  LIG1        0.1485
     21 C           1.1710    1.6830    0.0000 C.ar    1  LIG1        0.0733
     22 C           1.2330    0.6920    0.0000 C.ar    1  LIG1        0.1995
     23 O           2.1210    0.2420    0.0000 O.2     1  LIG1       -0.2866
     24 C           2.0080    2.2290    0.0000 C.ar    1  LIG1        0.0062
     25 C           1.9540    3.2330    0.0000 C.ar    1  LIG1        0.0003
     26 C           1.0630    3.6880    0.0000 C.ar    1  LIG1        0.0031
     27 C           0.2250    3.1290    0.0000 C.ar    1  LIG1        0.0376
@<TRIPOS>BOND
     1     1     2   ar
     2     1     5    1
     3     1    22   ar
     4     2     3    1
     5     2    19   ar
     6     3     4   am
     7     3    18    2
     8     4     5    1
     9     4    12    1
    10     5     6    1
    11     6     7   ar
    12     6    11   ar
    13     7     8   ar
    14     8     9   ar
    15     9    10   ar
    16    10    11   ar
    17    12    13   ar
    18    12    17   ar
    19    13    14   ar
    20    14    15   ar
    21    15    16   ar
    22    16    17   ar
    23    19    20   ar
    24    20    21   ar
    25    20    27   ar
    26    21    22   ar
    27    21    24   ar
    28    22    23    2
    29    24    25   ar
    30    25    26   ar
    31    26    27   ar
