@<TRIPOS>MOLECULE
32737_ChemDiv_6232-2261
 27 31 0 0 0
SMALL
GASTEIGER
Energy = 0

@<TRIPOS>ATOM
      1 S           1.4960   -0.2710    0.0000 S.O2    1  LIG1        0.0771
      2 C           0.9080    0.5380    0.0000 C.ar    1  LIG1        0.1238
      3 C           1.3130    1.4500    0.0000 C.ar    1  LIG1        0.0231
      4 C           0.7250    2.2580    0.0000 C.ar    1  LIG1        0.0388
      5 C          -0.2710    2.1540    0.0000 C.ar    1  LIG1        0.1454
      6 O          -0.6750    3.0710    0.0000 O.2     1  LIG1       -0.4535
      7 C           0.0710    3.7380    0.0000 C.ar    1  LIG1        0.1453
      8 C           0.9380    3.2330    0.0000 C.ar    1  LIG1        0.0375
      9 C           1.8000    3.7380    0.0000 C.ar    1  LIG1        0.0031
     10 C           1.8000    4.7290    0.0000 C.ar    1  LIG1        0.0002
     11 C           0.9380    5.2380    0.0000 C.ar    1  LIG1        0.0031
     12 C           0.0710    4.7290    0.0000 C.ar    1  LIG1        0.0375
     13 C          -0.6750    1.2380    0.0000 C.ar    1  LIG1        0.0389
     14 C          -0.0830    0.4290    0.0000 C.ar    1  LIG1        0.0231
     15 N           0.6880   -0.8630    0.0000 N.3     1  LIG1       -0.0729
     16 C           0.7880   -1.8540    0.0000 C.3     1  LIG1        0.1419
     17 C          -0.0210   -2.4420    0.0000 C.ar    1  LIG1        0.0003
     18 C           0.0790   -3.4380    0.0000 C.ar    1  LIG1        0.0374
     19 C          -0.7290   -4.0250    0.0000 C.ar    1  LIG1        0.1762
     20 C          -1.6380   -3.6210    0.0000 C.ar    1  LIG1        0.1764
     21 O          -2.3130   -4.3630    0.0000 O.3     1  LIG1       -0.4346
     22 C          -1.8040   -5.2380    0.0000 C.3     1  LIG1        0.4294
     23 O          -0.8290   -5.0170    0.0000 O.3     1  LIG1       -0.4346
     24 C          -1.7420   -2.6250    0.0000 C.ar    1  LIG1        0.0399
     25 C          -0.9290   -2.0380    0.0000 C.ar    1  LIG1        0.0005
     26 O           2.0880   -1.0830    0.0000 O.2     1  LIG1       -0.1516
     27 O           2.3080    0.3170    0.0000 O.2     1  LIG1       -0.1516
@<TRIPOS>BOND
     1     1     2    1
     2     1    15    1
     3     1    26    2
     4     1    27    2
     5     2     3   ar
     6     2    14   ar
     7     3     4   ar
     8     4     5   ar
     9     4     8   ar
    10     5     6   ar
    11     5    13   ar
    12     6     7   ar
    13     7     8   ar
    14     7    12   ar
    15     8     9   ar
    16     9    10   ar
    17    10    11   ar
    18    11    12   ar
    19    13    14   ar
    20    15    16    1
    21    16    17    1
    22    17    18   ar
    23    17    25   ar
    24    18    19   ar
    25    19    20   ar
    26    19    23    1
    27    20    21    1
    28    20    24   ar
    29    21    22    1
    30    22    23    1
    31    24    25   ar
