@<TRIPOS>MOLECULE
32736_ChemDiv_C561-1735
 29 32 0 0 0
SMALL
GASTEIGER
Energy = 0

@<TRIPOS>ATOM
      1 C          -1.3960    5.0000    0.0000 C.ar    1  LIG1        0.2539
      2 N          -1.3960    4.0000    0.0000 N.ar    1  LIG1       -0.1993
      3 C          -0.5330    3.5040    0.0000 C.ar    1  LIG1        0.0611
      4 C           0.3330    4.0000    0.0000 C.ar    1  LIG1        0.0057
      5 C           0.3330    5.0000    0.0000 C.ar    1  LIG1        0.0597
      6 N          -0.5330    5.4960    0.0000 N.ar    1  LIG1       -0.2146
      7 C           1.2040    5.4960    0.0000 C.3     1  LIG1        0.0519
      8 C           1.2040    3.4960    0.0000 C.3     1  LIG1        0.0383
      9 C           1.1960    2.4960    0.0000 C.3     1  LIG1        0.0900
     10 C           2.0580    1.9920    0.0000 C.2     1  LIG1        0.2261
     11 N           2.0580    0.9920    0.0000 N.am    1  LIG1       -0.2760
     12 C           2.9290    0.4920    0.0000 C.3     1  LIG1        0.1148
     13 C           2.9210   -0.5170    0.0000 C.3     1  LIG1        0.1123
     14 N           2.0540   -1.0130    0.0000 N.pl3   1  LIG1       -0.3041
     15 C           2.0540   -2.0130    0.0000 C.ar    1  LIG1        0.0481
     16 C           1.1790   -2.5040    0.0000 C.ar    1  LIG1        0.0176
     17 C           1.1790   -3.5000    0.0000 C.ar    1  LIG1        0.0382
     18 C           2.0420   -4.0080    0.0000 C.ar    1  LIG1        0.1388
     19 C           2.9170   -3.5000    0.0000 C.ar    1  LIG1        0.0382
     20 C           2.9170   -2.5130    0.0000 C.ar    1  LIG1        0.0176
     21 O           2.0420   -5.0080    0.0000 O.3     1  LIG1       -0.4714
     22 C           1.1750   -5.4960    0.0000 C.3     1  LIG1        0.2525
     23 C           1.1790   -0.5040    0.0000 C.3     1  LIG1        0.1123
     24 C           1.1920    0.4920    0.0000 C.3     1  LIG1        0.1148
     25 O           2.9210    2.4920    0.0000 O.2     1  LIG1       -0.2749
     26 C          -0.5330    2.5080    0.0000 C.3     1  LIG1        0.0520
     27 N          -2.3460    3.7000    0.0000 N.ar    1  LIG1       -0.1401
     28 C          -2.9330    4.5000    0.0000 C.ar    1  LIG1        0.2226
     29 N          -2.3460    5.3040    0.0000 N.ar    1  LIG1       -0.1862
@<TRIPOS>BOND
     1     1     2   ar
     2     1     6   ar
     3     1    29   ar
     4     2     3   ar
     5     2    27   ar
     6     3     4   ar
     7     3    26    1
     8     4     5   ar
     9     4     8    1
    10     5     6   ar
    11     5     7    1
    12     8     9    1
    13     9    10    1
    14    10    11   am
    15    10    25    2
    16    11    12    1
    17    11    24    1
    18    12    13    1
    19    13    14    1
    20    14    15    1
    21    14    23    1
    22    15    16   ar
    23    15    20   ar
    24    16    17   ar
    25    17    18   ar
    26    18    19   ar
    27    18    21    1
    28    19    20   ar
    29    21    22    1
    30    23    24    1
    31    27    28   ar
    32    28    29   ar
