@<TRIPOS>MOLECULE
32739_ChemDiv_8016-3026
 26 29 0 0 0
SMALL
GASTEIGER
Energy = 0

@<TRIPOS>ATOM
      1 S           0.2000   -0.3670    0.0000 S.O2    1  LIG1        0.0771
      2 N           1.2000   -0.3670    0.0000 N.3     1  LIG1       -0.0729
      3 C           1.7040    0.5040    0.0000 C.3     1  LIG1        0.1419
      4 C           2.6960    0.5040    0.0000 C.ar    1  LIG1        0.0003
      5 C           3.2000   -0.3670    0.0000 C.ar    1  LIG1        0.0374
      6 C           4.2000   -0.3670    0.0000 C.ar    1  LIG1        0.1762
      7 C           4.7000    0.5040    0.0000 C.ar    1  LIG1        0.1764
      8 O           5.6710    0.2920    0.0000 O.3     1  LIG1       -0.4346
      9 C           5.7830   -0.6920    0.0000 C.3     1  LIG1        0.4294
     10 O           4.8710   -1.1040    0.0000 O.3     1  LIG1       -0.4346
     11 C           4.2000    1.3670    0.0000 C.ar    1  LIG1        0.0399
     12 C           3.2000    1.3670    0.0000 C.ar    1  LIG1        0.0005
     13 C          -0.7960   -0.3670    0.0000 C.ar    1  LIG1        0.1235
     14 C          -1.3000   -1.2290    0.0000 C.ar    1  LIG1        0.0196
     15 C          -2.2960   -1.2290    0.0000 C.ar    1  LIG1       -0.0029
     16 C          -2.7960   -0.3670    0.0000 C.ar    1  LIG1       -0.0224
     17 C          -2.2960    0.5040    0.0000 C.ar    1  LIG1       -0.0029
     18 C          -1.3000    0.5040    0.0000 C.ar    1  LIG1        0.0196
     19 C          -3.7960   -0.3670    0.0000 C.3     1  LIG1        0.0223
     20 C          -4.2960    0.5040    0.0000 C.3     1  LIG1        0.0044
     21 C          -5.2920    0.5040    0.0000 C.3     1  LIG1        0.0003
     22 C          -5.7880   -0.3670    0.0000 C.3     1  LIG1        0.0000
     23 C          -5.2920   -1.2290    0.0000 C.3     1  LIG1        0.0003
     24 C          -4.2960   -1.2290    0.0000 C.3     1  LIG1        0.0044
     25 O           0.2000    0.6420    0.0000 O.2     1  LIG1       -0.1516
     26 O           0.2000   -1.3630    0.0000 O.2     1  LIG1       -0.1516
@<TRIPOS>BOND
     1     1     2    1
     2     1    13    1
     3     1    25    2
     4     1    26    2
     5     2     3    1
     6     3     4    1
     7     4     5   ar
     8     4    12   ar
     9     5     6   ar
    10     6     7   ar
    11     6    10    1
    12     7     8    1
    13     7    11   ar
    14     8     9    1
    15     9    10    1
    16    11    12   ar
    17    13    14   ar
    18    13    18   ar
    19    14    15   ar
    20    15    16   ar
    21    16    17   ar
    22    16    19    1
    23    17    18   ar
    24    19    20    1
    25    19    24    1
    26    20    21    1
    27    21    22    1
    28    22    23    1
    29    23    24    1
