@<TRIPOS>MOLECULE
32747_ChemDiv_6232-2302
 31 34 0 0 0
SMALL
GASTEIGER
Energy = 0

@<TRIPOS>ATOM
      1 N           2.2000    1.2500    0.0000 N.am    1  LIG1       -0.2379
      2 C           1.3210    0.7750    0.0000 C.ar    1  LIG1        0.0554
      3 C           1.4380   -0.2040    0.0000 C.ar    1  LIG1        0.0315
      4 C           0.6210   -0.8080    0.0000 C.ar    1  LIG1        0.0749
      5 N           0.7330   -1.7920    0.0000 N.am    1  LIG1       -0.1753
      6 C          -0.0790   -2.4000    0.0000 C.2     1  LIG1        0.2719
      7 C          -0.9960   -1.9580    0.0000 C.ar    1  LIG1        0.0893
      8 C          -1.8130   -2.5670    0.0000 C.ar    1  LIG1        0.1436
      9 C          -2.7330   -2.1630    0.0000 C.ar    1  LIG1        0.0432
     10 C          -2.8500   -1.1460    0.0000 C.ar    1  LIG1        0.0283
     11 C          -2.0130   -0.5750    0.0000 C.ar    1  LIG1        0.0065
     12 C          -1.1130   -0.9790    0.0000 C.ar    1  LIG1        0.0081
     13 S          -3.7710   -0.7420    0.0000 S.3     1  LIG1       -0.1126
     14 C          -3.9080    0.2380    0.0000 C.3     1  LIG1        0.0742
     15 O          -1.7250   -3.5500    0.0000 O.3     1  LIG1       -0.4713
     16 C          -2.5540   -4.1250    0.0000 C.3     1  LIG1        0.2525
     17 O           0.0130   -3.3830    0.0000 O.2     1  LIG1       -0.2679
     18 C          -0.3000   -0.4040    0.0000 C.ar    1  LIG1        0.0164
     19 C          -0.4170    0.6080    0.0000 C.ar    1  LIG1       -0.0017
     20 C           0.3960    1.1830    0.0000 C.ar    1  LIG1       -0.0077
     21 C           0.1460    2.1630    0.0000 C.3     1  LIG1        0.0323
     22 C           0.7330    2.9420    0.0000 C.3     1  LIG1        0.0323
     23 C           1.7500    3.0080    0.0000 C.ar    1  LIG1       -0.0078
     24 C           2.4000    2.2290    0.0000 C.ar    1  LIG1        0.0541
     25 C           3.3710    2.4330    0.0000 C.ar    1  LIG1        0.0149
     26 C           3.7080    3.3830    0.0000 C.ar    1  LIG1        0.0013
     27 C           3.0330    4.1250    0.0000 C.ar    1  LIG1       -0.0002
     28 C           2.0630    3.9210    0.0000 C.ar    1  LIG1       -0.0030
     29 C           2.9920    0.6630    0.0000 C.2     1  LIG1        0.2336
     30 O           2.9580   -0.3290    0.0000 O.2     1  LIG1       -0.2742
     31 C           3.9040    0.9880    0.0000 C.3     1  LIG1        0.0955
@<TRIPOS>BOND
     1     1     2    1
     2     1    24    1
     3     1    29   am
     4     2     3   ar
     5     2    20   ar
     6     3     4   ar
     7     4     5    1
     8     4    18   ar
     9     5     6   am
    10     6     7    1
    11     6    17    2
    12     7     8   ar
    13     7    12   ar
    14     8     9   ar
    15     8    15    1
    16     9    10   ar
    17    10    11   ar
    18    10    13    1
    19    11    12   ar
    20    13    14    1
    21    15    16    1
    22    18    19   ar
    23    19    20   ar
    24    20    21    1
    25    21    22    1
    26    22    23    1
    27    23    24   ar
    28    23    28   ar
    29    24    25   ar
    30    25    26   ar
    31    26    27   ar
    32    27    28   ar
    33    29    30    2
    34    29    31    1
