@<TRIPOS>MOLECULE
32740_ChemDiv_6682-0370
 25 29 0 0 0
SMALL
GASTEIGER
Energy = 0

@<TRIPOS>ATOM
      1 N          -1.4920    0.5250    0.0000 N.ar    1  LIG1       -0.1856
      2 C          -1.1830    1.4750    0.0000 C.ar    1  LIG1        0.2184
      3 S          -0.1830    1.4750    0.0000 S.2     1  LIG1       -0.0270
      4 C           0.1290    0.5250    0.0000 C.ar    1  LIG1        0.1513
      5 N          -0.6830   -0.0670    0.0000 N.ar    1  LIG1       -0.1560
      6 C           1.0750    0.2130    0.0000 C.3     1  LIG1        0.2209
      7 O           1.2790   -0.7710    0.0000 O.3     1  LIG1       -0.4421
      8 C           2.2250   -1.0830    0.0000 C.2     1  LIG1        0.3412
      9 C           2.9710   -0.4170    0.0000 C.ar    1  LIG1        0.0718
     10 C           2.7750    0.5580    0.0000 C.ar    1  LIG1       -0.0119
     11 C           1.8250    0.8790    0.0000 C.3     1  LIG1        0.0771
     12 C           3.5170    1.2210    0.0000 C.ar    1  LIG1       -0.0039
     13 C           4.4630    0.9080    0.0000 C.ar    1  LIG1       -0.0003
     14 C           4.6630   -0.0750    0.0000 C.ar    1  LIG1        0.0002
     15 C           3.9170   -0.7330    0.0000 C.ar    1  LIG1        0.0061
     16 O           2.4290   -2.0630    0.0000 O.2     1  LIG1       -0.2449
     17 N          -1.9920    2.0670    0.0000 N.ar    1  LIG1       -0.1199
     18 N          -2.7960    1.4750    0.0000 N.ar    1  LIG1       -0.1264
     19 C          -2.4920    0.5250    0.0000 C.ar    1  LIG1        0.1870
     20 C          -3.0750   -0.2830    0.0000 C.ar    1  LIG1        0.0377
     21 C          -2.6750   -1.1920    0.0000 C.ar    1  LIG1        0.0031
     22 C          -3.2580   -1.9920    0.0000 C.ar    1  LIG1        0.0001
     23 C          -4.2580   -1.8960    0.0000 C.ar    1  LIG1        0.0000
     24 C          -4.6670   -0.9790    0.0000 C.ar    1  LIG1        0.0001
     25 C          -4.0750   -0.1670    0.0000 C.ar    1  LIG1        0.0031
@<TRIPOS>BOND
     1     1     2   ar
     2     1     5   ar
     3     1    19   ar
     4     2     3   ar
     5     2    17   ar
     6     3     4   ar
     7     4     5   ar
     8     4     6    1
     9     6     7    1
    10     6    11    1
    11     7     8    1
    12     8     9    1
    13     8    16    2
    14     9    10   ar
    15     9    15   ar
    16    10    11    1
    17    10    12   ar
    18    12    13   ar
    19    13    14   ar
    20    14    15   ar
    21    17    18   ar
    22    18    19   ar
    23    19    20    1
    24    20    21   ar
    25    20    25   ar
    26    21    22   ar
    27    22    23   ar
    28    23    24   ar
    29    24    25   ar
