@<TRIPOS>MOLECULE
32749_ChemDiv_8017-4006
 31 34 0 0 0
SMALL
GASTEIGER
Energy = 0

@<TRIPOS>ATOM
      1 N          -1.9210    0.9580    0.0000 N.am    1  LIG1       -0.2379
      2 C          -0.9460    1.1210    0.0000 C.ar    1  LIG1        0.0554
      3 C          -0.3920    0.2580    0.0000 C.ar    1  LIG1        0.0315
      4 C           0.6330    0.3000    0.0000 C.ar    1  LIG1        0.0749
      5 N           1.1790   -0.5460    0.0000 N.am    1  LIG1       -0.1752
      6 C           2.1790   -0.4960    0.0000 C.2     1  LIG1        0.2749
      7 C           2.7210   -1.3420    0.0000 C.ar    1  LIG1        0.1231
      8 C           2.2580   -2.2330    0.0000 C.ar    1  LIG1        0.1461
      9 O           1.2580   -2.2830    0.0000 O.3     1  LIG1       -0.4712
     10 C           0.8040   -3.1710    0.0000 C.3     1  LIG1        0.2525
     11 C           2.8040   -3.0790    0.0000 C.ar    1  LIG1        0.0373
     12 C           3.8080   -3.0290    0.0000 C.ar    1  LIG1        0.0062
     13 C           4.2580   -2.1290    0.0000 C.ar    1  LIG1        0.0373
     14 C           3.7210   -1.2920    0.0000 C.ar    1  LIG1        0.1461
     15 O           4.1710   -0.4040    0.0000 O.3     1  LIG1       -0.4712
     16 C           3.6290    0.4460    0.0000 C.3     1  LIG1        0.2525
     17 O           2.6420    0.3960    0.0000 O.2     1  LIG1       -0.2678
     18 C           1.1080    1.2210    0.0000 C.ar    1  LIG1        0.0164
     19 C           0.5540    2.0830    0.0000 C.ar    1  LIG1       -0.0017
     20 C          -0.4710    2.0380    0.0000 C.ar    1  LIG1       -0.0077
     21 C          -0.9080    2.9880    0.0000 C.3     1  LIG1        0.0323
     22 C          -1.8920    3.1750    0.0000 C.3     1  LIG1        0.0323
     23 C          -2.5290    2.5710    0.0000 C.ar    1  LIG1       -0.0078
     24 C          -2.5290    1.5580    0.0000 C.ar    1  LIG1        0.0541
     25 C          -3.3920    1.0580    0.0000 C.ar    1  LIG1        0.0149
     26 C          -4.2630    1.5630    0.0000 C.ar    1  LIG1        0.0013
     27 C          -4.2630    2.5710    0.0000 C.ar    1  LIG1       -0.0002
     28 C          -3.3920    3.0710    0.0000 C.ar    1  LIG1       -0.0030
     29 C          -2.2290    0.0000    0.0000 C.2     1  LIG1        0.2336
     30 O          -3.2040   -0.2170    0.0000 O.2     1  LIG1       -0.2742
     31 C          -1.5540   -0.7420    0.0000 C.3     1  LIG1        0.0955
@<TRIPOS>BOND
     1     1     2    1
     2     1    24    1
     3     1    29   am
     4     2     3   ar
     5     2    20   ar
     6     3     4   ar
     7     4     5    1
     8     4    18   ar
     9     5     6   am
    10     6     7    1
    11     6    17    2
    12     7     8   ar
    13     7    14   ar
    14     8     9    1
    15     8    11   ar
    16     9    10    1
    17    11    12   ar
    18    12    13   ar
    19    13    14   ar
    20    14    15    1
    21    15    16    1
    22    18    19   ar
    23    19    20   ar
    24    20    21    1
    25    21    22    1
    26    22    23    1
    27    23    24   ar
    28    23    28   ar
    29    24    25   ar
    30    25    26   ar
    31    26    27   ar
    32    27    28   ar
    33    29    30    2
    34    29    31    1
