@<TRIPOS>MOLECULE
32742_ChemDiv_6682-0399
 23 25 0 0 0
SMALL
GASTEIGER
Energy = 0

@<TRIPOS>ATOM
      1 N          -1.8080    0.0080    0.0000 N.ar    1  LIG1       -0.2058
      2 C          -0.9960   -0.5790    0.0000 C.ar    1  LIG1        0.2046
      3 N          -0.0460   -0.2710    0.0000 N.am    1  LIG1       -0.1500
      4 C           0.6920   -0.9420    0.0000 C.2     1  LIG1        0.2880
      5 C           1.6460   -0.6330    0.0000 C.3     1  LIG1        0.2507
      6 O           2.3920   -1.3080    0.0000 O.3     1  LIG1       -0.4393
      7 C           3.3420   -1.0040    0.0000 C.2     1  LIG1        0.3412
      8 C           3.5500   -0.0250    0.0000 C.ar    1  LIG1        0.0718
      9 C           2.8170    0.6540    0.0000 C.ar    1  LIG1       -0.0118
     10 C           1.8580    0.3460    0.0000 C.3     1  LIG1        0.0799
     11 C           3.0250    1.6210    0.0000 C.ar    1  LIG1       -0.0039
     12 C           3.9710    1.9290    0.0000 C.ar    1  LIG1       -0.0003
     13 C           4.7170    1.2500    0.0000 C.ar    1  LIG1        0.0002
     14 C           4.5040    0.2830    0.0000 C.ar    1  LIG1        0.0061
     15 O           4.0830   -1.6790    0.0000 O.2     1  LIG1       -0.2449
     16 O           0.4880   -1.9250    0.0000 O.2     1  LIG1       -0.2690
     17 S          -1.3080   -1.5330    0.0000 S.2     1  LIG1        0.0509
     18 N          -2.3080   -1.5330    0.0000 N.ar    1  LIG1       -0.1913
     19 C          -2.6170   -0.5790    0.0000 C.ar    1  LIG1        0.1564
     20 C          -3.5670   -0.2710    0.0000 C.3     1  LIG1        0.1307
     21 C          -3.7790    0.7080    0.0000 C.2     1  LIG1        0.1587
     22 O          -3.0380    1.3790    0.0000 O.2     1  LIG1       -0.2956
     23 C          -4.7210    1.0170    0.0000 C.3     1  LIG1        0.0727
@<TRIPOS>BOND
     1     1     2   ar
     2     1    19   ar
     3     2     3    1
     4     2    17   ar
     5     3     4   am
     6     4     5    1
     7     4    16    2
     8     5     6    1
     9     5    10    1
    10     6     7    1
    11     7     8    1
    12     7    15    2
    13     8     9   ar
    14     8    14   ar
    15     9    10    1
    16     9    11   ar
    17    11    12   ar
    18    12    13   ar
    19    13    14   ar
    20    17    18   ar
    21    18    19   ar
    22    19    20    1
    23    20    21    1
    24    21    22    2
    25    21    23    1
