@<TRIPOS>MOLECULE
32756_ChemDiv_C561-1818
 40 43 0 0 0
SMALL
GASTEIGER
Energy = 0

@<TRIPOS>ATOM
      1 C          -2.9000    1.2290    0.0000 C.ar    1  LIG1        0.2539
      2 N          -2.9000    0.2330    0.0000 N.ar    1  LIG1       -0.1994
      3 N          -3.8460   -0.0750    0.0000 N.ar    1  LIG1       -0.1433
      4 C          -4.4290    0.7420    0.0000 C.ar    1  LIG1        0.1852
      5 N          -3.8460    1.5420    0.0000 N.ar    1  LIG1       -0.1891
      6 C          -5.4290    0.6960    0.0000 C.ar    1  LIG1        0.0436
      7 C          -5.8960   -0.1920    0.0000 C.ar    1  LIG1        0.0402
      8 C          -6.8920   -0.2290    0.0000 C.ar    1  LIG1        0.1419
      9 C          -7.4210    0.6210    0.0000 C.ar    1  LIG1        0.0738
     10 C          -6.9670    1.4960    0.0000 C.ar    1  LIG1        0.1419
     11 C          -5.9750    1.5420    0.0000 C.ar    1  LIG1        0.0402
     12 O          -7.5130    2.3500    0.0000 O.3     1  LIG1       -0.4713
     13 C          -7.0580    3.2420    0.0000 C.3     1  LIG1        0.2525
     14 O          -7.3670   -1.1210    0.0000 O.3     1  LIG1       -0.4713
     15 C          -8.3750   -1.1630    0.0000 C.3     1  LIG1        0.2525
     16 C          -2.0380   -0.2670    0.0000 C.ar    1  LIG1        0.0611
     17 C          -1.1670    0.2330    0.0000 C.ar    1  LIG1        0.0057
     18 C          -1.1670    1.2290    0.0000 C.ar    1  LIG1        0.0597
     19 N          -2.0380    1.7290    0.0000 N.ar    1  LIG1       -0.2146
     20 C          -0.2960    1.7420    0.0000 C.3     1  LIG1        0.0519
     21 C          -0.2960   -0.2670    0.0000 C.3     1  LIG1        0.0384
     22 C           0.5670    0.2420    0.0000 C.3     1  LIG1        0.0916
     23 C           1.4420   -0.2580    0.0000 C.2     1  LIG1        0.2417
     24 O           1.4540   -1.2580    0.0000 O.2     1  LIG1       -0.2733
     25 N           2.3040    0.2420    0.0000 N.am    1  LIG1       -0.2051
     26 C           3.1710   -0.2580    0.0000 C.3     1  LIG1        0.1198
     27 C           4.0330    0.2460    0.0000 C.3     1  LIG1        0.0499
     28 C           4.9040   -0.2420    0.0000 C.ar    1  LIG1       -0.0172
     29 C           4.9040   -1.2420    0.0000 C.ar    1  LIG1        0.0358
     30 C           5.7710   -1.7420    0.0000 C.ar    1  LIG1        0.1719
     31 C           6.6330   -1.2380    0.0000 C.ar    1  LIG1        0.1722
     32 C           6.6210   -0.2290    0.0000 C.ar    1  LIG1        0.0397
     33 C           5.7580    0.2580    0.0000 C.ar    1  LIG1       -0.0009
     34 O           7.4960   -1.7250    0.0000 O.3     1  LIG1       -0.4724
     35 C           7.5080   -2.7250    0.0000 C.3     1  LIG1        0.2057
     36 C           8.3750   -3.2250    0.0000 C.3     1  LIG1        0.0512
     37 O           5.7710   -2.7420    0.0000 O.3     1  LIG1       -0.4724
     38 C           4.9080   -3.2380    0.0000 C.3     1  LIG1        0.2057
     39 C           4.0460   -2.7500    0.0000 C.3     1  LIG1        0.0512
     40 C          -2.0380   -1.2670    0.0000 C.3     1  LIG1        0.0520
@<TRIPOS>BOND
     1     1     2   ar
     2     1     5   ar
     3     1    19   ar
     4     2     3   ar
     5     2    16   ar
     6     3     4   ar
     7     4     5   ar
     8     4     6    1
     9     6     7   ar
    10     6    11   ar
    11     7     8   ar
    12     8     9   ar
    13     8    14    1
    14     9    10   ar
    15    10    11   ar
    16    10    12    1
    17    12    13    1
    18    14    15    1
    19    16    17   ar
    20    16    40    1
    21    17    18   ar
    22    17    21    1
    23    18    19   ar
    24    18    20    1
    25    21    22    1
    26    22    23    1
    27    23    24    2
    28    23    25   am
    29    25    26    1
    30    26    27    1
    31    27    28    1
    32    28    29   ar
    33    28    33   ar
    34    29    30   ar
    35    30    31   ar
    36    30    37    1
    37    31    32   ar
    38    31    34    1
    39    32    33   ar
    40    34    35    1
    41    35    36    1
    42    37    38    1
    43    38    39    1
