@<TRIPOS>MOLECULE
32750_ChemDiv_6703-0411
 19 20 0 0 0
SMALL
GASTEIGER
Energy = 0

@<TRIPOS>ATOM
      1 N          -3.0330    0.8540    0.0000 N.ar    1  LIG1       -0.2239
      2 C          -1.4460    0.8540    0.0000 C.ar    1  LIG1        0.1002
      3 C          -1.4460   -0.0670    0.0000 C.ar    1  LIG1        0.0968
      4 N          -2.2420   -0.5250    0.0000 N.ar    1  LIG1       -0.2991
      5 C          -3.0330   -0.0670    0.0000 C.ar    1  LIG1        0.1789
      6 C          -2.2420   -1.4420    0.0000 C.3     1  LIG1        0.1964
      7 C          -3.0330   -1.9000    0.0000 C.2     1  LIG1        0.2838
      8 O          -3.8290   -1.4420    0.0000 O.2     1  LIG1       -0.2695
      9 N          -3.0330   -2.8210    0.0000 N.am    1  LIG1       -0.0861
     10 C          -0.5580    1.3330    0.0000 C.ar    1  LIG1        0.0193
     11 C          -0.5380    2.3380    0.0000 C.ar    1  LIG1        0.0029
     12 C           0.3420    2.8170    0.0000 C.ar    1  LIG1        0.0166
     13 C           1.2040    2.2880    0.0000 C.ar    1  LIG1        0.0734
     14 N           2.0750    2.8000    0.0000 N.am    1  LIG1       -0.1792
     15 C           2.9500    2.3040    0.0000 C.2     1  LIG1        0.2461
     16 O           2.9670    1.2960    0.0000 O.2     1  LIG1       -0.2730
     17 C           3.8250    2.8250    0.0000 C.3     1  LIG1        0.0968
     18 C           1.1750    1.2880    0.0000 C.ar    1  LIG1        0.0166
     19 C           0.3000    0.8080    0.0000 C.ar    1  LIG1        0.0029
@<TRIPOS>BOND
     1     1     2   ar
     2     1     5   ar
     3     2     3   ar
     4     2    10    1
     5     3     4   ar
     6     4     5   ar
     7     4     6    1
     8     6     7    1
     9     7     8    2
    10     7     9   am
    11    10    11   ar
    12    10    19   ar
    13    11    12   ar
    14    12    13   ar
    15    13    14    1
    16    13    18   ar
    17    14    15   am
    18    15    16    2
    19    15    17    1
    20    18    19   ar
