@<TRIPOS>MOLECULE
32755_ChemDiv_6872-2651
 32 36 0 0 0
SMALL
GASTEIGER
Energy = 0

@<TRIPOS>ATOM
      1 N           0.3670    1.7170    0.0000 N.am    1  LIG1       -0.2249
      2 C          -0.5330    2.1710    0.0000 C.2     1  LIG1        0.2892
      3 C          -1.2540    1.4460    0.0000 C.ar    1  LIG1        0.1998
      4 C          -0.7830    0.5710    0.0000 C.ar    1  LIG1        0.0784
      5 C           0.2080    0.7210    0.0000 C.3     1  LIG1        0.1334
      6 C           0.9170    0.0330    0.0000 C.ar    1  LIG1        0.0067
      7 C           1.8710    0.3000    0.0000 C.ar    1  LIG1        0.0379
      8 C           2.5750   -0.4080    0.0000 C.ar    1  LIG1        0.1752
      9 C           2.3330   -1.3880    0.0000 C.ar    1  LIG1        0.2060
     10 C           1.3580   -1.6460    0.0000 C.ar    1  LIG1        0.1752
     11 C           0.6500   -0.9380    0.0000 C.ar    1  LIG1        0.0379
     12 O           1.0920   -2.6250    0.0000 O.3     1  LIG1       -0.4683
     13 C           1.7790   -3.3130    0.0000 C.3     1  LIG1        0.2526
     14 O           3.0500   -2.1040    0.0000 O.3     1  LIG1       -0.4654
     15 C           2.7830   -3.0830    0.0000 C.3     1  LIG1        0.2528
     16 O           3.5670   -0.1420    0.0000 O.3     1  LIG1       -0.4683
     17 C           4.2880   -0.8580    0.0000 C.3     1  LIG1        0.2526
     18 C          -1.3130   -0.2670    0.0000 C.ar    1  LIG1        0.1995
     19 C          -2.3000   -0.2290    0.0000 C.ar    1  LIG1        0.0733
     20 C          -2.7710    0.6500    0.0000 C.ar    1  LIG1        0.1485
     21 O          -2.2460    1.4830    0.0000 O.2     1  LIG1       -0.4489
     22 C          -3.7630    0.6880    0.0000 C.ar    1  LIG1        0.0376
     23 C          -4.2920   -0.1420    0.0000 C.ar    1  LIG1        0.0031
     24 C          -3.8290   -1.0250    0.0000 C.ar    1  LIG1        0.0003
     25 C          -2.8290   -1.0630    0.0000 C.ar    1  LIG1        0.0062
     26 O          -0.8460   -1.1670    0.0000 O.2     1  LIG1       -0.2866
     27 O          -0.6960    3.1500    0.0000 O.2     1  LIG1       -0.2662
     28 C           1.2500    2.1710    0.0000 C.ar    1  LIG1        0.1921
     29 S           1.3920    3.1580    0.0000 S.2     1  LIG1       -0.0281
     30 C           2.3830    3.3170    0.0000 C.ar    1  LIG1        0.1605
     31 N           2.8380    2.4330    0.0000 N.ar    1  LIG1       -0.1374
     32 N           2.1330    1.7170    0.0000 N.ar    1  LIG1       -0.1250
@<TRIPOS>BOND
     1     1     2   am
     2     1     5    1
     3     1    28    1
     4     2     3    1
     5     2    27    2
     6     3     4   ar
     7     3    21   ar
     8     4     5    1
     9     4    18   ar
    10     5     6    1
    11     6     7   ar
    12     6    11   ar
    13     7     8   ar
    14     8     9   ar
    15     8    16    1
    16     9    10   ar
    17     9    14    1
    18    10    11   ar
    19    10    12    1
    20    12    13    1
    21    14    15    1
    22    16    17    1
    23    18    19   ar
    24    18    26    2
    25    19    20   ar
    26    19    25   ar
    27    20    21   ar
    28    20    22   ar
    29    22    23   ar
    30    23    24   ar
    31    24    25   ar
    32    28    29   ar
    33    28    32   ar
    34    29    30   ar
    35    30    31   ar
    36    31    32   ar
