@<TRIPOS>MOLECULE
32757_ChemDiv_6872-3317
 30 34 0 0 0
SMALL
GASTEIGER
Energy = 0

@<TRIPOS>ATOM
      1 N           1.2330   -1.4500    0.0000 N.am    1  LIG1       -0.2263
      2 C           2.2330   -1.3040    0.0000 C.ar    1  LIG1        0.1689
      3 N           2.6830   -0.4130    0.0000 N.ar    1  LIG1       -0.2284
      4 C           3.6880   -0.5790    0.0000 C.ar    1  LIG1        0.0633
      5 C           3.8250   -1.5500    0.0000 C.ar    1  LIG1        0.0238
      6 S           2.9420   -2.0080    0.0000 S.2     1  LIG1       -0.0558
      7 C           4.7040   -2.0080    0.0000 C.3     1  LIG1        0.0395
      8 C           4.3960    0.1170    0.0000 C.3     1  LIG1        0.0524
      9 C           0.7830   -2.3250    0.0000 C.2     1  LIG1        0.2892
     10 C          -0.1750   -2.2000    0.0000 C.ar    1  LIG1        0.1998
     11 C          -0.3420   -1.2040    0.0000 C.ar    1  LIG1        0.0784
     12 C           0.5330   -0.7540    0.0000 C.3     1  LIG1        0.1331
     13 C           0.6830    0.2330    0.0000 C.ar    1  LIG1        0.0005
     14 C          -0.1040    0.8540    0.0000 C.ar    1  LIG1       -0.0027
     15 C           0.0500    1.8500    0.0000 C.ar    1  LIG1       -0.0045
     16 C           0.9830    2.2210    0.0000 C.ar    1  LIG1       -0.0219
     17 C           1.7670    1.5880    0.0000 C.ar    1  LIG1       -0.0045
     18 C           1.6170    0.5960    0.0000 C.ar    1  LIG1       -0.0027
     19 C           1.1330    3.2170    0.0000 C.3     1  LIG1        0.0310
     20 C          -1.2790   -0.8580    0.0000 C.ar    1  LIG1        0.1995
     21 C          -2.0540   -1.4920    0.0000 C.ar    1  LIG1        0.0730
     22 C          -1.8880   -2.4830    0.0000 C.ar    1  LIG1        0.1485
     23 O          -0.9420   -2.8380    0.0000 O.2     1  LIG1       -0.4489
     24 C          -2.6580   -3.1250    0.0000 C.ar    1  LIG1        0.0373
     25 C          -3.6040   -2.7750    0.0000 C.ar    1  LIG1       -0.0011
     26 C          -3.7710   -1.7790    0.0000 C.ar    1  LIG1       -0.0216
     27 C          -2.9920   -1.1380    0.0000 C.ar    1  LIG1        0.0020
     28 C          -4.7080   -1.4210    0.0000 C.3     1  LIG1        0.0310
     29 O          -1.4380    0.1290    0.0000 O.2     1  LIG1       -0.2866
     30 O           1.2380   -3.2130    0.0000 O.2     1  LIG1       -0.2662
@<TRIPOS>BOND
     1     1     2    1
     2     1     9   am
     3     1    12    1
     4     2     3   ar
     5     2     6   ar
     6     3     4   ar
     7     4     5   ar
     8     4     8    1
     9     5     6   ar
    10     5     7    1
    11     9    10    1
    12     9    30    2
    13    10    11   ar
    14    10    23   ar
    15    11    12    1
    16    11    20   ar
    17    12    13    1
    18    13    14   ar
    19    13    18   ar
    20    14    15   ar
    21    15    16   ar
    22    16    17   ar
    23    16    19    1
    24    17    18   ar
    25    20    21   ar
    26    20    29    2
    27    21    22   ar
    28    21    27   ar
    29    22    23   ar
    30    22    24   ar
    31    24    25   ar
    32    25    26   ar
    33    26    27   ar
    34    26    28    1
