@<TRIPOS>MOLECULE
32758_ChemDiv_C561-1822
 36 40 0 0 0
SMALL
GASTEIGER
Energy = 0

@<TRIPOS>ATOM
      1 C          -2.3500    0.2460    0.0000 C.ar    1  LIG1        0.2539
      2 N          -2.3500   -0.7540    0.0000 N.ar    1  LIG1       -0.1994
      3 N          -3.3000   -1.0580    0.0000 N.ar    1  LIG1       -0.1433
      4 C          -3.8880   -0.2500    0.0000 C.ar    1  LIG1        0.1852
      5 N          -3.3000    0.5500    0.0000 N.ar    1  LIG1       -0.1891
      6 C          -4.8880   -0.2960    0.0000 C.ar    1  LIG1        0.0436
      7 C          -5.4210    0.5500    0.0000 C.ar    1  LIG1        0.0402
      8 C          -6.4170    0.5170    0.0000 C.ar    1  LIG1        0.1419
      9 C          -6.8790   -0.3710    0.0000 C.ar    1  LIG1        0.0738
     10 C          -6.3500   -1.2170    0.0000 C.ar    1  LIG1        0.1419
     11 C          -5.3460   -1.1790    0.0000 C.ar    1  LIG1        0.0402
     12 O          -6.8170   -2.1080    0.0000 O.3     1  LIG1       -0.4713
     13 C          -7.8330   -2.1460    0.0000 C.3     1  LIG1        0.2525
     14 O          -6.9710    1.3630    0.0000 O.3     1  LIG1       -0.4713
     15 C          -6.5040    2.2540    0.0000 C.3     1  LIG1        0.2525
     16 C          -1.4880   -1.2540    0.0000 C.ar    1  LIG1        0.0611
     17 C          -0.6210   -0.7540    0.0000 C.ar    1  LIG1        0.0057
     18 C          -0.6210    0.2460    0.0000 C.ar    1  LIG1        0.0597
     19 N          -1.4880    0.7420    0.0000 N.ar    1  LIG1       -0.2146
     20 C           0.2500    0.7580    0.0000 C.3     1  LIG1        0.0519
     21 C           0.2500   -1.2540    0.0000 C.3     1  LIG1        0.0384
     22 C           1.1130   -0.7500    0.0000 C.3     1  LIG1        0.0916
     23 C           1.9790   -1.2380    0.0000 C.2     1  LIG1        0.2420
     24 N           2.8420   -0.7380    0.0000 N.am    1  LIG1       -0.2005
     25 C           3.7130   -1.2380    0.0000 C.3     1  LIG1        0.1416
     26 C           4.5750   -0.7380    0.0000 C.ar    1  LIG1        0.0027
     27 C           5.4290   -1.2500    0.0000 C.ar    1  LIG1        0.0376
     28 C           6.3040   -0.7380    0.0000 C.ar    1  LIG1        0.1762
     29 C           6.3040    0.2500    0.0000 C.ar    1  LIG1        0.1764
     30 O           7.2420    0.5630    0.0000 O.3     1  LIG1       -0.4346
     31 C           7.8330   -0.2420    0.0000 C.3     1  LIG1        0.4294
     32 O           7.2540   -1.0500    0.0000 O.3     1  LIG1       -0.4346
     33 C           5.4290    0.7500    0.0000 C.ar    1  LIG1        0.0399
     34 C           4.5670    0.2500    0.0000 C.ar    1  LIG1        0.0008
     35 O           1.9960   -2.2460    0.0000 O.2     1  LIG1       -0.2733
     36 C          -1.4880   -2.2500    0.0000 C.3     1  LIG1        0.0520
@<TRIPOS>BOND
     1     1     2   ar
     2     1     5   ar
     3     1    19   ar
     4     2     3   ar
     5     2    16   ar
     6     3     4   ar
     7     4     5   ar
     8     4     6    1
     9     6     7   ar
    10     6    11   ar
    11     7     8   ar
    12     8     9   ar
    13     8    14    1
    14     9    10   ar
    15    10    11   ar
    16    10    12    1
    17    12    13    1
    18    14    15    1
    19    16    17   ar
    20    16    36    1
    21    17    18   ar
    22    17    21    1
    23    18    19   ar
    24    18    20    1
    25    21    22    1
    26    22    23    1
    27    23    24   am
    28    23    35    2
    29    24    25    1
    30    25    26    1
    31    26    27   ar
    32    26    34   ar
    33    27    28   ar
    34    28    29   ar
    35    28    32    1
    36    29    30    1
    37    29    33   ar
    38    30    31    1
    39    31    32    1
    40    33    34   ar
