@<TRIPOS>MOLECULE
32751_ChemDiv_6232-3460
 17 19 0 0 0
SMALL
GASTEIGER
Energy = 0

@<TRIPOS>ATOM
      1 C           0.8630   -0.2580    0.0000 C.ar    1  LIG1        0.1105
      2 C           0.8630   -1.2670    0.0000 C.ar    1  LIG1        0.3485
      3 O          -0.0210   -1.7540    0.0000 O.2     1  LIG1       -0.4210
      4 C          -0.8710   -1.2670    0.0000 C.ar    1  LIG1        0.1487
      5 C          -0.8710   -0.2580    0.0000 C.ar    1  LIG1        0.0347
      6 C          -0.0210    0.2330    0.0000 C.ar    1  LIG1        0.0096
      7 C          -0.0210    1.2380    0.0000 C.ar    1  LIG1       -0.0023
      8 C           0.8460    1.7250    0.0000 C.ar    1  LIG1        0.0961
      9 N           1.7130    1.2380    0.0000 N.ar    1  LIG1       -0.2261
     10 C           1.7130    0.2330    0.0000 C.ar    1  LIG1        0.1759
     11 N           2.6000   -0.2580    0.0000 N.pl3   1  LIG1       -0.1070
     12 C          -0.9130    1.7580    0.0000 C.3     1  LIG1        0.0327
     13 C          -1.7330    0.2330    0.0000 C.ar    1  LIG1        0.0030
     14 C          -2.6040   -0.2580    0.0000 C.ar    1  LIG1        0.0002
     15 C          -2.6040   -1.2670    0.0000 C.ar    1  LIG1        0.0031
     16 C          -1.7330   -1.7540    0.0000 C.ar    1  LIG1        0.0376
     17 O           1.7330   -1.7540    0.0000 O.2     1  LIG1       -0.2444
@<TRIPOS>BOND
     1     1     2   ar
     2     1     6   ar
     3     1    10   ar
     4     2     3   ar
     5     2    17    2
     6     3     4   ar
     7     4     5   ar
     8     4    16   ar
     9     5     6   ar
    10     5    13   ar
    11     6     7   ar
    12     7     8   ar
    13     7    12    1
    14     8     9   ar
    15     9    10   ar
    16    10    11    1
    17    13    14   ar
    18    14    15   ar
    19    15    16   ar
