@<TRIPOS>MOLECULE
32754_ChemDiv_C561-1783
 37 40 0 0 0
SMALL
GASTEIGER
Energy = 0

@<TRIPOS>ATOM
      1 C          -2.4670    0.9920    0.0000 C.ar    1  LIG1        0.2539
      2 N          -2.4670   -0.0040    0.0000 N.ar    1  LIG1       -0.1994
      3 N          -3.4080   -0.3170    0.0000 N.ar    1  LIG1       -0.1433
      4 C          -3.9920    0.4920    0.0000 C.ar    1  LIG1        0.1852
      5 N          -3.4080    1.2960    0.0000 N.ar    1  LIG1       -0.1891
      6 C          -4.9880    0.4460    0.0000 C.ar    1  LIG1        0.0436
      7 C          -5.5330    1.2960    0.0000 C.ar    1  LIG1        0.0402
      8 C          -6.5250    1.2540    0.0000 C.ar    1  LIG1        0.1419
      9 C          -6.9790    0.3710    0.0000 C.ar    1  LIG1        0.0738
     10 C          -6.4500   -0.4750    0.0000 C.ar    1  LIG1        0.1419
     11 C          -5.4580   -0.4290    0.0000 C.ar    1  LIG1        0.0402
     12 O          -6.9250   -1.3670    0.0000 O.3     1  LIG1       -0.4713
     13 C          -7.9290   -1.3960    0.0000 C.3     1  LIG1        0.2525
     14 O          -7.0710    2.1080    0.0000 O.3     1  LIG1       -0.4713
     15 C          -6.6170    3.0000    0.0000 C.3     1  LIG1        0.2525
     16 C          -1.6040   -0.5040    0.0000 C.ar    1  LIG1        0.0611
     17 C          -0.7330   -0.0040    0.0000 C.ar    1  LIG1        0.0057
     18 C          -0.7330    0.9920    0.0000 C.ar    1  LIG1        0.0597
     19 N          -1.6040    1.4920    0.0000 N.ar    1  LIG1       -0.2146
     20 C           0.1330    1.4960    0.0000 C.3     1  LIG1        0.0519
     21 C           0.1330   -0.5040    0.0000 C.3     1  LIG1        0.0384
     22 C           0.9960   -0.0040    0.0000 C.3     1  LIG1        0.0919
     23 C           1.8710   -0.5000    0.0000 C.2     1  LIG1        0.2459
     24 N           2.7330    0.0080    0.0000 N.am    1  LIG1       -0.1792
     25 C           3.5960   -0.5000    0.0000 C.ar    1  LIG1        0.0734
     26 C           4.4670    0.0080    0.0000 C.ar    1  LIG1        0.0168
     27 C           5.3330   -0.5000    0.0000 C.ar    1  LIG1        0.0078
     28 C           5.3330   -1.5000    0.0000 C.ar    1  LIG1        0.0757
     29 C           6.1920   -2.0000    0.0000 C.2     1  LIG1        0.3412
     30 O           6.1920   -2.9960    0.0000 O.2     1  LIG1       -0.2449
     31 O           7.0630   -1.5000    0.0000 O.3     1  LIG1       -0.4454
     32 C           7.0630   -0.5040    0.0000 C.3     1  LIG1        0.2089
     33 C           7.9290   -0.0040    0.0000 C.3     1  LIG1        0.0513
     34 C           4.4540   -2.0000    0.0000 C.ar    1  LIG1        0.0078
     35 C           3.5960   -1.5000    0.0000 C.ar    1  LIG1        0.0168
     36 O           1.8830   -1.5000    0.0000 O.2     1  LIG1       -0.2730
     37 C          -1.6040   -1.5000    0.0000 C.3     1  LIG1        0.0520
@<TRIPOS>BOND
     1     1     2   ar
     2     1     5   ar
     3     1    19   ar
     4     2     3   ar
     5     2    16   ar
     6     3     4   ar
     7     4     5   ar
     8     4     6    1
     9     6     7   ar
    10     6    11   ar
    11     7     8   ar
    12     8     9   ar
    13     8    14    1
    14     9    10   ar
    15    10    11   ar
    16    10    12    1
    17    12    13    1
    18    14    15    1
    19    16    17   ar
    20    16    37    1
    21    17    18   ar
    22    17    21    1
    23    18    19   ar
    24    18    20    1
    25    21    22    1
    26    22    23    1
    27    23    24   am
    28    23    36    2
    29    24    25    1
    30    25    26   ar
    31    25    35   ar
    32    26    27   ar
    33    27    28   ar
    34    28    29    1
    35    28    34   ar
    36    29    30    2
    37    29    31    1
    38    31    32    1
    39    32    33    1
    40    34    35   ar
