@<TRIPOS>MOLECULE
32766_ChemDiv_C561-1922
 27 29 0 0 0
SMALL
GASTEIGER
Energy = 0

@<TRIPOS>ATOM
      1 C          -3.9500    1.2460    0.0000 C.ar    1  LIG1        0.2536
      2 N          -3.9500    0.2500    0.0000 N.ar    1  LIG1       -0.1997
      3 C          -3.0880   -0.2500    0.0000 C.ar    1  LIG1        0.0611
      4 C          -2.2170    0.2500    0.0000 C.ar    1  LIG1        0.0057
      5 C          -2.2170    1.2460    0.0000 C.ar    1  LIG1        0.0597
      6 N          -3.0880    1.7460    0.0000 N.ar    1  LIG1       -0.2146
      7 C          -1.3460    1.7500    0.0000 C.3     1  LIG1        0.0519
      8 C          -1.3460   -0.2500    0.0000 C.3     1  LIG1        0.0384
      9 C          -0.4880    0.2500    0.0000 C.3     1  LIG1        0.0919
     10 C           0.3920   -0.2460    0.0000 C.2     1  LIG1        0.2459
     11 N           1.2540    0.2540    0.0000 N.am    1  LIG1       -0.1792
     12 C           2.1170   -0.2460    0.0000 C.ar    1  LIG1        0.0734
     13 C           2.1170   -1.2460    0.0000 C.ar    1  LIG1        0.0179
     14 C           2.9750   -1.7460    0.0000 C.ar    1  LIG1        0.0179
     15 C           3.8540   -1.2460    0.0000 C.ar    1  LIG1        0.0734
     16 N           4.7290   -1.7460    0.0000 N.am    1  LIG1       -0.1792
     17 C           5.6040   -1.2460    0.0000 C.2     1  LIG1        0.2461
     18 O           5.6040   -0.2460    0.0000 O.2     1  LIG1       -0.2730
     19 C           6.4710   -1.7460    0.0000 C.3     1  LIG1        0.0968
     20 C           3.8540   -0.2460    0.0000 C.ar    1  LIG1        0.0179
     21 C           2.9880    0.2540    0.0000 C.ar    1  LIG1        0.0179
     22 O           0.4000   -1.2460    0.0000 O.2     1  LIG1       -0.2730
     23 C          -3.0880   -1.2460    0.0000 C.3     1  LIG1        0.0520
     24 N          -4.8920   -0.0630    0.0000 N.ar    1  LIG1       -0.1479
     25 C          -5.4750    0.7500    0.0000 C.ar    1  LIG1        0.1627
     26 N          -4.8920    1.5500    0.0000 N.ar    1  LIG1       -0.1933
     27 C          -6.4710    0.7540    0.0000 C.3     1  LIG1        0.0757
@<TRIPOS>BOND
     1     1     2   ar
     2     1     6   ar
     3     1    26   ar
     4     2     3   ar
     5     2    24   ar
     6     3     4   ar
     7     3    23    1
     8     4     5   ar
     9     4     8    1
    10     5     6   ar
    11     5     7    1
    12     8     9    1
    13     9    10    1
    14    10    11   am
    15    10    22    2
    16    11    12    1
    17    12    13   ar
    18    12    21   ar
    19    13    14   ar
    20    14    15   ar
    21    15    16    1
    22    15    20   ar
    23    16    17   am
    24    17    18    2
    25    17    19    1
    26    20    21   ar
    27    24    25   ar
    28    25    26   ar
    29    25    27    1
