@<TRIPOS>MOLECULE
32768_ChemDiv_C561-2042
 27 29 0 0 0
SMALL
GASTEIGER
Energy = 0

@<TRIPOS>ATOM
      1 C          -1.7880   -4.2210    0.0000 C.ar    1  LIG1        0.2536
      2 N          -1.7880   -3.2250    0.0000 N.ar    1  LIG1       -0.1997
      3 C          -0.9080   -2.7250    0.0000 C.ar    1  LIG1        0.0611
      4 C          -0.0460   -3.2250    0.0000 C.ar    1  LIG1        0.0057
      5 C          -0.0540   -4.2330    0.0000 C.ar    1  LIG1        0.0597
      6 N          -0.9250   -4.7290    0.0000 N.ar    1  LIG1       -0.2146
      7 C           0.8080   -4.7460    0.0000 C.3     1  LIG1        0.0519
      8 C           0.8250   -2.7250    0.0000 C.3     1  LIG1        0.0384
      9 C           0.8250   -1.7250    0.0000 C.3     1  LIG1        0.0916
     10 C           1.6920   -1.2130    0.0000 C.2     1  LIG1        0.2417
     11 N           1.7000   -0.2170    0.0000 N.am    1  LIG1       -0.2072
     12 C           2.5670    0.2750    0.0000 C.3     1  LIG1        0.0957
     13 C           2.5790    1.2670    0.0000 C.3     1  LIG1        0.0263
     14 C           3.4460    1.7670    0.0000 C.3     1  LIG1        0.0281
     15 C           3.4460    2.7630    0.0000 C.ar    1  LIG1       -0.0221
     16 C           4.3210    3.2500    0.0000 C.ar    1  LIG1       -0.0043
     17 C           4.3210    4.2420    0.0000 C.ar    1  LIG1       -0.0003
     18 C           3.4630    4.7460    0.0000 C.ar    1  LIG1       -0.0000
     19 C           2.5960    4.2460    0.0000 C.ar    1  LIG1       -0.0003
     20 C           2.5960    3.2630    0.0000 C.ar    1  LIG1       -0.0043
     21 C           3.4290   -0.2290    0.0000 C.3     1  LIG1        0.0234
     22 O           2.5790   -1.7130    0.0000 O.2     1  LIG1       -0.2733
     23 C          -0.9080   -1.7210    0.0000 C.3     1  LIG1        0.0520
     24 N          -2.7290   -2.9170    0.0000 N.ar    1  LIG1       -0.1479
     25 C          -3.3290   -3.7250    0.0000 C.ar    1  LIG1        0.1627
     26 N          -2.7380   -4.5250    0.0000 N.ar    1  LIG1       -0.1933
     27 C          -4.3250   -3.7170    0.0000 C.3     1  LIG1        0.0757
@<TRIPOS>BOND
     1     1     2   ar
     2     1     6   ar
     3     1    26   ar
     4     2     3   ar
     5     2    24   ar
     6     3     4   ar
     7     3    23    1
     8     4     5   ar
     9     4     8    1
    10     5     6   ar
    11     5     7    1
    12     8     9    1
    13     9    10    1
    14    10    11   am
    15    10    22    2
    16    11    12    1
    17    12    13    1
    18    12    21    1
    19    13    14    1
    20    14    15    1
    21    15    16   ar
    22    15    20   ar
    23    16    17   ar
    24    17    18   ar
    25    18    19   ar
    26    19    20   ar
    27    24    25   ar
    28    25    26   ar
    29    25    27    1
