@<TRIPOS>MOLECULE
32767_ChemDiv_6392-0652
 27 29 0 0 0
SMALL
GASTEIGER
Energy = 0

@<TRIPOS>ATOM
      1 C           0.4630    0.2380    0.0000 C.ar    1  LIG1        0.1108
      2 C          -0.4080   -0.2670    0.0000 C.ar    1  LIG1        0.2355
      3 N          -1.2790    0.2380    0.0000 N.ar    1  LIG1       -0.1937
      4 C          -1.2670    1.2500    0.0000 C.ar    1  LIG1        0.1490
      5 N          -0.3920    1.7420    0.0000 N.ar    1  LIG1       -0.2578
      6 C           0.4710    1.2330    0.0000 C.ar    1  LIG1        0.2703
      7 O           1.3290    1.7380    0.0000 O.2     1  LIG1       -0.2664
      8 C          -0.3750    2.7460    0.0000 C.ar    1  LIG1        0.0843
      9 C          -1.2500    3.2630    0.0000 C.ar    1  LIG1        0.0189
     10 C          -2.1330    2.7710    0.0000 C.ar    1  LIG1        0.0003
     11 C          -2.1380    1.7540    0.0000 C.ar    1  LIG1        0.0128
     12 C          -3.0080    1.2670    0.0000 C.3     1  LIG1        0.0342
     13 O          -0.4170   -1.2580    0.0000 O.3     1  LIG1       -0.4359
     14 C          -1.2790   -1.7580    0.0000 C.ar    1  LIG1        0.1472
     15 C          -1.2790   -2.7630    0.0000 C.ar    1  LIG1        0.0381
     16 C          -2.1500   -3.2580    0.0000 C.ar    1  LIG1        0.0098
     17 C          -3.0250   -2.7580    0.0000 C.ar    1  LIG1        0.0348
     18 BR         -3.8920   -3.2580    0.0000 Br      1  LIG1       -0.0490
     19 C          -3.0250   -1.7540    0.0000 C.ar    1  LIG1        0.0098
     20 C          -2.1500   -1.2540    0.0000 C.ar    1  LIG1        0.0381
     21 C           1.3250   -0.2710    0.0000 C.2     1  LIG1        0.0244
     22 C           2.1960    0.2290    0.0000 C.2     1  LIG1        0.1252
     23 C           3.0710   -0.2830    0.0000 C.2     1  LIG1        0.2939
     24 O           3.0630   -1.2250    0.0000 O.2     1  LIG1       -0.2659
     25 N           3.8880    0.1960    0.0000 N.am    1  LIG1       -0.0831
     26 C           2.2000    1.2250    0.0000 C.1     1  LIG1        0.1051
     27 N           2.2000    2.2210    0.0000 N.1     1  LIG1       -0.1907
@<TRIPOS>BOND
     1     1     2   ar
     2     1     6   ar
     3     1    21    1
     4     2     3   ar
     5     2    13    1
     6     3     4   ar
     7     4     5   ar
     8     4    11   ar
     9     5     6   ar
    10     5     8   ar
    11     6     7    2
    12     8     9   ar
    13     9    10   ar
    14    10    11   ar
    15    11    12    1
    16    13    14    1
    17    14    15   ar
    18    14    20   ar
    19    15    16   ar
    20    16    17   ar
    21    17    18    1
    22    17    19   ar
    23    19    20   ar
    24    21    22    2
    25    22    23    1
    26    22    26    1
    27    23    24    2
    28    23    25   am
    29    26    27    3
