@<TRIPOS>MOLECULE
32764_ChemDiv_C561-1887
 21 22 0 0 0
SMALL
GASTEIGER
Energy = 0

@<TRIPOS>ATOM
      1 C          -3.0630    0.9960    0.0000 C.ar    1  LIG1        0.2536
      2 N          -3.0630   -0.0040    0.0000 N.ar    1  LIG1       -0.1997
      3 C          -2.2000   -0.5040    0.0000 C.ar    1  LIG1        0.0611
      4 C          -1.3290   -0.0040    0.0000 C.ar    1  LIG1        0.0057
      5 C          -1.3290    0.9960    0.0000 C.ar    1  LIG1        0.0597
      6 N          -2.2000    1.4960    0.0000 N.ar    1  LIG1       -0.2146
      7 C          -0.4580    1.5040    0.0000 C.3     1  LIG1        0.0519
      8 C          -0.4580   -0.5040    0.0000 C.3     1  LIG1        0.0384
      9 C           0.4040    0.0080    0.0000 C.3     1  LIG1        0.0916
     10 C           1.2710   -0.4920    0.0000 C.2     1  LIG1        0.2417
     11 O           1.2880   -1.4920    0.0000 O.2     1  LIG1       -0.2733
     12 N           2.1330    0.0080    0.0000 N.am    1  LIG1       -0.2054
     13 C           3.0080   -0.4920    0.0000 C.3     1  LIG1        0.1151
     14 C           3.8580    0.0130    0.0000 C.3     1  LIG1        0.0234
     15 C           4.7290   -0.4880    0.0000 C.3     1  LIG1        0.0018
     16 C           5.5920    0.0130    0.0000 C.3     1  LIG1        0.0001
     17 C          -2.2000   -1.5000    0.0000 C.3     1  LIG1        0.0520
     18 N          -4.0080   -0.3130    0.0000 N.ar    1  LIG1       -0.1479
     19 C          -4.6000    0.5080    0.0000 C.ar    1  LIG1        0.1627
     20 N          -4.0080    1.3080    0.0000 N.ar    1  LIG1       -0.1933
     21 C          -5.5960    0.4630    0.0000 C.3     1  LIG1        0.0757
@<TRIPOS>BOND
     1     1     2   ar
     2     1     6   ar
     3     1    20   ar
     4     2     3   ar
     5     2    18   ar
     6     3     4   ar
     7     3    17    1
     8     4     5   ar
     9     4     8    1
    10     5     6   ar
    11     5     7    1
    12     8     9    1
    13     9    10    1
    14    10    11    2
    15    10    12   am
    16    12    13    1
    17    13    14    1
    18    14    15    1
    19    15    16    1
    20    18    19   ar
    21    19    20   ar
    22    19    21    1
