@<TRIPOS>MOLECULE
32763_ChemDiv_6392-0203
 33 36 0 0 0
SMALL
GASTEIGER
Energy = 0

@<TRIPOS>ATOM
      1 C          -1.3580    0.7460    0.0000 C.ar    1  LIG1        0.1108
      2 C          -2.2500    0.2460    0.0000 C.ar    1  LIG1        0.2355
      3 N          -3.1210    0.7540    0.0000 N.ar    1  LIG1       -0.1934
      4 C          -3.1130    1.7670    0.0000 C.ar    1  LIG1        0.1531
      5 N          -2.2210    2.2710    0.0000 N.ar    1  LIG1       -0.2576
      6 C          -1.3540    1.7630    0.0000 C.ar    1  LIG1        0.2703
      7 O          -0.4790    2.2710    0.0000 O.2     1  LIG1       -0.2664
      8 C          -2.2040    3.2830    0.0000 C.ar    1  LIG1        0.0844
      9 C          -3.0830    3.8080    0.0000 C.ar    1  LIG1        0.0192
     10 C          -3.9750    3.3080    0.0000 C.ar    1  LIG1        0.0046
     11 C          -3.9920    2.2880    0.0000 C.ar    1  LIG1        0.0376
     12 O          -2.2500   -0.7710    0.0000 O.3     1  LIG1       -0.4359
     13 C          -3.1290   -1.2670    0.0000 C.ar    1  LIG1        0.1469
     14 C          -3.1290   -2.2830    0.0000 C.ar    1  LIG1        0.0333
     15 C          -4.0080   -2.7920    0.0000 C.ar    1  LIG1       -0.0188
     16 C          -4.8920   -2.2750    0.0000 C.ar    1  LIG1       -0.0041
     17 C          -4.8920   -1.2630    0.0000 C.ar    1  LIG1        0.0028
     18 C          -4.0080   -0.7540    0.0000 C.ar    1  LIG1        0.0375
     19 C          -4.0080   -3.8040    0.0000 C.3     1  LIG1        0.0311
     20 C          -0.4920    0.2380    0.0000 C.2     1  LIG1        0.0244
     21 C           0.3920    0.7290    0.0000 C.2     1  LIG1        0.1236
     22 C           1.2710    0.2210    0.0000 C.2     1  LIG1        0.2745
     23 N           2.1000    0.6960    0.0000 N.am    1  LIG1       -0.2010
     24 C           2.9290    0.2040    0.0000 C.3     1  LIG1        0.1209
     25 C           3.0250   -0.7420    0.0000 C.3     1  LIG1        0.1724
     26 S           3.9630   -0.9460    0.0000 S.O2    1  LIG1       -0.0082
     27 O           3.4710   -1.7750    0.0000 O.2     1  LIG1       -0.1729
     28 O           4.8880   -1.1960    0.0000 O.2     1  LIG1       -0.1729
     29 C           4.4460   -0.1290    0.0000 C.3     1  LIG1        0.1527
     30 C           3.8080    0.5960    0.0000 C.3     1  LIG1        0.0488
     31 O           1.2630   -0.7420    0.0000 O.2     1  LIG1       -0.2676
     32 C           0.3920    1.7460    0.0000 C.1     1  LIG1        0.1051
     33 N           0.4000    2.7630    0.0000 N.1     1  LIG1       -0.1907
@<TRIPOS>BOND
     1     1     2   ar
     2     1     6   ar
     3     1    20    1
     4     2     3   ar
     5     2    12    1
     6     3     4   ar
     7     4     5   ar
     8     4    11   ar
     9     5     6   ar
    10     5     8   ar
    11     6     7    2
    12     8     9   ar
    13     9    10   ar
    14    10    11   ar
    15    12    13    1
    16    13    14   ar
    17    13    18   ar
    18    14    15   ar
    19    15    16   ar
    20    15    19    1
    21    16    17   ar
    22    17    18   ar
    23    20    21    2
    24    21    22    1
    25    21    32    1
    26    22    23   am
    27    22    31    2
    28    23    24    1
    29    24    25    1
    30    24    30    1
    31    25    26    1
    32    26    27    2
    33    26    28    2
    34    26    29    1
    35    29    30    1
    36    32    33    3
