@<TRIPOS>MOLECULE
32765_ChemDiv_6392-0837
 35 37 0 0 0
SMALL
GASTEIGER
Energy = 0

@<TRIPOS>ATOM
      1 C          -0.8630    0.7540    0.0000 C.ar    1  LIG1        0.1108
      2 C          -1.7250    0.2630    0.0000 C.ar    1  LIG1        0.2355
      3 N          -2.5920    0.7670    0.0000 N.ar    1  LIG1       -0.1937
      4 C          -2.5790    1.7630    0.0000 C.ar    1  LIG1        0.1490
      5 N          -1.7080    2.2580    0.0000 N.ar    1  LIG1       -0.2578
      6 C          -0.8630    1.7540    0.0000 C.ar    1  LIG1        0.2703
      7 O           0.0040    2.2500    0.0000 O.2     1  LIG1       -0.2664
      8 C          -1.6960    3.2580    0.0000 C.ar    1  LIG1        0.0843
      9 C          -2.5630    3.7880    0.0000 C.ar    1  LIG1        0.0189
     10 C          -3.4380    3.2920    0.0000 C.ar    1  LIG1        0.0003
     11 C          -3.4460    2.2670    0.0000 C.ar    1  LIG1        0.0128
     12 C          -4.3130    1.7790    0.0000 C.3     1  LIG1        0.0342
     13 O          -1.7250   -0.7330    0.0000 O.3     1  LIG1       -0.4359
     14 C          -2.5920   -1.2290    0.0000 C.ar    1  LIG1        0.1472
     15 C          -3.4630   -0.7290    0.0000 C.ar    1  LIG1        0.0372
     16 C          -4.3170   -1.2210    0.0000 C.ar    1  LIG1       -0.0011
     17 C          -4.3170   -2.2170    0.0000 C.ar    1  LIG1       -0.0220
     18 C          -3.4580   -2.7290    0.0000 C.ar    1  LIG1       -0.0011
     19 C          -2.5960   -2.2330    0.0000 C.ar    1  LIG1        0.0372
     20 C          -5.1920   -2.7250    0.0000 C.3     1  LIG1        0.0264
     21 C          -6.0540   -2.2170    0.0000 C.3     1  LIG1        0.0050
     22 C           0.0040    0.2540    0.0000 C.2     1  LIG1        0.0244
     23 C           0.8710    0.7500    0.0000 C.2     1  LIG1        0.1236
     24 C           1.7330    0.2380    0.0000 C.2     1  LIG1        0.2745
     25 O           1.7330   -0.7630    0.0000 O.2     1  LIG1       -0.2676
     26 N           2.6000    0.7380    0.0000 N.am    1  LIG1       -0.2010
     27 C           3.4670    0.2380    0.0000 C.3     1  LIG1        0.1181
     28 C           3.4670   -0.7710    0.0000 C.3     1  LIG1        0.0555
     29 C           4.3290   -1.2750    0.0000 C.3     1  LIG1        0.1439
     30 O           4.3250   -2.2710    0.0000 O.3     1  LIG1       -0.3562
     31 C           5.1790   -2.7830    0.0000 C.3     1  LIG1        0.1154
     32 C           5.1790   -3.7830    0.0000 C.3     1  LIG1        0.0320
     33 C           6.0540   -2.2880    0.0000 C.3     1  LIG1        0.0320
     34 C           0.8710    1.7380    0.0000 C.1     1  LIG1        0.1051
     35 N           0.8710    2.7330    0.0000 N.1     1  LIG1       -0.1907
@<TRIPOS>BOND
     1     1     2   ar
     2     1     6   ar
     3     1    22    1
     4     2     3   ar
     5     2    13    1
     6     3     4   ar
     7     4     5   ar
     8     4    11   ar
     9     5     6   ar
    10     5     8   ar
    11     6     7    2
    12     8     9   ar
    13     9    10   ar
    14    10    11   ar
    15    11    12    1
    16    13    14    1
    17    14    15   ar
    18    14    19   ar
    19    15    16   ar
    20    16    17   ar
    21    17    18   ar
    22    17    20    1
    23    18    19   ar
    24    20    21    1
    25    22    23    2
    26    23    24    1
    27    23    34    1
    28    24    25    2
    29    24    26   am
    30    26    27    1
    31    27    28    1
    32    28    29    1
    33    29    30    1
    34    30    31    1
    35    31    32    1
    36    31    33    1
    37    34    35    3
