@<TRIPOS>MOLECULE
32760_ChemDiv_C561-1824
 35 38 0 0 0
SMALL
GASTEIGER
Energy = 0

@<TRIPOS>ATOM
      1 C          -2.3830    0.2460    0.0000 C.ar    1  LIG1        0.2539
      2 N          -2.3830   -0.7540    0.0000 N.ar    1  LIG1       -0.1994
      3 N          -3.3250   -1.0630    0.0000 N.ar    1  LIG1       -0.1433
      4 C          -3.9130   -0.2460    0.0000 C.ar    1  LIG1        0.1852
      5 N          -3.3250    0.5580    0.0000 N.ar    1  LIG1       -0.1891
      6 C          -4.9080   -0.2920    0.0000 C.ar    1  LIG1        0.0436
      7 C          -5.4540    0.5580    0.0000 C.ar    1  LIG1        0.0402
      8 C          -6.4500    0.5130    0.0000 C.ar    1  LIG1        0.1419
      9 C          -6.9040   -0.3670    0.0000 C.ar    1  LIG1        0.0738
     10 C          -6.3750   -1.2130    0.0000 C.ar    1  LIG1        0.1419
     11 C          -5.3790   -1.1790    0.0000 C.ar    1  LIG1        0.0402
     12 O          -6.8460   -2.1040    0.0000 O.3     1  LIG1       -0.4713
     13 C          -7.8540   -2.1460    0.0000 C.3     1  LIG1        0.2525
     14 O          -6.9920    1.3630    0.0000 O.3     1  LIG1       -0.4713
     15 C          -6.5380    2.2540    0.0000 C.3     1  LIG1        0.2525
     16 C          -1.5210   -1.2540    0.0000 C.ar    1  LIG1        0.0611
     17 C          -0.6500   -0.7540    0.0000 C.ar    1  LIG1        0.0057
     18 C          -0.6500    0.2460    0.0000 C.ar    1  LIG1        0.0597
     19 N          -1.5210    0.7420    0.0000 N.ar    1  LIG1       -0.2146
     20 C           0.2170    0.7540    0.0000 C.3     1  LIG1        0.0519
     21 C           0.2170   -1.2540    0.0000 C.3     1  LIG1        0.0384
     22 C           1.0790   -0.7460    0.0000 C.3     1  LIG1        0.0916
     23 C           1.9580   -1.2420    0.0000 C.2     1  LIG1        0.2417
     24 O           1.9670   -2.2420    0.0000 O.2     1  LIG1       -0.2733
     25 N           2.8210   -0.7460    0.0000 N.am    1  LIG1       -0.2054
     26 C           3.6790   -1.2420    0.0000 C.3     1  LIG1        0.1169
     27 C           4.5420   -0.7380    0.0000 C.3     1  LIG1        0.0449
     28 C           5.4170   -1.2290    0.0000 C.3     1  LIG1        0.0952
     29 N           6.2790   -0.7290    0.0000 N.am    1  LIG1       -0.2795
     30 C           7.1920   -1.1210    0.0000 C.2     1  LIG1        0.2257
     31 O           7.4000   -2.1000    0.0000 O.2     1  LIG1       -0.2749
     32 C           7.8540   -0.3790    0.0000 C.3     1  LIG1        0.0870
     33 C           7.3500    0.4790    0.0000 C.3     1  LIG1        0.0311
     34 C           6.3750    0.2710    0.0000 C.3     1  LIG1        0.0939
     35 C          -1.5210   -2.2500    0.0000 C.3     1  LIG1        0.0520
@<TRIPOS>BOND
     1     1     2   ar
     2     1     5   ar
     3     1    19   ar
     4     2     3   ar
     5     2    16   ar
     6     3     4   ar
     7     4     5   ar
     8     4     6    1
     9     6     7   ar
    10     6    11   ar
    11     7     8   ar
    12     8     9   ar
    13     8    14    1
    14     9    10   ar
    15    10    11   ar
    16    10    12    1
    17    12    13    1
    18    14    15    1
    19    16    17   ar
    20    16    35    1
    21    17    18   ar
    22    17    21    1
    23    18    19   ar
    24    18    20    1
    25    21    22    1
    26    22    23    1
    27    23    24    2
    28    23    25   am
    29    25    26    1
    30    26    27    1
    31    27    28    1
    32    28    29    1
    33    29    30   am
    34    29    34    1
    35    30    31    2
    36    30    32    1
    37    32    33    1
    38    33    34    1
