@<TRIPOS>MOLECULE
32762_ChemDiv_C561-1844
 25 27 0 0 0
SMALL
GASTEIGER
Energy = 0

@<TRIPOS>ATOM
      1 C          -3.0670    1.7380    0.0000 C.ar    1  LIG1        0.2536
      2 N          -3.0670    0.7420    0.0000 N.ar    1  LIG1       -0.1997
      3 C          -2.2040    0.2420    0.0000 C.ar    1  LIG1        0.0611
      4 C          -1.3420    0.7420    0.0000 C.ar    1  LIG1        0.0057
      5 C          -1.3420    1.7380    0.0000 C.ar    1  LIG1        0.0597
      6 N          -2.2040    2.2380    0.0000 N.ar    1  LIG1       -0.2146
      7 C          -0.4670    2.2540    0.0000 C.3     1  LIG1        0.0519
      8 C          -0.4670    0.2420    0.0000 C.3     1  LIG1        0.0384
      9 C           0.3960    0.7460    0.0000 C.3     1  LIG1        0.0919
     10 C           1.2670    0.2580    0.0000 C.2     1  LIG1        0.2459
     11 N           2.1290    0.7540    0.0000 N.am    1  LIG1       -0.1792
     12 C           2.9960    0.2580    0.0000 C.ar    1  LIG1        0.0733
     13 C           2.9920   -0.7500    0.0000 C.ar    1  LIG1        0.0163
     14 C           3.8580   -1.2540    0.0000 C.ar    1  LIG1       -0.0029
     15 C           4.7210   -0.7500    0.0000 C.ar    1  LIG1       -0.0221
     16 C           4.7210    0.2580    0.0000 C.ar    1  LIG1       -0.0029
     17 C           3.8580    0.7540    0.0000 C.ar    1  LIG1        0.0163
     18 C           5.5920   -1.2500    0.0000 C.3     1  LIG1        0.0264
     19 C           5.5920   -2.2500    0.0000 C.3     1  LIG1        0.0050
     20 O           1.2750   -0.7500    0.0000 O.2     1  LIG1       -0.2730
     21 C          -2.2040   -0.7580    0.0000 C.3     1  LIG1        0.0520
     22 N          -4.0210    0.4380    0.0000 N.ar    1  LIG1       -0.1479
     23 C          -4.6080    1.2460    0.0000 C.ar    1  LIG1        0.1627
     24 N          -4.0210    2.0460    0.0000 N.ar    1  LIG1       -0.1933
     25 C          -5.5960    1.2000    0.0000 C.3     1  LIG1        0.0757
@<TRIPOS>BOND
     1     1     2   ar
     2     1     6   ar
     3     1    24   ar
     4     2     3   ar
     5     2    22   ar
     6     3     4   ar
     7     3    21    1
     8     4     5   ar
     9     4     8    1
    10     5     6   ar
    11     5     7    1
    12     8     9    1
    13     9    10    1
    14    10    11   am
    15    10    20    2
    16    11    12    1
    17    12    13   ar
    18    12    17   ar
    19    13    14   ar
    20    14    15   ar
    21    15    16   ar
    22    15    18    1
    23    16    17   ar
    24    18    19    1
    25    22    23   ar
    26    23    24   ar
    27    23    25    1
