@<TRIPOS>MOLECULE
32770_ChemDiv_8012-8728
 16 17 0 0 0
SMALL
GASTEIGER
Energy = 0

@<TRIPOS>ATOM
      1 S           0.8330   -0.2130    0.0000 S.O2    1  LIG1        0.0826
      2 C          -0.1630    0.0040    0.0000 C.ar    1  LIG1        0.1947
      3 C          -0.8330   -0.7250    0.0000 C.ar    1  LIG1        0.3030
      4 N          -1.8130   -0.5170    0.0000 N.ar    1  LIG1       -0.1505
      5 C          -2.1130    0.4250    0.0000 C.ar    1  LIG1        0.3712
      6 N          -1.4420    1.1500    0.0000 N.ar    1  LIG1       -0.1936
      7 C          -0.4670    0.9420    0.0000 C.ar    1  LIG1        0.0875
      8 C           0.1960    1.7040    0.0000 C.3     1  LIG1        0.0539
      9 O          -3.1130    0.6380    0.0000 O.2     1  LIG1       -0.2425
     10 O          -0.5630   -1.7000    0.0000 O.2     1  LIG1       -0.2635
     11 N           1.8040   -0.3920    0.0000 N.3     1  LIG1       -0.0791
     12 C           2.4710    0.3630    0.0000 C.3     1  LIG1        0.0978
     13 C           3.1080    1.1210    0.0000 C.3     1  LIG1        0.0208
     14 C           2.1380    1.3040    0.0000 C.3     1  LIG1        0.0208
     15 O           0.6170   -1.1790    0.0000 O.2     1  LIG1       -0.1514
     16 O           1.0170    0.7920    0.0000 O.2     1  LIG1       -0.1514
@<TRIPOS>BOND
     1     1     2    1
     2     1    11    1
     3     1    15    2
     4     1    16    2
     5     2     3   ar
     6     2     7   ar
     7     3     4   ar
     8     3    10    2
     9     4     5   ar
    10     5     6   ar
    11     5     9    2
    12     6     7   ar
    13     7     8    1
    14    11    12    1
    15    12    13    1
    16    12    14    1
    17    13    14    1
