@<TRIPOS>MOLECULE
32774_ChemDiv_C211-0054
 32 35 0 0 0
SMALL
GASTEIGER
Energy = 0

@<TRIPOS>ATOM
      1 S          -1.7420    1.4330    0.0000 S.O2    1  LIG1        0.0695
      2 C          -2.6040    1.9380    0.0000 C.ar    1  LIG1        0.1933
      3 C          -3.4710    1.4420    0.0000 C.ar    1  LIG1        0.3029
      4 N          -4.3290    1.9380    0.0000 N.ar    1  LIG1       -0.1505
      5 C          -4.3290    2.9380    0.0000 C.ar    1  LIG1        0.3712
      6 N          -3.4710    3.4420    0.0000 N.ar    1  LIG1       -0.1936
      7 C          -2.6040    2.9380    0.0000 C.ar    1  LIG1        0.0874
      8 C          -1.7420    3.4420    0.0000 C.3     1  LIG1        0.0539
      9 O          -5.1920    3.4500    0.0000 O.2     1  LIG1       -0.2425
     10 O          -3.4710    0.4500    0.0000 O.2     1  LIG1       -0.2635
     11 N          -0.8830    0.9290    0.0000 N.3     1  LIG1       -0.1431
     12 C          -0.0880    1.4170    0.0000 C.3     1  LIG1        0.1585
     13 C           0.7790    0.9290    0.0000 C.3     1  LIG1        0.1587
     14 N           0.7960   -0.0290    0.0000 N.4     1  LIG1        0.3815
     15 C           1.6710   -0.5250    0.0000 C.3     1  LIG1        0.1331
     16 C           2.3920   -0.0880    0.0000 C.ar    1  LIG1        0.0328
     17 C           2.3920    0.9170    0.0000 C.ar    1  LIG1        0.0024
     18 C           3.2500    1.4290    0.0000 C.ar    1  LIG1        0.0113
     19 C           4.1630    0.9080    0.0000 C.ar    1  LIG1        0.0577
     20 C           4.1630   -0.0880    0.0000 C.ar    1  LIG1        0.0113
     21 C           3.2960   -0.6000    0.0000 C.ar    1  LIG1        0.0024
     22 CL          5.1880    1.5330    0.0000 Cl      1  LIG1       -0.0822
     23 C           1.6380   -1.4130    0.0000 C.ar    1  LIG1        0.0328
     24 C           0.7790   -1.9130    0.0000 C.ar    1  LIG1        0.0016
     25 C           0.7710   -2.9290    0.0000 C.ar    1  LIG1       -0.0001
     26 C           1.6830   -3.4460    0.0000 C.ar    1  LIG1       -0.0000
     27 C           2.5460   -2.9170    0.0000 C.ar    1  LIG1       -0.0001
     28 C           2.5460   -1.9380    0.0000 C.ar    1  LIG1        0.0016
     29 C          -0.0630   -0.5580    0.0000 C.3     1  LIG1        0.1587
     30 C          -0.9290   -0.0580    0.0000 C.3     1  LIG1        0.1585
     31 O          -2.2420    0.5710    0.0000 O.2     1  LIG1       -0.1526
     32 O          -1.2290    2.3000    0.0000 O.2     1  LIG1       -0.1526
@<TRIPOS>BOND
     1     1     2    1
     2     1    11    1
     3     1    31    2
     4     1    32    2
     5     2     3   ar
     6     2     7   ar
     7     3     4   ar
     8     3    10    2
     9     4     5   ar
    10     5     6   ar
    11     5     9    2
    12     6     7   ar
    13     7     8    1
    14    11    12    1
    15    11    30    1
    16    12    13    1
    17    13    14    1
    18    14    15    1
    19    14    29    1
    20    15    16    1
    21    15    23    1
    22    16    17   ar
    23    16    21   ar
    24    17    18   ar
    25    18    19   ar
    26    19    20   ar
    27    19    22    1
    28    20    21   ar
    29    23    24   ar
    30    23    28   ar
    31    24    25   ar
    32    25    26   ar
    33    26    27   ar
    34    27    28   ar
    35    29    30    1
