@<TRIPOS>MOLECULE
32772_ChemDiv_8012-9032
 26 29 0 0 0
SMALL
GASTEIGER
Energy = 0

@<TRIPOS>ATOM
      1 S           0.5500    0.4330    0.0000 S.O2    1  LIG1        0.0826
      2 C           1.5540    0.4330    0.0000 C.ar    1  LIG1        0.1947
      3 C           2.0670   -0.4290    0.0000 C.ar    1  LIG1        0.3030
      4 N           3.0750   -0.4290    0.0000 N.ar    1  LIG1       -0.1505
      5 C           3.5540    0.4330    0.0000 C.ar    1  LIG1        0.3712
      6 N           3.0540    1.2960    0.0000 N.ar    1  LIG1       -0.1936
      7 C           2.0460    1.2960    0.0000 C.ar    1  LIG1        0.0875
      8 C           1.5540    2.1710    0.0000 C.3     1  LIG1        0.0539
      9 O           4.5420    0.4330    0.0000 O.2     1  LIG1       -0.2425
     10 O           1.5710   -1.3080    0.0000 O.2     1  LIG1       -0.2635
     11 N          -0.4460    0.4330    0.0000 N.3     1  LIG1       -0.0791
     12 C          -0.9420   -0.4290    0.0000 C.3     1  LIG1        0.0976
     13 C          -1.9250   -0.4290    0.0000 C.3     1  LIG1        0.0166
     14 C          -2.9330   -0.4290    0.0000 C.3     1  LIG1        0.0014
     15 C          -3.6540   -1.1460    0.0000 C.3     1  LIG1        0.0000
     16 C          -3.1960   -2.0250    0.0000 C.3     1  LIG1        0.0000
     17 C          -2.2170   -1.8580    0.0000 C.3     1  LIG1        0.0000
     18 C          -1.9250   -1.4330    0.0000 C.3     1  LIG1        0.0014
     19 C          -3.0790   -1.3630    0.0000 C.3     1  LIG1        0.0000
     20 C          -3.5750   -0.4830    0.0000 C.3     1  LIG1        0.0000
     21 C          -3.1540    0.4130    0.0000 C.3     1  LIG1        0.0014
     22 C          -4.5460   -0.7000    0.0000 C.3     1  LIG1        0.0000
     23 C          -0.4460   -1.3080    0.0000 C.3     1  LIG1        0.0193
     24 C          -0.9420   -2.1670    0.0000 C.3     1  LIG1        0.0015
     25 O           0.5500   -0.5750    0.0000 O.2     1  LIG1       -0.1514
     26 O           0.5500    1.4380    0.0000 O.2     1  LIG1       -0.1514
@<TRIPOS>BOND
     1     1     2    1
     2     1    11    1
     3     1    25    2
     4     1    26    2
     5     2     3   ar
     6     2     7   ar
     7     3     4   ar
     8     3    10    2
     9     4     5   ar
    10     5     6   ar
    11     5     9    2
    12     6     7   ar
    13     7     8    1
    14    11    12    1
    15    12    13    1
    16    12    23    1
    17    13    14    1
    18    13    18    1
    19    13    21    1
    20    14    15    1
    21    15    16    1
    22    15    22    1
    23    16    17    1
    24    17    18    1
    25    17    19    1
    26    19    20    1
    27    20    21    1
    28    20    22    1
    29    23    24    1
