@<TRIPOS>MOLECULE
32785_ChemDiv_6392-0716
 30 32 0 0 0
SMALL
GASTEIGER
Energy = 0

@<TRIPOS>ATOM
      1 C           0.4380    0.2420    0.0000 C.ar    1  LIG1        0.1109
      2 C          -0.4380   -0.2500    0.0000 C.ar    1  LIG1        0.2355
      3 N          -1.3000    0.2420    0.0000 N.ar    1  LIG1       -0.1937
      4 C          -1.2830    1.2460    0.0000 C.ar    1  LIG1        0.1490
      5 N          -0.4210    1.7420    0.0000 N.ar    1  LIG1       -0.2578
      6 C           0.4460    1.2290    0.0000 C.ar    1  LIG1        0.2703
      7 O           1.3040    1.7420    0.0000 O.2     1  LIG1       -0.2664
      8 C          -0.4000    2.7330    0.0000 C.ar    1  LIG1        0.0843
      9 C          -1.2670    3.2460    0.0000 C.ar    1  LIG1        0.0189
     10 C          -2.1460    2.7540    0.0000 C.ar    1  LIG1        0.0003
     11 C          -2.1540    1.7460    0.0000 C.ar    1  LIG1        0.0128
     12 C          -3.0290    1.2670    0.0000 C.3     1  LIG1        0.0342
     13 O          -0.4380   -1.2540    0.0000 O.3     1  LIG1       -0.4359
     14 C          -1.3000   -1.7500    0.0000 C.ar    1  LIG1        0.1474
     15 C          -2.1670   -1.2380    0.0000 C.ar    1  LIG1        0.0407
     16 C          -3.0330   -1.7420    0.0000 C.ar    1  LIG1        0.0400
     17 C          -3.0330   -2.7380    0.0000 C.ar    1  LIG1        0.1389
     18 C          -2.1670   -3.2420    0.0000 C.ar    1  LIG1        0.0400
     19 C          -1.3000   -2.7500    0.0000 C.ar    1  LIG1        0.0407
     20 O          -3.9080   -3.2420    0.0000 O.3     1  LIG1       -0.4714
     21 C          -4.7630   -2.7380    0.0000 C.3     1  LIG1        0.2525
     22 C           1.2920   -0.2670    0.0000 C.2     1  LIG1        0.0263
     23 C           2.1540    0.2250    0.0000 C.2     1  LIG1        0.1441
     24 C           3.0290   -0.2790    0.0000 C.2     1  LIG1        0.3510
     25 O           3.0210   -1.2750    0.0000 O.2     1  LIG1       -0.2441
     26 O           3.8960    0.2250    0.0000 O.3     1  LIG1       -0.4450
     27 C           4.7580   -0.2880    0.0000 C.3     1  LIG1        0.2089
     28 C           4.7460   -1.2830    0.0000 C.3     1  LIG1        0.0513
     29 C           2.1670    1.2170    0.0000 C.1     1  LIG1        0.1070
     30 N           2.1710    2.2170    0.0000 N.1     1  LIG1       -0.1906
@<TRIPOS>BOND
     1     1     2   ar
     2     1     6   ar
     3     1    22    1
     4     2     3   ar
     5     2    13    1
     6     3     4   ar
     7     4     5   ar
     8     4    11   ar
     9     5     6   ar
    10     5     8   ar
    11     6     7    2
    12     8     9   ar
    13     9    10   ar
    14    10    11   ar
    15    11    12    1
    16    13    14    1
    17    14    15   ar
    18    14    19   ar
    19    15    16   ar
    20    16    17   ar
    21    17    18   ar
    22    17    20    1
    23    18    19   ar
    24    20    21    1
    25    22    23    2
    26    23    24    1
    27    23    29    1
    28    24    25    2
    29    24    26    1
    30    26    27    1
    31    27    28    1
    32    29    30    3
