@<TRIPOS>MOLECULE
32780_ChemDiv_E214-0432
 23 25 0 0 0
SMALL
GASTEIGER
Energy = 0

@<TRIPOS>ATOM
      1 S           0.7130    0.0000    0.0000 S.O2    1  LIG1        0.0691
      2 C           1.7080    0.0000    0.0000 C.ar    1  LIG1        0.1933
      3 C           2.2130    0.8710    0.0000 C.ar    1  LIG1        0.3029
      4 N           3.2080    0.8710    0.0000 N.ar    1  LIG1       -0.1505
      5 C           3.7130    0.0000    0.0000 C.ar    1  LIG1        0.3712
      6 N           3.2080   -0.8630    0.0000 N.ar    1  LIG1       -0.1936
      7 C           2.2130   -0.8630    0.0000 C.ar    1  LIG1        0.0874
      8 C           1.7080   -1.7290    0.0000 C.3     1  LIG1        0.0539
      9 O           4.7130    0.0000    0.0000 O.2     1  LIG1       -0.2425
     10 O           1.7080    1.7330    0.0000 O.2     1  LIG1       -0.2635
     11 N          -0.1540    0.5040    0.0000 N.3     1  LIG1       -0.1550
     12 C          -1.0670    0.1000    0.0000 C.3     1  LIG1        0.1001
     13 C          -1.7380    0.8380    0.0000 C.3     1  LIG1        0.0415
     14 C          -1.2380    1.7040    0.0000 C.3     1  LIG1        0.0249
     15 C          -0.2540    1.5000    0.0000 C.3     1  LIG1        0.0962
     16 C          -2.7290    0.7380    0.0000 C.ar    1  LIG1       -0.0211
     17 C          -3.3170    1.5420    0.0000 C.ar    1  LIG1       -0.0042
     18 C          -4.3130    1.4420    0.0000 C.ar    1  LIG1       -0.0003
     19 C          -4.7170    0.5250    0.0000 C.ar    1  LIG1       -0.0000
     20 C          -4.1290   -0.2830    0.0000 C.ar    1  LIG1       -0.0003
     21 C          -3.1380   -0.1790    0.0000 C.ar    1  LIG1       -0.0042
     22 O           0.2130    0.8710    0.0000 O.2     1  LIG1       -0.1526
     23 O           0.2130   -0.8630    0.0000 O.2     1  LIG1       -0.1526
@<TRIPOS>BOND
     1     1     2    1
     2     1    11    1
     3     1    22    2
     4     1    23    2
     5     2     3   ar
     6     2     7   ar
     7     3     4   ar
     8     3    10    2
     9     4     5   ar
    10     5     6   ar
    11     5     9    2
    12     6     7   ar
    13     7     8    1
    14    11    12    1
    15    11    15    1
    16    12    13    1
    17    13    14    1
    18    13    16    1
    19    14    15    1
    20    16    17   ar
    21    16    21   ar
    22    17    18   ar
    23    18    19   ar
    24    19    20   ar
    25    20    21   ar
