@<TRIPOS>MOLECULE
32788_ChemDiv_C561-2506
 26 29 0 0 0
SMALL
GASTEIGER
Energy = 0

@<TRIPOS>ATOM
      1 N          -2.6170   -2.2920    0.0000 N.ar    1  LIG1       -0.1587
      2 C          -2.6170   -3.3000    0.0000 C.ar    1  LIG1        0.2568
      3 N          -1.7460   -3.7960    0.0000 N.ar    1  LIG1       -0.2144
      4 C          -0.8790   -3.3000    0.0000 C.ar    1  LIG1        0.0631
      5 C          -0.8790   -2.2920    0.0000 C.ar    1  LIG1        0.0499
      6 C          -1.7460   -1.7880    0.0000 C.ar    1  LIG1        0.2800
      7 O          -1.7540   -0.7790    0.0000 O.3     1  LIG1       -0.2654
      8 C          -0.0170   -1.7750    0.0000 C.3     1  LIG1        0.0421
      9 C           0.8580   -2.2750    0.0000 C.3     1  LIG1        0.0917
     10 C           1.7210   -1.7750    0.0000 C.2     1  LIG1        0.2420
     11 N           1.7210   -0.7790    0.0000 N.am    1  LIG1       -0.2005
     12 C           2.5830   -0.2750    0.0000 C.3     1  LIG1        0.1416
     13 C           2.5790    0.7210    0.0000 C.ar    1  LIG1        0.0027
     14 C           3.4380    1.2210    0.0000 C.ar    1  LIG1        0.0376
     15 C           3.4290    2.2290    0.0000 C.ar    1  LIG1        0.1762
     16 C           2.5630    2.7130    0.0000 C.ar    1  LIG1        0.1764
     17 O           2.7580    3.6830    0.0000 O.3     1  LIG1       -0.4346
     18 C           3.7460    3.8000    0.0000 C.3     1  LIG1        0.4294
     19 O           4.1540    2.8960    0.0000 O.3     1  LIG1       -0.4346
     20 C           1.7000    2.2000    0.0000 C.ar    1  LIG1        0.0399
     21 C           1.7040    1.2040    0.0000 C.ar    1  LIG1        0.0008
     22 O           2.5920   -2.2750    0.0000 O.2     1  LIG1       -0.2733
     23 C          -0.0080   -3.7960    0.0000 C.3     1  LIG1        0.0520
     24 N          -3.5710   -3.6040    0.0000 N.ar    1  LIG1       -0.1861
     25 C          -4.1580   -2.8000    0.0000 C.ar    1  LIG1        0.2227
     26 N          -3.5710   -1.9880    0.0000 N.ar    1  LIG1       -0.1371
@<TRIPOS>BOND
     1     1     2   ar
     2     1     6   ar
     3     1    26   ar
     4     2     3   ar
     5     2    24   ar
     6     3     4   ar
     7     4     5   ar
     8     4    23    1
     9     5     6   ar
    10     5     8    1
    11     6     7    1
    12     8     9    1
    13     9    10    1
    14    10    11   am
    15    10    22    2
    16    11    12    1
    17    12    13    1
    18    13    14   ar
    19    13    21   ar
    20    14    15   ar
    21    15    16   ar
    22    15    19    1
    23    16    17    1
    24    16    20   ar
    25    17    18    1
    26    18    19    1
    27    20    21   ar
    28    24    25   ar
    29    25    26   ar
