@<TRIPOS>MOLECULE
32787_ChemDiv_6392-0809
 30 32 0 0 0
SMALL
GASTEIGER
Energy = 0

@<TRIPOS>ATOM
      1 C           0.4330    0.2380    0.0000 C.ar    1  LIG1        0.1109
      2 C          -0.4420   -0.2580    0.0000 C.ar    1  LIG1        0.2355
      3 N          -1.3080    0.2380    0.0000 N.ar    1  LIG1       -0.1937
      4 C          -1.2880    1.2420    0.0000 C.ar    1  LIG1        0.1490
      5 N          -0.4130    1.7380    0.0000 N.ar    1  LIG1       -0.2578
      6 C           0.4380    1.2250    0.0000 C.ar    1  LIG1        0.2703
      7 O           1.2960    1.7250    0.0000 O.2     1  LIG1       -0.2664
      8 C          -0.4080    2.7290    0.0000 C.ar    1  LIG1        0.0843
      9 C          -1.2710    3.2540    0.0000 C.ar    1  LIG1        0.0189
     10 C          -2.1540    2.7580    0.0000 C.ar    1  LIG1        0.0003
     11 C          -2.1540    1.7420    0.0000 C.ar    1  LIG1        0.0128
     12 C          -3.0330    1.2580    0.0000 C.3     1  LIG1        0.0342
     13 O          -0.4420   -1.2630    0.0000 O.3     1  LIG1       -0.4359
     14 C          -1.3080   -1.7540    0.0000 C.ar    1  LIG1        0.1472
     15 C          -2.1710   -1.2460    0.0000 C.ar    1  LIG1        0.0372
     16 C          -3.0330   -1.7380    0.0000 C.ar    1  LIG1       -0.0011
     17 C          -3.0420   -2.7420    0.0000 C.ar    1  LIG1       -0.0220
     18 C          -2.1710   -3.2500    0.0000 C.ar    1  LIG1       -0.0011
     19 C          -1.3080   -2.7540    0.0000 C.ar    1  LIG1        0.0372
     20 C          -3.9170   -3.2380    0.0000 C.3     1  LIG1        0.0264
     21 C          -4.7580   -2.7420    0.0000 C.3     1  LIG1        0.0050
     22 C           1.2830   -0.2750    0.0000 C.2     1  LIG1        0.0263
     23 C           2.1500    0.2210    0.0000 C.2     1  LIG1        0.1441
     24 C           3.0250   -0.2880    0.0000 C.2     1  LIG1        0.3510
     25 O           3.0130   -1.2790    0.0000 O.2     1  LIG1       -0.2441
     26 O           3.8880    0.2210    0.0000 O.3     1  LIG1       -0.4450
     27 C           4.7540   -0.2920    0.0000 C.3     1  LIG1        0.2089
     28 C           4.7420   -1.2920    0.0000 C.3     1  LIG1        0.0513
     29 C           2.1630    1.2130    0.0000 C.1     1  LIG1        0.1070
     30 N           2.1630    2.2130    0.0000 N.1     1  LIG1       -0.1906
@<TRIPOS>BOND
     1     1     2   ar
     2     1     6   ar
     3     1    22    1
     4     2     3   ar
     5     2    13    1
     6     3     4   ar
     7     4     5   ar
     8     4    11   ar
     9     5     6   ar
    10     5     8   ar
    11     6     7    2
    12     8     9   ar
    13     9    10   ar
    14    10    11   ar
    15    11    12    1
    16    13    14    1
    17    14    15   ar
    18    14    19   ar
    19    15    16   ar
    20    16    17   ar
    21    17    18   ar
    22    17    20    1
    23    18    19   ar
    24    20    21    1
    25    22    23    2
    26    23    24    1
    27    23    29    1
    28    24    25    2
    29    24    26    1
    30    26    27    1
    31    27    28    1
    32    29    30    3
