@<TRIPOS>MOLECULE
32786_ChemDiv_C561-2245
 29 32 0 0 0
SMALL
GASTEIGER
Energy = 0

@<TRIPOS>ATOM
      1 C          -0.3460   -1.2170    0.0000 C.ar    1  LIG1        0.2539
      2 N          -0.3460   -0.2170    0.0000 N.ar    1  LIG1       -0.1994
      3 N          -1.2920    0.0830    0.0000 N.ar    1  LIG1       -0.1433
      4 C          -1.8830   -0.7170    0.0000 C.ar    1  LIG1        0.1851
      5 N          -1.2920   -1.5290    0.0000 N.ar    1  LIG1       -0.1891
      6 C          -2.8710   -0.7170    0.0000 C.ar    1  LIG1        0.0406
      7 C          -3.3750   -1.5790    0.0000 C.ar    1  LIG1        0.0400
      8 C          -4.3630   -1.5790    0.0000 C.ar    1  LIG1        0.1388
      9 O          -4.8580   -2.4420    0.0000 O.3     1  LIG1       -0.4714
     10 C          -4.3630   -3.3000    0.0000 C.3     1  LIG1        0.2525
     11 C          -4.8670   -0.7000    0.0000 C.ar    1  LIG1        0.0369
     12 C          -4.3630    0.1630    0.0000 C.ar    1  LIG1        0.0032
     13 C          -3.3750    0.1500    0.0000 C.ar    1  LIG1        0.0033
     14 C           0.5170    0.2830    0.0000 C.ar    1  LIG1        0.0611
     15 C           1.3830   -0.2170    0.0000 C.ar    1  LIG1        0.0057
     16 C           1.3830   -1.2170    0.0000 C.ar    1  LIG1        0.0597
     17 N           0.5170   -1.7130    0.0000 N.ar    1  LIG1       -0.2146
     18 C           2.2540   -1.7130    0.0000 C.3     1  LIG1        0.0519
     19 C           2.2540    0.2880    0.0000 C.3     1  LIG1        0.0383
     20 C           3.1210   -0.2130    0.0000 C.3     1  LIG1        0.0900
     21 C           3.9830    0.2960    0.0000 C.2     1  LIG1        0.2260
     22 N           3.9790    1.2960    0.0000 N.am    1  LIG1       -0.2795
     23 C           4.8460    1.8080    0.0000 C.3     1  LIG1        0.0934
     24 C           4.8420    2.8080    0.0000 C.3     1  LIG1        0.0216
     25 C           3.9630    3.3040    0.0000 C.3     1  LIG1        0.0035
     26 C           3.0920    2.7960    0.0000 C.3     1  LIG1        0.0216
     27 C           3.1040    1.7830    0.0000 C.3     1  LIG1        0.0934
     28 O           4.8630   -0.2000    0.0000 O.2     1  LIG1       -0.2749
     29 C           0.5170    1.2790    0.0000 C.3     1  LIG1        0.0520
@<TRIPOS>BOND
     1     1     2   ar
     2     1     5   ar
     3     1    17   ar
     4     2     3   ar
     5     2    14   ar
     6     3     4   ar
     7     4     5   ar
     8     4     6    1
     9     6     7   ar
    10     6    13   ar
    11     7     8   ar
    12     8     9    1
    13     8    11   ar
    14     9    10    1
    15    11    12   ar
    16    12    13   ar
    17    14    15   ar
    18    14    29    1
    19    15    16   ar
    20    15    19    1
    21    16    17   ar
    22    16    18    1
    23    19    20    1
    24    20    21    1
    25    21    22   am
    26    21    28    2
    27    22    23    1
    28    22    27    1
    29    23    24    1
    30    24    25    1
    31    25    26    1
    32    26    27    1
