@<TRIPOS>MOLECULE
32792_ChemDiv_C908-0258
 18 19 0 0 0
SMALL
GASTEIGER
Energy = 0

@<TRIPOS>ATOM
      1 C          -1.0880    0.9960    0.0000 C.ar    1  LIG1        0.2538
      2 N          -1.0710   -0.0040    0.0000 N.ar    1  LIG1       -0.1995
      3 C          -0.2130   -0.4920    0.0000 C.ar    1  LIG1        0.0611
      4 C           0.6500   -0.0040    0.0000 C.ar    1  LIG1        0.0056
      5 C           0.6500    0.9960    0.0000 C.ar    1  LIG1        0.0597
      6 N          -0.2130    1.5080    0.0000 N.ar    1  LIG1       -0.2146
      7 C           1.5170    1.4960    0.0000 C.3     1  LIG1        0.0519
      8 C           1.5170   -0.5040    0.0000 C.3     1  LIG1        0.0346
      9 C           2.3830   -0.0040    0.0000 C.3     1  LIG1        0.0465
     10 C           3.2460   -0.5040    0.0000 C.2     1  LIG1        0.0507
     11 O           4.1170   -0.0080    0.0000 O.co2   1  LIG1       -0.5492
     12 O           3.2460   -1.5040    0.0000 O.co2   1  LIG1       -0.5492
     13 C          -0.2130   -1.4920    0.0000 C.3     1  LIG1        0.0520
     14 N          -2.0250   -0.3130    0.0000 N.ar    1  LIG1       -0.1412
     15 C          -2.6170    0.4920    0.0000 C.ar    1  LIG1        0.2366
     16 N          -2.0330    1.3080    0.0000 N.ar    1  LIG1       -0.1871
     17 C          -3.6170    0.4920    0.0000 C.3     1  LIG1        0.3837
     18 N          -4.1210    1.3540    0.0000 N.4     1  LIG1        0.6047
@<TRIPOS>BOND
     1     1     2   ar
     2     1     6   ar
     3     1    16   ar
     4     2     3   ar
     5     2    14   ar
     6     3     4   ar
     7     3    13    1
     8     4     5   ar
     9     4     8    1
    10     5     6   ar
    11     5     7    1
    12     8     9    1
    13     9    10    1
    14    10    11   ar
    15    10    12   ar
    16    14    15   ar
    17    15    16   ar
    18    15    17    1
    19    17    18    1
