@<TRIPOS>MOLECULE
32795_ChemDiv_8012-9758
 19 21 0 0 0
SMALL
GASTEIGER
Energy = 0

@<TRIPOS>ATOM
      1 N          -0.0040    0.2170    0.0000 N.am    1  LIG1       -0.2577
      2 C          -0.9170   -0.1330    0.0000 C.3     1  LIG1        0.1055
      3 C          -1.5420    0.6540    0.0000 C.3     1  LIG1        0.0530
      4 C          -1.0080    1.4790    0.0000 C.3     1  LIG1        0.0891
      5 C          -0.0380    1.2040    0.0000 C.2     1  LIG1        0.2295
      6 O           0.7500    1.8460    0.0000 O.2     1  LIG1       -0.2745
      7 C          -2.4750    0.3080    0.0000 C.3     1  LIG1        0.1530
      8 S          -2.4210   -0.7000    0.0000 S.O2    1  LIG1       -0.0083
      9 C          -1.4670   -0.9580    0.0000 C.3     1  LIG1        0.1709
     10 O          -2.6420   -1.6750    0.0000 O.2     1  LIG1       -0.1729
     11 O          -3.4380   -0.7420    0.0000 O.2     1  LIG1       -0.1729
     12 C           0.8420   -0.2960    0.0000 C.ar    1  LIG1        0.0644
     13 C           1.7420    0.1960    0.0000 C.ar    1  LIG1        0.0721
     14 C           2.5830   -0.3380    0.0000 C.ar    1  LIG1        0.0240
     15 C           2.5670   -1.3250    0.0000 C.ar    1  LIG1        0.0586
     16 C           1.6880   -1.8210    0.0000 C.ar    1  LIG1        0.0127
     17 C           0.8210   -1.3040    0.0000 C.ar    1  LIG1        0.0166
     18 CL          3.4330   -1.8420    0.0000 Cl      1  LIG1       -0.0822
     19 CL          1.7580    1.1830    0.0000 Cl      1  LIG1       -0.0809
@<TRIPOS>BOND
     1     1     2    1
     2     1     5   am
     3     1    12    1
     4     2     3    1
     5     2     9    1
     6     3     4    1
     7     3     7    1
     8     4     5    1
     9     5     6    2
    10     7     8    1
    11     8     9    1
    12     8    10    2
    13     8    11    2
    14    12    13   ar
    15    12    17   ar
    16    13    14   ar
    17    13    19    1
    18    14    15   ar
    19    15    16   ar
    20    15    18    1
    21    16    17   ar
