@<TRIPOS>MOLECULE
32793_ChemDiv_8012-7231
 24 27 0 0 0
SMALL
GASTEIGER
Energy = 0

@<TRIPOS>ATOM
      1 S          -3.7580   -0.6460    0.0000 S.O2    1  LIG1       -0.0083
      2 C          -2.7960   -0.9250    0.0000 C.3     1  LIG1        0.1709
      3 C          -2.2580   -0.1080    0.0000 C.3     1  LIG1        0.1054
      4 N          -1.3130    0.2330    0.0000 N.am    1  LIG1       -0.2585
      5 C          -1.3500    1.2330    0.0000 C.2     1  LIG1        0.2294
      6 C          -2.3130    1.5080    0.0000 C.3     1  LIG1        0.0891
      7 C          -2.8710    0.6710    0.0000 C.3     1  LIG1        0.0530
      8 C          -3.7960    0.3330    0.0000 C.3     1  LIG1        0.1530
      9 O          -0.5330    1.8500    0.0000 O.2     1  LIG1       -0.2745
     10 C          -0.4790   -0.2880    0.0000 C.ar    1  LIG1        0.0540
     11 C           0.4000    0.1960    0.0000 C.ar    1  LIG1        0.0180
     12 C           1.2670   -0.3290    0.0000 C.ar    1  LIG1        0.0388
     13 C           1.2420   -1.3290    0.0000 C.ar    1  LIG1        0.1454
     14 O           2.1250   -1.8460    0.0000 O.3     1  LIG1       -0.4535
     15 C           2.9880   -1.3540    0.0000 C.ar    1  LIG1        0.1453
     16 C           3.8420   -1.8460    0.0000 C.ar    1  LIG1        0.0375
     17 C           4.7210   -1.3710    0.0000 C.ar    1  LIG1        0.0031
     18 C           4.7460   -0.3710    0.0000 C.ar    1  LIG1        0.0002
     19 C           3.8960    0.1380    0.0000 C.ar    1  LIG1        0.0031
     20 C           3.0170   -0.3580    0.0000 C.ar    1  LIG1        0.0375
     21 C           0.3460   -1.8080    0.0000 C.ar    1  LIG1        0.0388
     22 C          -0.5170   -1.2920    0.0000 C.ar    1  LIG1        0.0180
     23 O          -3.7040   -1.6500    0.0000 O.2     1  LIG1       -0.1729
     24 O          -4.7500   -0.6880    0.0000 O.2     1  LIG1       -0.1729
@<TRIPOS>BOND
     1     1     2    1
     2     1     8    1
     3     1    23    2
     4     1    24    2
     5     2     3    1
     6     3     4    1
     7     3     7    1
     8     4     5   am
     9     4    10    1
    10     5     6    1
    11     5     9    2
    12     6     7    1
    13     7     8    1
    14    10    11   ar
    15    10    22   ar
    16    11    12   ar
    17    12    13   ar
    18    13    14    1
    19    13    21   ar
    20    14    15    1
    21    15    16   ar
    22    15    20   ar
    23    16    17   ar
    24    17    18   ar
    25    18    19   ar
    26    19    20   ar
    27    21    22   ar
