@<TRIPOS>MOLECULE
32804_ChemDiv_6711-0084
 26 29 0 0 0
SMALL
GASTEIGER
Energy = 0

@<TRIPOS>ATOM
      1 C           1.8460    1.1380    0.0000 C.ar    1  LIG1        0.1604
      2 N           1.5380    0.1920    0.0000 N.ar    1  LIG1       -0.2295
      3 N           0.5380    0.1920    0.0000 N.ar    1  LIG1       -0.1677
      4 C           0.2290    1.1420    0.0000 C.ar    1  LIG1        0.1035
      5 C           1.0250    1.7250    0.0000 C.ar    1  LIG1        0.0509
      6 C           1.1250    2.7210    0.0000 C.ar    1  LIG1       -0.0162
      7 C           2.0460    3.1290    0.0000 C.ar    1  LIG1        0.0106
      8 C           2.8630    2.5380    0.0000 C.ar    1  LIG1        0.0607
      9 N           2.7540    1.5460    0.0000 N.ar    1  LIG1       -0.2312
     10 C           3.7710    2.9460    0.0000 C.3     1  LIG1        0.0521
     11 C           0.3170    3.3080    0.0000 C.3     1  LIG1        0.0312
     12 C          -0.7210    1.4460    0.0000 C.ar    1  LIG1        0.0196
     13 C          -1.4630    0.7830    0.0000 C.ar    1  LIG1        0.0047
     14 C          -2.4170    1.1000    0.0000 C.ar    1  LIG1        0.0369
     15 C          -2.6210    2.0750    0.0000 C.ar    1  LIG1        0.1387
     16 C          -1.8830    2.7330    0.0000 C.ar    1  LIG1        0.0369
     17 C          -0.9250    2.4330    0.0000 C.ar    1  LIG1        0.0047
     18 O          -3.5790    2.3880    0.0000 O.3     1  LIG1       -0.4714
     19 C          -3.7750    3.3630    0.0000 C.3     1  LIG1        0.2525
     20 C           2.1210   -0.6210    0.0000 C.3     1  LIG1        0.1554
     21 C           1.7080   -1.5330    0.0000 C.ar    1  LIG1        0.0022
     22 C           0.7130   -1.6290    0.0000 C.ar    1  LIG1       -0.0023
     23 C           0.3000   -2.5380    0.0000 C.ar    1  LIG1       -0.0003
     24 C           0.8790   -3.3580    0.0000 C.ar    1  LIG1       -0.0000
     25 C           1.8790   -3.2500    0.0000 C.ar    1  LIG1       -0.0003
     26 C           2.2920   -2.3420    0.0000 C.ar    1  LIG1       -0.0023
@<TRIPOS>BOND
     1     1     2   ar
     2     1     5   ar
     3     1     9   ar
     4     2     3   ar
     5     2    20    1
     6     3     4   ar
     7     4     5   ar
     8     4    12    1
     9     5     6   ar
    10     6     7   ar
    11     6    11    1
    12     7     8   ar
    13     8     9   ar
    14     8    10    1
    15    12    13   ar
    16    12    17   ar
    17    13    14   ar
    18    14    15   ar
    19    15    16   ar
    20    15    18    1
    21    16    17   ar
    22    18    19    1
    23    20    21    1
    24    21    22   ar
    25    21    26   ar
    26    22    23   ar
    27    23    24   ar
    28    24    25   ar
    29    25    26   ar
