@<TRIPOS>MOLECULE
32818_ChemDiv_6469-0241
 19 21 0 0 0
SMALL
GASTEIGER
Energy = 0

@<TRIPOS>ATOM
      1 N          -1.2960    0.1290    0.0000 N.ar    1  LIG1       -0.1997
      2 C          -0.4250   -0.3380    0.0000 C.ar    1  LIG1        0.2713
      3 N           0.4250    0.1830    0.0000 N.ar    1  LIG1       -0.2071
      4 C           1.3000   -0.2790    0.0000 C.ar    1  LIG1        0.1053
      5 C           1.3380   -1.2790    0.0000 C.ar    1  LIG1        0.1413
      6 N           0.4880   -1.8130    0.0000 N.ar    1  LIG1       -0.1418
      7 N          -0.3960   -1.3420    0.0000 N.ar    1  LIG1       -0.1080
      8 C           2.1420    0.2420    0.0000 C.ar    1  LIG1        0.0194
      9 C           3.0290   -0.2290    0.0000 C.ar    1  LIG1        0.0015
     10 C           3.8790    0.3000    0.0000 C.ar    1  LIG1        0.0000
     11 C           3.8420    1.3040    0.0000 C.ar    1  LIG1        0.0000
     12 C           2.9540    1.7750    0.0000 C.ar    1  LIG1        0.0000
     13 C           2.1080    1.2380    0.0000 C.ar    1  LIG1        0.0015
     14 N          -2.2000   -0.3080    0.0000 N.ar    1  LIG1       -0.1672
     15 C          -2.8880    0.4210    0.0000 C.ar    1  LIG1        0.0806
     16 C          -2.4130    1.3000    0.0000 C.ar    1  LIG1        0.0313
     17 C          -1.4250    1.1170    0.0000 C.ar    1  LIG1        0.0652
     18 C          -0.7040    1.8170    0.0000 C.3     1  LIG1        0.0523
     19 C          -3.8830    0.2830    0.0000 C.3     1  LIG1        0.0540
@<TRIPOS>BOND
     1     1     2    1
     2     1    14   ar
     3     1    17   ar
     4     2     3   ar
     5     2     7   ar
     6     3     4   ar
     7     4     5   ar
     8     4     8    1
     9     5     6   ar
    10     6     7   ar
    11     8     9   ar
    12     8    13   ar
    13     9    10   ar
    14    10    11   ar
    15    11    12   ar
    16    12    13   ar
    17    14    15   ar
    18    15    16   ar
    19    15    19    1
    20    16    17   ar
    21    17    18    1
