@<TRIPOS>MOLECULE
32815_ChemDiv_6234-0211
 25 27 0 0 0
SMALL
GASTEIGER
Energy = 0

@<TRIPOS>ATOM
      1 C           0.9880    0.1380    0.0000 C.3     1  LIG1        0.1668
      2 C           1.0130    1.1460    0.0000 C.3     1  LIG1        0.2043
      3 C           0.1330    0.6580    0.0000 C.3     1  LIG1        0.0685
      4 C          -0.8670    0.6830    0.0000 C.ar    1  LIG1       -0.0195
      5 C          -1.3460    1.5630    0.0000 C.ar    1  LIG1       -0.0011
      6 C          -2.3500    1.5960    0.0000 C.ar    1  LIG1        0.0366
      7 C          -2.8750    0.7420    0.0000 C.ar    1  LIG1        0.1387
      8 C          -2.4000   -0.1500    0.0000 C.ar    1  LIG1        0.0366
      9 C          -1.3920   -0.1750    0.0000 C.ar    1  LIG1       -0.0011
     10 O          -3.8790    0.7710    0.0000 O.3     1  LIG1       -0.4714
     11 C          -4.4000   -0.0830    0.0000 C.3     1  LIG1        0.2525
     12 C           1.9790    1.4380    0.0000 C.2     1  LIG1        0.4019
     13 N           2.5500    0.6080    0.0000 N.2     1  LIG1       -0.0474
     14 C           1.9420   -0.1920    0.0000 C.3     1  LIG1        0.2656
     15 S           1.9330   -1.1960    0.0000 S.3     1  LIG1       -0.0829
     16 C           2.4290   -2.0580    0.0000 C.3     1  LIG1        0.0623
     17 C           1.9290   -2.9250    0.0000 C.3     1  LIG1        0.0127
     18 S           2.9040   -0.4500    0.0000 S.3     1  LIG1       -0.0829
     19 C           3.4040   -1.3080    0.0000 C.3     1  LIG1        0.0623
     20 C           4.3960   -1.3080    0.0000 C.3     1  LIG1        0.0127
     21 N           2.3080    2.3830    0.0000 N.pl3   1  LIG1        0.2118
     22 C           0.9880    2.0710    0.0000 C.1     1  LIG1        0.0848
     23 N           1.5170    2.9290    0.0000 N.1     1  LIG1       -0.1953
     24 C           0.9880   -0.8500    0.0000 C.1     1  LIG1        0.0790
     25 N           1.4670   -1.7380    0.0000 N.1     1  LIG1       -0.1957
@<TRIPOS>BOND
     1     1     2    1
     2     1     3    1
     3     1    14    1
     4     1    24    1
     5     2     3    1
     6     2    12    1
     7     2    22    1
     8     3     4    1
     9     4     5   ar
    10     4     9   ar
    11     5     6   ar
    12     6     7   ar
    13     7     8   ar
    14     7    10    1
    15     8     9   ar
    16    10    11    1
    17    12    13    2
    18    12    21    1
    19    13    14    1
    20    14    15    1
    21    14    18    1
    22    15    16    1
    23    16    17    1
    24    18    19    1
    25    19    20    1
    26    22    23    3
    27    24    25    3
