@<TRIPOS>MOLECULE
32811_ChemDiv_6234-0141
 24 26 0 0 0
SMALL
GASTEIGER
Energy = 0

@<TRIPOS>ATOM
      1 C           0.2250    0.1380    0.0000 C.3     1  LIG1        0.1668
      2 C           0.2500    1.1460    0.0000 C.3     1  LIG1        0.2043
      3 C          -0.6250    0.6580    0.0000 C.3     1  LIG1        0.0690
      4 C          -1.6290    0.6830    0.0000 C.ar    1  LIG1       -0.0134
      5 C          -2.1540   -0.1750    0.0000 C.ar    1  LIG1        0.0307
      6 BR         -1.6750   -1.0540    0.0000 Br      1  LIG1       -0.0493
      7 C          -3.1630   -0.1500    0.0000 C.ar    1  LIG1        0.0064
      8 C          -3.6380    0.7420    0.0000 C.ar    1  LIG1        0.0005
      9 C          -3.1130    1.5960    0.0000 C.ar    1  LIG1       -0.0003
     10 C          -2.1080    1.5630    0.0000 C.ar    1  LIG1       -0.0037
     11 C           1.2170    1.4380    0.0000 C.2     1  LIG1        0.4019
     12 N           1.7880    0.6080    0.0000 N.2     1  LIG1       -0.0474
     13 C           1.1790   -0.1920    0.0000 C.3     1  LIG1        0.2656
     14 S           1.1710   -1.1960    0.0000 S.3     1  LIG1       -0.0829
     15 C           1.6710   -2.0580    0.0000 C.3     1  LIG1        0.0623
     16 C           1.1710   -2.9250    0.0000 C.3     1  LIG1        0.0127
     17 S           2.1420   -0.4500    0.0000 S.3     1  LIG1       -0.0829
     18 C           2.6420   -1.3080    0.0000 C.3     1  LIG1        0.0623
     19 C           3.6330   -1.3080    0.0000 C.3     1  LIG1        0.0127
     20 N           1.5460    2.3830    0.0000 N.pl3   1  LIG1        0.2118
     21 C           0.2250    2.0710    0.0000 C.1     1  LIG1        0.0848
     22 N           0.7540    2.9290    0.0000 N.1     1  LIG1       -0.1953
     23 C           0.2250   -0.8540    0.0000 C.1     1  LIG1        0.0790
     24 N           0.7040   -1.7380    0.0000 N.1     1  LIG1       -0.1957
@<TRIPOS>BOND
     1     1     2    1
     2     1     3    1
     3     1    13    1
     4     1    23    1
     5     2     3    1
     6     2    11    1
     7     2    21    1
     8     3     4    1
     9     4     5   ar
    10     4    10   ar
    11     5     6    1
    12     5     7   ar
    13     7     8   ar
    14     8     9   ar
    15     9    10   ar
    16    11    12    2
    17    11    20    1
    18    12    13    1
    19    13    14    1
    20    13    17    1
    21    14    15    1
    22    15    16    1
    23    17    18    1
    24    18    19    1
    25    21    22    3
    26    23    24    3
