@<TRIPOS>MOLECULE
32819_ChemDiv_D110-0026
 24 27 0 0 0
SMALL
GASTEIGER
Energy = 0

@<TRIPOS>ATOM
      1 C           0.4250    1.0830    0.0000 C.2     1  LIG1        0.3148
      2 N          -0.3830    0.4960    0.0000 N.am    1  LIG1       -0.2410
      3 C          -0.0750   -0.4540    0.0000 C.3     1  LIG1        0.1250
      4 C           0.9210   -0.4540    0.0000 C.3     1  LIG1        0.1250
      5 N           1.2330    0.4960    0.0000 N.am    1  LIG1       -0.2410
      6 C           2.1000    0.9960    0.0000 C.ar    1  LIG1        0.0553
      7 C           2.1000    1.9960    0.0000 C.ar    1  LIG1        0.0150
      8 C           2.9670    2.4960    0.0000 C.ar    1  LIG1        0.0013
      9 C           3.8330    1.9960    0.0000 C.ar    1  LIG1        0.0001
     10 C           3.8330    0.9960    0.0000 C.ar    1  LIG1        0.0013
     11 C           2.9580    0.4960    0.0000 C.ar    1  LIG1        0.0150
     12 C           1.2330   -1.4040    0.0000 C.3     1  LIG1        0.1727
     13 S           0.4250   -1.9920    0.0000 S.O2    1  LIG1       -0.0065
     14 C          -0.3830   -1.4040    0.0000 C.3     1  LIG1        0.1727
     15 O           1.2920   -2.4920    0.0000 O.2     1  LIG1       -0.1729
     16 O          -0.4420   -2.4920    0.0000 O.2     1  LIG1       -0.1729
     17 C          -1.2420    0.9960    0.0000 C.ar    1  LIG1        0.0554
     18 C          -1.2500    1.9880    0.0000 C.ar    1  LIG1        0.0158
     19 C          -2.1130    2.4960    0.0000 C.ar    1  LIG1        0.0127
     20 C          -2.9830    1.9960    0.0000 C.ar    1  LIG1        0.0578
     21 C          -2.9830    0.9880    0.0000 C.ar    1  LIG1        0.0127
     22 C          -2.1040    0.4880    0.0000 C.ar    1  LIG1        0.0158
     23 CL         -3.8380    2.4960    0.0000 Cl      1  LIG1       -0.0822
     24 O           0.4250    2.0830    0.0000 O.2     1  LIG1       -0.2517
@<TRIPOS>BOND
     1     1     2   am
     2     1     5   am
     3     1    24    2
     4     2     3    1
     5     2    17    1
     6     3     4    1
     7     3    14    1
     8     4     5    1
     9     4    12    1
    10     5     6    1
    11     6     7   ar
    12     6    11   ar
    13     7     8   ar
    14     8     9   ar
    15     9    10   ar
    16    10    11   ar
    17    12    13    1
    18    13    14    1
    19    13    15    2
    20    13    16    2
    21    17    18   ar
    22    17    22   ar
    23    18    19   ar
    24    19    20   ar
    25    20    21   ar
    26    20    23    1
    27    21    22   ar
