@<TRIPOS>MOLECULE
32820_ChemDiv_6476-0031
 21 22 0 0 0
SMALL
GASTEIGER
Energy = 0

@<TRIPOS>ATOM
      1 C          -1.5080   -0.2420    0.0000 C.ar    1  LIG1        0.0778
      2 C          -2.3790    0.2630    0.0000 C.ar    1  LIG1        0.2822
      3 N          -3.2420   -0.2420    0.0000 N.ar    1  LIG1       -0.1519
      4 C          -3.2420   -1.2420    0.0000 C.ar    1  LIG1        0.3711
      5 N          -2.3790   -1.7460    0.0000 N.ar    1  LIG1       -0.1952
      6 C          -1.5080   -1.2420    0.0000 C.ar    1  LIG1        0.0668
      7 C          -0.6420   -1.7420    0.0000 C.3     1  LIG1        0.0521
      8 O          -4.1040   -1.7420    0.0000 O.2     1  LIG1       -0.2425
      9 O          -2.3790    1.2500    0.0000 O.2     1  LIG1       -0.2653
     10 C          -0.6420    0.2630    0.0000 C.3     1  LIG1        0.1994
     11 C          -0.6420    1.2500    0.0000 C.2     1  LIG1        0.2849
     12 O          -1.5040    1.7500    0.0000 O.2     1  LIG1       -0.2694
     13 N           0.2290    1.7500    0.0000 N.am    1  LIG1       -0.0860
     14 N           0.2290   -0.2420    0.0000 N.pl3   1  LIG1       -0.2253
     15 C           1.0960    0.2630    0.0000 C.ar    1  LIG1        0.0662
     16 C           1.5960   -0.6080    0.0000 C.ar    1  LIG1        0.0158
     17 C           2.5960   -0.6080    0.0000 C.ar    1  LIG1       -0.0029
     18 C           3.1000    0.2630    0.0000 C.ar    1  LIG1       -0.0218
     19 C           2.5960    1.1210    0.0000 C.ar    1  LIG1       -0.0029
     20 C           1.5960    1.1210    0.0000 C.ar    1  LIG1        0.0158
     21 C           4.1000    0.2630    0.0000 C.3     1  LIG1        0.0310
@<TRIPOS>BOND
     1     1     2   ar
     2     1     6   ar
     3     1    10    1
     4     2     3   ar
     5     2     9    2
     6     3     4   ar
     7     4     5   ar
     8     4     8    2
     9     5     6   ar
    10     6     7    1
    11    10    11    1
    12    10    14    1
    13    11    12    2
    14    11    13   am
    15    14    15    1
    16    15    16   ar
    17    15    20   ar
    18    16    17   ar
    19    17    18   ar
    20    18    19   ar
    21    18    21    1
    22    19    20   ar
