@<TRIPOS>MOLECULE
32825_ChemDiv_6404-0247
 35 39 0 0 0
SMALL
GASTEIGER
Energy = 0

@<TRIPOS>ATOM
      1 S          -0.0170   -1.8920    0.0000 S.O2    1  LIG1        0.0641
      2 N          -0.9000   -1.4250    0.0000 N.3     1  LIG1       -0.1433
      3 C          -0.9500   -0.4330    0.0000 C.3     1  LIG1        0.1622
      4 C          -0.1000    0.1000    0.0000 C.2     1  LIG1        0.2638
      5 N          -0.1380    1.1000    0.0000 N.am    1  LIG1       -0.1531
      6 C           0.7130    1.6380    0.0000 C.ar    1  LIG1        0.1852
      7 N           0.7670    2.6250    0.0000 N.ar    1  LIG1       -0.2272
      8 C           1.7460    2.8710    0.0000 C.ar    1  LIG1        0.0630
      9 C           2.2790    2.0250    0.0000 C.ar    1  LIG1        0.0235
     10 S           1.6330    1.2580    0.0000 S.2     1  LIG1       -0.0544
     11 C           3.2790    2.0710    0.0000 C.3     1  LIG1        0.0343
     12 C           3.7460    2.9540    0.0000 C.3     1  LIG1        0.0057
     13 C           3.2130    3.8040    0.0000 C.3     1  LIG1        0.0067
     14 C           2.2000    3.7580    0.0000 C.3     1  LIG1        0.0461
     15 O           0.7830   -0.3670    0.0000 O.2     1  LIG1       -0.2714
     16 C          -1.8330    0.0250    0.0000 C.3     1  LIG1        0.0532
     17 C          -2.6670   -0.5000    0.0000 C.ar    1  LIG1       -0.0229
     18 C          -2.6210   -1.5000    0.0000 C.ar    1  LIG1       -0.0084
     19 C          -1.7500   -1.9670    0.0000 C.3     1  LIG1        0.1223
     20 C          -3.4710   -2.0330    0.0000 C.ar    1  LIG1       -0.0032
     21 C          -4.3540   -1.5580    0.0000 C.ar    1  LIG1       -0.0003
     22 C          -4.3880   -0.5500    0.0000 C.ar    1  LIG1       -0.0003
     23 C          -3.5380   -0.0250    0.0000 C.ar    1  LIG1       -0.0045
     24 C           0.8790   -2.3500    0.0000 C.ar    1  LIG1        0.1254
     25 C           1.7000   -1.8000    0.0000 C.ar    1  LIG1        0.0599
     26 C           2.6000   -2.2500    0.0000 C.ar    1  LIG1        0.1737
     27 C           2.6500   -3.2500    0.0000 C.ar    1  LIG1        0.1725
     28 C           1.8170   -3.8000    0.0000 C.ar    1  LIG1        0.0414
     29 C           0.9290   -3.3500    0.0000 C.ar    1  LIG1        0.0232
     30 O           3.5460   -3.7000    0.0000 O.3     1  LIG1       -0.4684
     31 C           4.3830   -3.1500    0.0000 C.3     1  LIG1        0.2526
     32 O           3.4330   -1.7000    0.0000 O.3     1  LIG1       -0.4683
     33 C           3.3790   -0.7000    0.0000 C.3     1  LIG1        0.2526
     34 O           0.4130   -0.9920    0.0000 O.2     1  LIG1       -0.1528
     35 O          -0.4540   -2.8000    0.0000 O.2     1  LIG1       -0.1528
@<TRIPOS>BOND
     1     1     2    1
     2     1    24    1
     3     1    34    2
     4     1    35    2
     5     2     3    1
     6     2    19    1
     7     3     4    1
     8     3    16    1
     9     4     5   am
    10     4    15    2
    11     5     6    1
    12     6     7   ar
    13     6    10   ar
    14     7     8   ar
    15     8     9   ar
    16     8    14    1
    17     9    10   ar
    18     9    11    1
    19    11    12    1
    20    12    13    1
    21    13    14    1
    22    16    17    1
    23    17    18   ar
    24    17    23   ar
    25    18    19    1
    26    18    20   ar
    27    20    21   ar
    28    21    22   ar
    29    22    23   ar
    30    24    25   ar
    31    24    29   ar
    32    25    26   ar
    33    26    27   ar
    34    26    32    1
    35    27    28   ar
    36    27    30    1
    37    28    29   ar
    38    30    31    1
    39    32    33    1
