@<TRIPOS>MOLECULE
32822_ChemDiv_6481-5193
 34 38 0 0 0
SMALL
GASTEIGER
Energy = 0

@<TRIPOS>ATOM
      1 N           3.4630   -0.0420    0.0000 N.ar    1  LIG1       -0.2541
      2 C           2.5920    0.4630    0.0000 C.ar    1  LIG1        0.1794
      3 N           2.5920    1.4580    0.0000 N.ar    1  LIG1       -0.2013
      4 C           3.4540    1.9580    0.0000 C.ar    1  LIG1        0.1916
      5 C           4.3290    1.4580    0.0000 C.ar    1  LIG1        0.1149
      6 C           4.3290    0.4630    0.0000 C.ar    1  LIG1        0.2707
      7 O           5.2000   -0.0540    0.0000 O.2     1  LIG1       -0.2664
      8 C           5.0710    2.1330    0.0000 C.ar    1  LIG1        0.1301
      9 N           4.6460    3.0460    0.0000 N.ar    1  LIG1       -0.1447
     10 N           3.6630    2.9330    0.0000 N.ar    1  LIG1       -0.1282
     11 S           1.7250   -0.0420    0.0000 S.3     1  LIG1       -0.0671
     12 C           0.8630    0.4630    0.0000 C.3     1  LIG1        0.1500
     13 C           0.0000   -0.0420    0.0000 C.2     1  LIG1        0.2373
     14 N          -0.8710    0.4630    0.0000 N.am    1  LIG1       -0.2744
     15 C          -1.7380   -0.0420    0.0000 C.3     1  LIG1        0.1199
     16 C          -2.6000    0.4630    0.0000 C.ar    1  LIG1       -0.0030
     17 C          -2.6000    1.4580    0.0000 C.ar    1  LIG1       -0.0196
     18 C          -3.4580    1.9540    0.0000 C.ar    1  LIG1        0.0356
     19 C          -4.3290    1.4580    0.0000 C.ar    1  LIG1        0.1721
     20 C          -4.3290    0.4630    0.0000 C.ar    1  LIG1        0.1721
     21 C          -3.4580   -0.0420    0.0000 C.ar    1  LIG1        0.0371
     22 O          -5.1960   -0.0420    0.0000 O.3     1  LIG1       -0.4684
     23 C          -5.2040   -1.0380    0.0000 C.3     1  LIG1        0.2526
     24 O          -5.1960    1.9710    0.0000 O.3     1  LIG1       -0.4684
     25 C          -5.1920    2.9670    0.0000 C.3     1  LIG1        0.2526
     26 C          -1.7380    1.9540    0.0000 C.3     1  LIG1        0.0477
     27 C          -0.8710    1.4580    0.0000 C.3     1  LIG1        0.0984
     28 O           0.0080   -1.0380    0.0000 O.2     1  LIG1       -0.2739
     29 C           3.4630   -1.0380    0.0000 C.ar    1  LIG1        0.0687
     30 C           4.3290   -1.5380    0.0000 C.ar    1  LIG1        0.0177
     31 C           4.3290   -2.5420    0.0000 C.ar    1  LIG1        0.0015
     32 C           3.4630   -3.0420    0.0000 C.ar    1  LIG1        0.0001
     33 C           2.5960   -2.5420    0.0000 C.ar    1  LIG1        0.0015
     34 C           2.5960   -1.5380    0.0000 C.ar    1  LIG1        0.0177
@<TRIPOS>BOND
     1     1     2   ar
     2     1     6   ar
     3     1    29    1
     4     2     3   ar
     5     2    11    1
     6     3     4   ar
     7     4     5   ar
     8     4    10   ar
     9     5     6   ar
    10     5     8   ar
    11     6     7    2
    12     8     9   ar
    13     9    10   ar
    14    11    12    1
    15    12    13    1
    16    13    14   am
    17    13    28    2
    18    14    15    1
    19    14    27    1
    20    15    16    1
    21    16    17   ar
    22    16    21   ar
    23    17    18   ar
    24    17    26    1
    25    18    19   ar
    26    19    20   ar
    27    19    24    1
    28    20    21   ar
    29    20    22    1
    30    22    23    1
    31    24    25    1
    32    26    27    1
    33    29    30   ar
    34    29    34   ar
    35    30    31   ar
    36    31    32   ar
    37    32    33   ar
    38    33    34   ar
