@<TRIPOS>MOLECULE
32835_ChemDiv_6234-0499
 27 29 0 0 0
SMALL
GASTEIGER
Energy = 0

@<TRIPOS>ATOM
      1 C           1.4670    0.1380    0.0000 C.3     1  LIG1        0.1668
      2 C           1.4880    1.1460    0.0000 C.3     1  LIG1        0.2043
      3 C           0.6130    0.6630    0.0000 C.3     1  LIG1        0.0685
      4 C          -0.3920    0.6830    0.0000 C.ar    1  LIG1       -0.0196
      5 C          -0.9170   -0.1750    0.0000 C.ar    1  LIG1       -0.0029
      6 C          -1.9250   -0.1540    0.0000 C.ar    1  LIG1        0.0163
      7 C          -2.4000    0.7380    0.0000 C.ar    1  LIG1        0.0733
      8 N          -3.4000    0.7750    0.0000 N.am    1  LIG1       -0.1792
      9 C          -3.8750    1.6540    0.0000 C.2     1  LIG1        0.2461
     10 O          -4.8750    1.6790    0.0000 O.2     1  LIG1       -0.2730
     11 C          -3.3500    2.5040    0.0000 C.3     1  LIG1        0.0968
     12 C          -1.8750    1.5920    0.0000 C.ar    1  LIG1        0.0163
     13 C          -0.8670    1.5630    0.0000 C.ar    1  LIG1       -0.0029
     14 C           2.4540    1.4380    0.0000 C.2     1  LIG1        0.4019
     15 N           3.0290    0.6080    0.0000 N.2     1  LIG1       -0.0474
     16 C           2.4170   -0.1920    0.0000 C.3     1  LIG1        0.2656
     17 S           2.4080   -1.1960    0.0000 S.3     1  LIG1       -0.0829
     18 C           2.9080   -2.0630    0.0000 C.3     1  LIG1        0.0623
     19 C           2.4080   -2.9250    0.0000 C.3     1  LIG1        0.0127
     20 S           3.3790   -0.4500    0.0000 S.3     1  LIG1       -0.0829
     21 C           3.8750   -1.3080    0.0000 C.3     1  LIG1        0.0623
     22 C           4.8710   -1.3080    0.0000 C.3     1  LIG1        0.0127
     23 N           2.7880    2.3830    0.0000 N.pl3   1  LIG1        0.2118
     24 C           1.4670    2.0710    0.0000 C.1     1  LIG1        0.0848
     25 N           1.9960    2.9290    0.0000 N.1     1  LIG1       -0.1953
     26 C           1.4630   -0.8540    0.0000 C.1     1  LIG1        0.0790
     27 N           1.9420   -1.7420    0.0000 N.1     1  LIG1       -0.1957
@<TRIPOS>BOND
     1     1     2    1
     2     1     3    1
     3     1    16    1
     4     1    26    1
     5     2     3    1
     6     2    14    1
     7     2    24    1
     8     3     4    1
     9     4     5   ar
    10     4    13   ar
    11     5     6   ar
    12     6     7   ar
    13     7     8    1
    14     7    12   ar
    15     8     9   am
    16     9    10    2
    17     9    11    1
    18    12    13   ar
    19    14    15    2
    20    14    23    1
    21    15    16    1
    22    16    17    1
    23    16    20    1
    24    17    18    1
    25    18    19    1
    26    20    21    1
    27    21    22    1
    28    24    25    3
    29    26    27    3
