@<TRIPOS>MOLECULE
32832_ChemDiv_K869-0253
 30 34 0 0 0
SMALL
GASTEIGER
Energy = 0

@<TRIPOS>ATOM
      1 C          -0.1130    4.2710    0.0000 C.ar    1  LIG1        0.2501
      2 N           0.1330    3.3000    0.0000 N.ar    1  LIG1       -0.2898
      3 C           1.1330    3.2460    0.0000 C.ar    1  LIG1        0.0975
      4 C           1.4920    4.1750    0.0000 C.ar    1  LIG1        0.1633
      5 O           0.7210    4.7960    0.0000 O.2     1  LIG1       -0.4306
      6 C           2.4670    4.3290    0.0000 C.ar    1  LIG1        0.0391
      7 C           3.1040    3.5460    0.0000 C.ar    1  LIG1        0.0032
      8 C           2.7420    2.6250    0.0000 C.ar    1  LIG1        0.0017
      9 C           1.7540    2.4670    0.0000 C.ar    1  LIG1        0.0204
     10 C          -0.5000    2.5170    0.0000 C.3     1  LIG1        0.1192
     11 C          -1.4880    2.6670    0.0000 C.3     1  LIG1        0.1117
     12 C          -2.1250    1.9000    0.0000 C.2     1  LIG1        0.2475
     13 N          -1.7670    0.9750    0.0000 N.am    1  LIG1       -0.1792
     14 C          -1.9630   -0.0330    0.0000 C.ar    1  LIG1        0.0735
     15 C          -1.2130   -0.6920    0.0000 C.ar    1  LIG1        0.0212
     16 C          -1.4130   -1.6830    0.0000 C.ar    1  LIG1        0.0549
     17 C          -0.6580   -2.3500    0.0000 C.ar    1  LIG1        0.2311
     18 N           0.3130   -2.0830    0.0000 N.ar    1  LIG1       -0.1891
     19 C           0.8580   -2.9330    0.0000 C.ar    1  LIG1        0.2002
     20 C           0.2250   -3.7040    0.0000 C.ar    1  LIG1        0.1828
     21 O          -0.7130   -3.3420    0.0000 O.2     1  LIG1       -0.4330
     22 C           0.5750   -4.6380    0.0000 C.ar    1  LIG1        0.0423
     23 C           1.5670   -4.7960    0.0000 C.ar    1  LIG1        0.0239
     24 C           2.1960   -4.0210    0.0000 C.ar    1  LIG1        0.1008
     25 N           1.8420   -3.0830    0.0000 N.ar    1  LIG1       -0.2224
     26 C          -2.3540   -1.9920    0.0000 C.ar    1  LIG1        0.0047
     27 C          -3.1080   -1.3250    0.0000 C.ar    1  LIG1        0.0015
     28 C          -2.9130   -0.3420    0.0000 C.ar    1  LIG1        0.0166
     29 O          -3.1080    2.0460    0.0000 O.2     1  LIG1       -0.2729
     30 S          -1.0330    4.6330    0.0000 S.2     1  LIG1        0.0094
@<TRIPOS>BOND
     1     1     2   ar
     2     1     5   ar
     3     1    30    2
     4     2     3   ar
     5     2    10    1
     6     3     4   ar
     7     3     9   ar
     8     4     5   ar
     9     4     6   ar
    10     6     7   ar
    11     7     8   ar
    12     8     9   ar
    13    10    11    1
    14    11    12    1
    15    12    13   am
    16    12    29    2
    17    13    14    1
    18    14    15   ar
    19    14    28   ar
    20    15    16   ar
    21    16    17    1
    22    16    26   ar
    23    17    18   ar
    24    17    21   ar
    25    18    19   ar
    26    19    20   ar
    27    19    25   ar
    28    20    21   ar
    29    20    22   ar
    30    22    23   ar
    31    23    24   ar
    32    24    25   ar
    33    26    27   ar
    34    27    28   ar
