@<TRIPOS>MOLECULE
32830_ChemDiv_6494-0009
 15 16 0 0 0
SMALL
GASTEIGER
Energy = 0

@<TRIPOS>ATOM
      1 C           1.1290   -1.6130    0.0000 C.ar    1  LIG1        0.4220
      2 N           0.5290   -0.8170    0.0000 N.ar    1  LIG1       -0.2616
      3 C          -0.4170   -1.1250    0.0000 C.ar    1  LIG1        0.1000
      4 C          -0.4130   -2.1210    0.0000 C.ar    1  LIG1        0.1660
      5 O           0.5420   -2.4290    0.0000 O.2     1  LIG1       -0.4068
      6 C          -1.2790   -2.6330    0.0000 C.ar    1  LIG1        0.0392
      7 C          -2.1460   -2.1290    0.0000 C.ar    1  LIG1        0.0032
      8 C          -2.1460   -1.1290    0.0000 C.ar    1  LIG1        0.0017
      9 C          -1.2830   -0.6250    0.0000 C.ar    1  LIG1        0.0205
     10 C           1.0670    0.0290    0.0000 C.3     1  LIG1        0.1219
     11 C           0.6040    0.9040    0.0000 C.3     1  LIG1        0.1131
     12 C           1.1420    1.7500    0.0000 C.2     1  LIG1        0.2627
     13 O           0.6830    2.6380    0.0000 O.2     1  LIG1       -0.2716
     14 N           2.1420    1.7040    0.0000 N.am    1  LIG1       -0.0877
     15 O           2.1290   -1.6080    0.0000 O.2     1  LIG1       -0.2226
@<TRIPOS>BOND
     1     1     2   ar
     2     1     5   ar
     3     1    15    2
     4     2     3   ar
     5     2    10    1
     6     3     4   ar
     7     3     9   ar
     8     4     5   ar
     9     4     6   ar
    10     6     7   ar
    11     7     8   ar
    12     8     9   ar
    13    10    11    1
    14    11    12    1
    15    12    13    2
    16    12    14   am
