@<TRIPOS>MOLECULE
32837_ChemDiv_6234-0682
 29 31 0 0 0
SMALL
GASTEIGER
Energy = 0

@<TRIPOS>ATOM
      1 C           0.8880    0.1420    0.0000 C.3     1  LIG1        0.1669
      2 C           0.9130    1.1380    0.0000 C.3     1  LIG1        0.2044
      3 C           0.0420    0.6540    0.0000 C.3     1  LIG1        0.0716
      4 C          -0.9630    0.6790    0.0000 C.ar    1  LIG1        0.0175
      5 C          -1.4790   -0.1750    0.0000 C.ar    1  LIG1        0.1715
      6 C          -2.4790   -0.1540    0.0000 C.ar    1  LIG1        0.2057
      7 C          -2.9580    0.7380    0.0000 C.ar    1  LIG1        0.1754
      8 C          -2.4380    1.5830    0.0000 C.ar    1  LIG1        0.0399
      9 C          -1.4330    1.5540    0.0000 C.ar    1  LIG1        0.0021
     10 O          -3.9460    0.7670    0.0000 O.3     1  LIG1       -0.4683
     11 C          -4.4710   -0.0790    0.0000 C.3     1  LIG1        0.2526
     12 O          -3.0040   -1.0000    0.0000 O.3     1  LIG1       -0.4654
     13 C          -2.5250   -1.8830    0.0000 C.3     1  LIG1        0.2528
     14 O          -1.0080   -1.0540    0.0000 O.3     1  LIG1       -0.4686
     15 C          -0.0040   -1.0790    0.0000 C.3     1  LIG1        0.2526
     16 C           1.8710    1.4250    0.0000 C.2     1  LIG1        0.4019
     17 N           2.4380    0.6040    0.0000 N.2     1  LIG1       -0.0474
     18 C           1.8330   -0.1920    0.0000 C.3     1  LIG1        0.2656
     19 S           2.7920   -0.4500    0.0000 S.3     1  LIG1       -0.0829
     20 C           3.3670   -1.3250    0.0000 C.3     1  LIG1        0.0623
     21 C           4.4670   -1.2630    0.0000 C.3     1  LIG1        0.0127
     22 S           1.8290   -1.1920    0.0000 S.3     1  LIG1       -0.0829
     23 C           2.3170   -2.0500    0.0000 C.3     1  LIG1        0.0623
     24 C           1.8170   -2.9080    0.0000 C.3     1  LIG1        0.0127
     25 N           2.2000    2.3670    0.0000 N.pl3   1  LIG1        0.2118
     26 C           0.8880    2.0580    0.0000 C.1     1  LIG1        0.0848
     27 N           1.4170    2.9130    0.0000 N.1     1  LIG1       -0.1953
     28 C           0.8830   -0.8500    0.0000 C.1     1  LIG1        0.0790
     29 N           1.3580   -1.7250    0.0000 N.1     1  LIG1       -0.1957
@<TRIPOS>BOND
     1     1     2    1
     2     1     3    1
     3     1    18    1
     4     1    28    1
     5     2     3    1
     6     2    16    1
     7     2    26    1
     8     3     4    1
     9     4     5   ar
    10     4     9   ar
    11     5     6   ar
    12     5    14    1
    13     6     7   ar
    14     6    12    1
    15     7     8   ar
    16     7    10    1
    17     8     9   ar
    18    10    11    1
    19    12    13    1
    20    14    15    1
    21    16    17    2
    22    16    25    1
    23    17    18    1
    24    18    19    1
    25    18    22    1
    26    19    20    1
    27    20    21    1
    28    22    23    1
    29    23    24    1
    30    26    27    3
    31    28    29    3
