@<TRIPOS>MOLECULE
32845_ChemDiv_6238-0047
 22 23 0 0 0
SMALL
GASTEIGER
Energy = 0

@<TRIPOS>ATOM
      1 N           0.5830    0.4830    0.0000 N.ar    1  LIG1       -0.2386
      2 C          -0.2380    1.0670    0.0000 C.ar    1  LIG1        0.0804
      3 C           0.0830    2.0210    0.0000 C.ar    1  LIG1        0.0202
      4 C           1.0830    2.0210    0.0000 C.ar    1  LIG1        0.0161
      5 C           1.3830    1.0670    0.0000 C.ar    1  LIG1        0.0589
      6 C           2.3380    0.7580    0.0000 C.3     1  LIG1        0.0516
      7 C           3.0830    1.4250    0.0000 C.3     1  LIG1        0.0480
      8 C           4.0370    1.1210    0.0000 C.2     1  LIG1        0.0507
      9 O           4.2420    0.1380    0.0000 O.co2   1  LIG1       -0.5492
     10 O           4.7790    1.7880    0.0000 O.co2   1  LIG1       -0.5492
     11 C          -1.1830    0.7580    0.0000 C.ar    1  LIG1        0.0177
     12 C          -1.9250    1.4250    0.0000 C.ar    1  LIG1        0.0046
     13 C          -2.8750    1.1210    0.0000 C.ar    1  LIG1        0.0369
     14 C          -3.0830    0.1380    0.0000 C.ar    1  LIG1        0.1387
     15 C          -2.3290   -0.5290    0.0000 C.ar    1  LIG1        0.0369
     16 C          -1.3880   -0.2130    0.0000 C.ar    1  LIG1        0.0046
     17 O          -4.0290   -0.1790    0.0000 O.3     1  LIG1       -0.4714
     18 C          -4.7830    0.5000    0.0000 C.3     1  LIG1        0.2525
     19 N           0.5830   -0.5170    0.0000 N.am    1  LIG1       -0.0768
     20 C           1.4460   -1.0170    0.0000 C.2     1  LIG1        0.3792
     21 O           2.3080   -0.5170    0.0000 O.2     1  LIG1       -0.2456
     22 N           1.4460   -2.0170    0.0000 N.am    1  LIG1       -0.0664
@<TRIPOS>BOND
     1     1     2   ar
     2     1     5   ar
     3     1    19    1
     4     2     3   ar
     5     2    11    1
     6     3     4   ar
     7     4     5   ar
     8     5     6    1
     9     6     7    1
    10     7     8    1
    11     8     9   ar
    12     8    10   ar
    13    11    12   ar
    14    11    16   ar
    15    12    13   ar
    16    13    14   ar
    17    14    15   ar
    18    14    17    1
    19    15    16   ar
    20    17    18    1
    21    19    20   am
    22    20    21    2
    23    20    22   am
