@<TRIPOS>MOLECULE
32848_ChemDiv_6725-3851
 27 31 0 0 0
SMALL
GASTEIGER
Energy = 0

@<TRIPOS>ATOM
      1 N          -0.9330    1.4580    0.0000 N.ar    1  LIG1       -0.1913
      2 C          -1.8000    1.9630    0.0000 C.ar    1  LIG1        0.1866
      3 N          -1.5830    2.9330    0.0000 N.ar    1  LIG1       -0.1269
      4 N          -0.5920    3.0420    0.0000 N.ar    1  LIG1       -0.1269
      5 C          -0.1880    2.1210    0.0000 C.ar    1  LIG1        0.1865
      6 C           0.7880    1.9040    0.0000 C.ar    1  LIG1        0.0378
      7 C           1.4540    2.6460    0.0000 C.ar    1  LIG1        0.0062
      8 C           2.4380    2.4420    0.0000 C.ar    1  LIG1        0.0370
      9 C           2.7500    1.4790    0.0000 C.ar    1  LIG1        0.1387
     10 C           2.0710    0.7380    0.0000 C.ar    1  LIG1        0.0370
     11 C           1.0880    0.9540    0.0000 C.ar    1  LIG1        0.0062
     12 O           3.7210    1.2750    0.0000 O.3     1  LIG1       -0.4714
     13 C           4.3920    2.0130    0.0000 C.3     1  LIG1        0.2525
     14 C          -2.6630    1.4500    0.0000 C.ar    1  LIG1        0.0391
     15 C          -2.6630    0.4500    0.0000 C.ar    1  LIG1        0.0224
     16 C          -1.8000   -0.0500    0.0000 C.ar    1  LIG1        0.1014
     17 N          -0.9330    0.4500    0.0000 N.ar    1  LIG1       -0.1624
     18 C          -1.8000   -1.0380    0.0000 C.ar    1  LIG1        0.0194
     19 C          -0.9420   -1.5420    0.0000 C.ar    1  LIG1        0.0016
     20 C          -0.9330   -2.5330    0.0000 C.ar    1  LIG1        0.0000
     21 C          -1.8000   -3.0380    0.0000 C.ar    1  LIG1        0.0000
     22 C          -2.6710   -2.5380    0.0000 C.ar    1  LIG1        0.0000
     23 C          -2.6710   -1.5420    0.0000 C.ar    1  LIG1        0.0016
     24 C          -3.5290   -0.0500    0.0000 C.ar    1  LIG1        0.0017
     25 C          -4.3920    0.4500    0.0000 C.ar    1  LIG1        0.0001
     26 C          -4.3960    1.4580    0.0000 C.ar    1  LIG1        0.0001
     27 C          -3.5250    1.9540    0.0000 C.ar    1  LIG1        0.0032
@<TRIPOS>BOND
     1     1     2   ar
     2     1     5   ar
     3     1    17   ar
     4     2     3   ar
     5     2    14   ar
     6     3     4   ar
     7     4     5   ar
     8     5     6    1
     9     6     7   ar
    10     6    11   ar
    11     7     8   ar
    12     8     9   ar
    13     9    10   ar
    14     9    12    1
    15    10    11   ar
    16    12    13    1
    17    14    15   ar
    18    14    27   ar
    19    15    16   ar
    20    15    24   ar
    21    16    17   ar
    22    16    18    1
    23    18    19   ar
    24    18    23   ar
    25    19    20   ar
    26    20    21   ar
    27    21    22   ar
    28    22    23   ar
    29    24    25   ar
    30    25    26   ar
    31    26    27   ar
