@<TRIPOS>MOLECULE
32850_ChemDiv_K869-0264
 23 24 0 0 0
SMALL
GASTEIGER
Energy = 0

@<TRIPOS>ATOM
      1 C          -0.1130    3.0750    0.0000 C.ar    1  LIG1        0.2501
      2 N           0.1330    2.0960    0.0000 N.ar    1  LIG1       -0.2898
      3 C           1.1420    2.0420    0.0000 C.ar    1  LIG1        0.0975
      4 C           1.5000    2.9790    0.0000 C.ar    1  LIG1        0.1633
      5 O           0.7250    3.6040    0.0000 O.2     1  LIG1       -0.4306
      6 C           2.4790    3.1380    0.0000 C.ar    1  LIG1        0.0391
      7 C           3.1210    2.3460    0.0000 C.ar    1  LIG1        0.0032
      8 C           2.7540    1.4170    0.0000 C.ar    1  LIG1        0.0017
      9 C           1.7670    1.2580    0.0000 C.ar    1  LIG1        0.0204
     10 C          -0.5040    1.3080    0.0000 C.3     1  LIG1        0.1192
     11 C          -1.4960    1.4630    0.0000 C.3     1  LIG1        0.1113
     12 C          -2.1330    0.6920    0.0000 C.2     1  LIG1        0.2435
     13 N          -1.7750   -0.2380    0.0000 N.am    1  LIG1       -0.2000
     14 C          -0.9830   -0.8420    0.0000 C.3     1  LIG1        0.1762
     15 C          -1.1130   -1.8330    0.0000 C.3     1  LIG1        0.2577
     16 O          -0.3210   -2.4330    0.0000 O.3     1  LIG1       -0.3292
     17 C           0.5880   -2.0540    0.0000 C.3     1  LIG1        0.1449
     18 C           1.3830   -2.6580    0.0000 C.3     1  LIG1        0.0347
     19 O          -2.0330   -2.2210    0.0000 O.3     1  LIG1       -0.3292
     20 C          -2.1670   -3.2080    0.0000 C.3     1  LIG1        0.1449
     21 C          -3.0790   -3.6000    0.0000 C.3     1  LIG1        0.0347
     22 O          -3.1250    0.8380    0.0000 O.2     1  LIG1       -0.2733
     23 S          -1.0380    3.4420    0.0000 S.2     1  LIG1        0.0094
@<TRIPOS>BOND
     1     1     2   ar
     2     1     5   ar
     3     1    23    2
     4     2     3   ar
     5     2    10    1
     6     3     4   ar
     7     3     9   ar
     8     4     5   ar
     9     4     6   ar
    10     6     7   ar
    11     7     8   ar
    12     8     9   ar
    13    10    11    1
    14    11    12    1
    15    12    13   am
    16    12    22    2
    17    13    14    1
    18    14    15    1
    19    15    16    1
    20    15    19    1
    21    16    17    1
    22    17    18    1
    23    19    20    1
    24    20    21    1
