@<TRIPOS>MOLECULE
32858_ChemDiv_K869-0356
 24 26 0 0 0
SMALL
GASTEIGER
Energy = 0

@<TRIPOS>ATOM
      1 C          -0.8170    2.4960    0.0000 C.ar    1  LIG1        0.2501
      2 N          -1.4040    1.6960    0.0000 N.ar    1  LIG1       -0.2898
      3 C          -2.3580    2.0040    0.0000 C.ar    1  LIG1        0.0975
      4 C          -2.3580    3.0040    0.0000 C.ar    1  LIG1        0.1633
      5 O          -1.4040    3.3170    0.0000 O.2     1  LIG1       -0.4306
      6 C          -3.2210    3.5040    0.0000 C.ar    1  LIG1        0.0391
      7 C          -4.0880    3.0040    0.0000 C.ar    1  LIG1        0.0032
      8 C          -4.0880    2.0040    0.0000 C.ar    1  LIG1        0.0017
      9 C          -3.2210    1.5040    0.0000 C.ar    1  LIG1        0.0204
     10 C          -1.1000    0.7420    0.0000 C.3     1  LIG1        0.1192
     11 C          -0.1210    0.5290    0.0000 C.3     1  LIG1        0.1117
     12 C           0.1880   -0.4290    0.0000 C.2     1  LIG1        0.2475
     13 N           1.1580   -0.6380    0.0000 N.am    1  LIG1       -0.1790
     14 C           1.4580   -1.5960    0.0000 C.ar    1  LIG1        0.0778
     15 C           2.4420   -1.8040    0.0000 C.ar    1  LIG1        0.0720
     16 C           3.1130   -1.0630    0.0000 C.2     1  LIG1        0.2854
     17 O           2.8040   -0.1080    0.0000 O.2     1  LIG1       -0.2666
     18 N           4.0830   -1.2750    0.0000 N.am    1  LIG1       -0.0837
     19 C           2.7500   -2.7630    0.0000 C.ar    1  LIG1        0.0059
     20 C           2.0750   -3.5000    0.0000 C.ar    1  LIG1        0.0002
     21 C           1.0960   -3.2880    0.0000 C.ar    1  LIG1        0.0013
     22 C           0.7920   -2.3380    0.0000 C.ar    1  LIG1        0.0167
     23 O          -0.4830   -1.1670    0.0000 O.2     1  LIG1       -0.2729
     24 S           0.1830    2.4960    0.0000 S.2     1  LIG1        0.0094
@<TRIPOS>BOND
     1     1     2   ar
     2     1     5   ar
     3     1    24    2
     4     2     3   ar
     5     2    10    1
     6     3     4   ar
     7     3     9   ar
     8     4     5   ar
     9     4     6   ar
    10     6     7   ar
    11     7     8   ar
    12     8     9   ar
    13    10    11    1
    14    11    12    1
    15    12    13   am
    16    12    23    2
    17    13    14    1
    18    14    15   ar
    19    14    22   ar
    20    15    16    1
    21    15    19   ar
    22    16    17    2
    23    16    18   am
    24    19    20   ar
    25    20    21   ar
    26    21    22   ar
