@<TRIPOS>MOLECULE
32854_ChemDiv_K869-0305
 33 36 0 0 0
SMALL
GASTEIGER
Energy = 0

@<TRIPOS>ATOM
      1 S           0.5540   -2.1290    0.0000 S.O2    1  LIG1       -0.0558
      2 N           1.1500   -2.9500    0.0000 N.am    1  LIG1       -0.5022
      3 C           0.7380   -3.8670    0.0000 C.2     1  LIG1        0.0936
      4 O           1.3210   -4.6710    0.0000 O.2     1  LIG1       -0.3121
      5 C          -0.2580   -3.9710    0.0000 C.ar    1  LIG1        0.0163
      6 C          -0.8380   -3.1630    0.0000 C.ar    1  LIG1        0.0013
      7 C          -1.8250   -3.2540    0.0000 C.ar    1  LIG1        0.0000
      8 C          -2.2330   -4.1630    0.0000 C.ar    1  LIG1        0.0000
      9 C          -1.6580   -4.9750    0.0000 C.ar    1  LIG1        0.0000
     10 C          -0.6710   -4.8750    0.0000 C.ar    1  LIG1        0.0013
     11 C          -0.0330   -1.3080    0.0000 C.ar    1  LIG1        0.0894
     12 C           0.3880   -0.4040    0.0000 C.ar    1  LIG1        0.0182
     13 C          -0.1880    0.4170    0.0000 C.ar    1  LIG1        0.0179
     14 C          -1.1880    0.3250    0.0000 C.ar    1  LIG1        0.0734
     15 N          -1.7670    1.1460    0.0000 N.am    1  LIG1       -0.1792
     16 C          -2.1290    2.0710    0.0000 C.2     1  LIG1        0.2475
     17 C          -1.4920    2.8420    0.0000 C.3     1  LIG1        0.1117
     18 C          -0.5040    2.6920    0.0000 C.3     1  LIG1        0.1192
     19 N           0.1330    3.4750    0.0000 N.ar    1  LIG1       -0.2898
     20 C          -0.1130    4.4460    0.0000 C.ar    1  LIG1        0.2501
     21 O           0.7210    4.9750    0.0000 O.2     1  LIG1       -0.4306
     22 C           1.4960    4.3500    0.0000 C.ar    1  LIG1        0.1633
     23 C           1.1380    3.4170    0.0000 C.ar    1  LIG1        0.0975
     24 C           1.7580    2.6380    0.0000 C.ar    1  LIG1        0.0204
     25 C           2.7460    2.7960    0.0000 C.ar    1  LIG1        0.0017
     26 C           3.1130    3.7210    0.0000 C.ar    1  LIG1        0.0032
     27 C           2.4750    4.5080    0.0000 C.ar    1  LIG1        0.0391
     28 S          -1.0330    4.8130    0.0000 S.2     1  LIG1        0.0094
     29 O          -3.1170    2.2210    0.0000 O.2     1  LIG1       -0.2729
     30 C          -1.6000   -0.5830    0.0000 C.ar    1  LIG1        0.0179
     31 C          -1.0250   -1.4000    0.0000 C.ar    1  LIG1        0.0182
     32 O           1.3790   -1.5420    0.0000 O.2     1  LIG1       -0.1841
     33 O          -0.2670   -2.7210    0.0000 O.2     1  LIG1       -0.1841
@<TRIPOS>BOND
     1     1     2    1
     2     1    11    1
     3     1    32    2
     4     1    33    2
     5     2     3   am
     6     3     4    2
     7     3     5    1
     8     5     6   ar
     9     5    10   ar
    10     6     7   ar
    11     7     8   ar
    12     8     9   ar
    13     9    10   ar
    14    11    12   ar
    15    11    31   ar
    16    12    13   ar
    17    13    14   ar
    18    14    15    1
    19    14    30   ar
    20    15    16   am
    21    16    17    1
    22    16    29    2
    23    17    18    1
    24    18    19    1
    25    19    20   ar
    26    19    23   ar
    27    20    21   ar
    28    20    28    2
    29    21    22   ar
    30    22    23   ar
    31    22    27   ar
    32    23    24   ar
    33    24    25   ar
    34    25    26   ar
    35    26    27   ar
    36    30    31   ar
