@<TRIPOS>MOLECULE
32856_ChemDiv_K869-0333
 29 31 0 0 0
SMALL
GASTEIGER
Energy = 0

@<TRIPOS>ATOM
      1 C           2.5670    3.8250    0.0000 C.ar    1  LIG1        0.2501
      2 N           2.8710    2.8750    0.0000 N.ar    1  LIG1       -0.2898
      3 C           3.8710    2.8750    0.0000 C.ar    1  LIG1        0.0975
      4 C           4.1750    3.8250    0.0000 C.ar    1  LIG1        0.1633
      5 O           3.3630    4.4130    0.0000 O.2     1  LIG1       -0.4306
      6 C           5.1500    4.0330    0.0000 C.ar    1  LIG1        0.0391
      7 C           5.8290    3.2920    0.0000 C.ar    1  LIG1        0.0032
      8 C           5.5080    2.3540    0.0000 C.ar    1  LIG1        0.0017
      9 C           4.5380    2.1420    0.0000 C.ar    1  LIG1        0.0204
     10 C           2.2790    2.0630    0.0000 C.3     1  LIG1        0.1192
     11 C           1.2830    2.1710    0.0000 C.3     1  LIG1        0.1113
     12 C           0.6920    1.3500    0.0000 C.2     1  LIG1        0.2434
     13 O           1.1040    0.4420    0.0000 O.2     1  LIG1       -0.2733
     14 N          -0.2960    1.4580    0.0000 N.am    1  LIG1       -0.2050
     15 C          -0.8880    0.6460    0.0000 C.3     1  LIG1        0.1198
     16 C          -1.8920    0.7500    0.0000 C.3     1  LIG1        0.0499
     17 C          -2.4830   -0.0580    0.0000 C.ar    1  LIG1       -0.0172
     18 C          -2.0830   -0.9630    0.0000 C.ar    1  LIG1        0.0358
     19 C          -2.6580   -1.7710    0.0000 C.ar    1  LIG1        0.1719
     20 C          -3.6580   -1.6670    0.0000 C.ar    1  LIG1        0.1722
     21 C          -4.0670   -0.7500    0.0000 C.ar    1  LIG1        0.0397
     22 C          -3.4790    0.0540    0.0000 C.ar    1  LIG1       -0.0009
     23 O          -4.2500   -2.4790    0.0000 O.3     1  LIG1       -0.4724
     24 C          -5.2420   -2.3750    0.0000 C.3     1  LIG1        0.2057
     25 C          -5.8330   -3.1830    0.0000 C.3     1  LIG1        0.0512
     26 O          -2.2500   -2.6830    0.0000 O.3     1  LIG1       -0.4724
     27 C          -2.8420   -3.4960    0.0000 C.3     1  LIG1        0.2057
     28 C          -2.4290   -4.4130    0.0000 C.3     1  LIG1        0.0512
     29 S           1.6130    4.1290    0.0000 S.2     1  LIG1        0.0094
@<TRIPOS>BOND
     1     1     2   ar
     2     1     5   ar
     3     1    29    2
     4     2     3   ar
     5     2    10    1
     6     3     4   ar
     7     3     9   ar
     8     4     5   ar
     9     4     6   ar
    10     6     7   ar
    11     7     8   ar
    12     8     9   ar
    13    10    11    1
    14    11    12    1
    15    12    13    2
    16    12    14   am
    17    14    15    1
    18    15    16    1
    19    16    17    1
    20    17    18   ar
    21    17    22   ar
    22    18    19   ar
    23    19    20   ar
    24    19    26    1
    25    20    21   ar
    26    20    23    1
    27    21    22   ar
    28    23    24    1
    29    24    25    1
    30    26    27    1
    31    27    28    1
