@<TRIPOS>MOLECULE
32852_ChemDiv_K869-0284
 25 28 0 0 0
SMALL
GASTEIGER
Energy = 0

@<TRIPOS>ATOM
      1 C          -0.1130    3.7080    0.0000 C.ar    1  LIG1        0.2501
      2 N           0.1330    2.7290    0.0000 N.ar    1  LIG1       -0.2898
      3 C           1.1420    2.6750    0.0000 C.ar    1  LIG1        0.0975
      4 C           1.5000    3.6130    0.0000 C.ar    1  LIG1        0.1633
      5 O           0.7250    4.2330    0.0000 O.2     1  LIG1       -0.4306
      6 C           2.4790    3.7710    0.0000 C.ar    1  LIG1        0.0391
      7 C           3.1210    2.9790    0.0000 C.ar    1  LIG1        0.0032
      8 C           2.7540    2.0500    0.0000 C.ar    1  LIG1        0.0017
      9 C           1.7630    1.8920    0.0000 C.ar    1  LIG1        0.0204
     10 C          -0.5040    1.9420    0.0000 C.3     1  LIG1        0.1192
     11 C          -1.4960    2.0960    0.0000 C.3     1  LIG1        0.1113
     12 C          -2.1330    1.3250    0.0000 C.2     1  LIG1        0.2437
     13 N          -1.7750    0.3960    0.0000 N.am    1  LIG1       -0.2005
     14 C          -0.9170   -0.1210    0.0000 C.3     1  LIG1        0.1416
     15 C          -0.9460   -1.1290    0.0000 C.ar    1  LIG1        0.0027
     16 C          -0.0920   -1.6540    0.0000 C.ar    1  LIG1        0.0376
     17 C          -0.1250   -2.6460    0.0000 C.ar    1  LIG1        0.1762
     18 C          -0.9960   -3.1210    0.0000 C.ar    1  LIG1        0.1764
     19 O          -0.8080   -4.0960    0.0000 O.3     1  LIG1       -0.4346
     20 C           0.1670   -4.2330    0.0000 C.3     1  LIG1        0.4294
     21 O           0.6000   -3.3290    0.0000 O.3     1  LIG1       -0.4346
     22 C          -1.8460   -2.6170    0.0000 C.ar    1  LIG1        0.0399
     23 C          -1.8290   -1.6170    0.0000 C.ar    1  LIG1        0.0008
     24 O          -3.1250    1.4710    0.0000 O.2     1  LIG1       -0.2733
     25 S          -1.0380    4.0710    0.0000 S.2     1  LIG1        0.0094
@<TRIPOS>BOND
     1     1     2   ar
     2     1     5   ar
     3     1    25    2
     4     2     3   ar
     5     2    10    1
     6     3     4   ar
     7     3     9   ar
     8     4     5   ar
     9     4     6   ar
    10     6     7   ar
    11     7     8   ar
    12     8     9   ar
    13    10    11    1
    14    11    12    1
    15    12    13   am
    16    12    24    2
    17    13    14    1
    18    14    15    1
    19    15    16   ar
    20    15    23   ar
    21    16    17   ar
    22    17    18   ar
    23    17    21    1
    24    18    19    1
    25    18    22   ar
    26    19    20    1
    27    20    21    1
    28    22    23   ar
