@<TRIPOS>MOLECULE
32866_ChemDiv_6725-3881
 25 28 0 0 0
SMALL
GASTEIGER
Energy = 0

@<TRIPOS>ATOM
      1 N          -0.3750    0.2920    0.0000 N.ar    1  LIG1       -0.1916
      2 C          -1.2380    0.7960    0.0000 C.ar    1  LIG1        0.1865
      3 N          -1.0290    1.7750    0.0000 N.ar    1  LIG1       -0.1269
      4 N          -0.0420    1.8750    0.0000 N.ar    1  LIG1       -0.1269
      5 C           0.3710    0.9710    0.0000 C.ar    1  LIG1        0.1862
      6 C           1.3420    0.7250    0.0000 C.ar    1  LIG1        0.0350
      7 C           1.6170   -0.2250    0.0000 C.ar    1  LIG1        0.0228
      8 C           2.5880   -0.4710    0.0000 C.ar    1  LIG1        0.1251
      9 S           2.8670   -1.4420    0.0000 S.O2    1  LIG1        0.0935
     10 O           1.9000   -1.7170    0.0000 O.2     1  LIG1       -0.1503
     11 O           3.8330   -1.1670    0.0000 O.2     1  LIG1       -0.1503
     12 N           3.1460   -2.4080    0.0000 N.3     1  LIG1        0.0392
     13 C           3.2790    0.2500    0.0000 C.ar    1  LIG1        0.0197
     14 C           2.9960    1.2080    0.0000 C.ar    1  LIG1       -0.0028
     15 C           2.0380    1.4460    0.0000 C.ar    1  LIG1       -0.0188
     16 C           1.7710    2.4130    0.0000 C.3     1  LIG1        0.0311
     17 C          -2.1040    0.2920    0.0000 C.ar    1  LIG1        0.0388
     18 C          -2.1040   -0.7080    0.0000 C.ar    1  LIG1        0.0183
     19 C          -1.2380   -1.2040    0.0000 C.ar    1  LIG1        0.0795
     20 N          -0.3750   -0.7080    0.0000 N.ar    1  LIG1       -0.1667
     21 C          -1.2380   -2.2040    0.0000 C.3     1  LIG1        0.0539
     22 C          -2.9670   -1.2040    0.0000 C.ar    1  LIG1        0.0013
     23 C          -3.8380   -0.7080    0.0000 C.ar    1  LIG1        0.0000
     24 C          -3.8380    0.2920    0.0000 C.ar    1  LIG1        0.0001
     25 C          -2.9670    0.7960    0.0000 C.ar    1  LIG1        0.0031
@<TRIPOS>BOND
     1     1     2   ar
     2     1     5   ar
     3     1    20   ar
     4     2     3   ar
     5     2    17   ar
     6     3     4   ar
     7     4     5   ar
     8     5     6    1
     9     6     7   ar
    10     6    15   ar
    11     7     8   ar
    12     8     9    1
    13     8    13   ar
    14     9    10    2
    15     9    11    2
    16     9    12    1
    17    13    14   ar
    18    14    15   ar
    19    15    16    1
    20    17    18   ar
    21    17    25   ar
    22    18    19   ar
    23    18    22   ar
    24    19    20   ar
    25    19    21    1
    26    22    23   ar
    27    23    24   ar
    28    24    25   ar
