@<TRIPOS>MOLECULE
32864_ChemDiv_K953-0497
 23 25 0 0 0
SMALL
GASTEIGER
Energy = 0

@<TRIPOS>ATOM
      1 C          -0.1670    2.4880    0.0000 C.ar    1  LIG1        0.2501
      2 N          -0.7500    1.6750    0.0000 N.ar    1  LIG1       -0.2898
      3 C          -1.7040    1.9790    0.0000 C.ar    1  LIG1        0.0975
      4 C          -1.7130    2.9790    0.0000 C.ar    1  LIG1        0.1633
      5 O          -0.7580    3.2960    0.0000 O.2     1  LIG1       -0.4306
      6 C          -2.5750    3.4790    0.0000 C.ar    1  LIG1        0.0391
      7 C          -3.4420    2.9790    0.0000 C.ar    1  LIG1        0.0032
      8 C          -3.4420    1.9750    0.0000 C.ar    1  LIG1        0.0017
      9 C          -2.5750    1.4750    0.0000 C.ar    1  LIG1        0.0204
     10 C          -0.4420    0.7330    0.0000 C.3     1  LIG1        0.1192
     11 C          -1.0960   -0.0210    0.0000 C.3     1  LIG1        0.1113
     12 C          -0.7880   -0.9670    0.0000 C.2     1  LIG1        0.2436
     13 N           0.1960   -1.1710    0.0000 N.am    1  LIG1       -0.2026
     14 C           0.5080   -2.1170    0.0000 C.3     1  LIG1        0.1175
     15 C           1.4830   -2.3210    0.0000 C.ar    1  LIG1       -0.0026
     16 C           1.7960   -3.2670    0.0000 C.ar    1  LIG1       -0.0026
     17 C           2.7710   -3.4750    0.0000 C.ar    1  LIG1       -0.0003
     18 C           3.4380   -2.7210    0.0000 C.ar    1  LIG1       -0.0000
     19 C           3.1170   -1.7670    0.0000 C.ar    1  LIG1       -0.0003
     20 C           2.1420   -1.5710    0.0000 C.ar    1  LIG1       -0.0026
     21 C          -0.1580   -2.8670    0.0000 C.3     1  LIG1        0.0283
     22 O          -1.4540   -1.7170    0.0000 O.2     1  LIG1       -0.2733
     23 S           0.8290    2.4920    0.0000 S.2     1  LIG1        0.0094
@<TRIPOS>BOND
     1     1     2   ar
     2     1     5   ar
     3     1    23    2
     4     2     3   ar
     5     2    10    1
     6     3     4   ar
     7     3     9   ar
     8     4     5   ar
     9     4     6   ar
    10     6     7   ar
    11     7     8   ar
    12     8     9   ar
    13    10    11    1
    14    11    12    1
    15    12    13   am
    16    12    22    2
    17    13    14    1
    18    14    15    1
    19    14    21    1
    20    15    16   ar
    21    15    20   ar
    22    16    17   ar
    23    17    18   ar
    24    18    19   ar
    25    19    20   ar
