@<TRIPOS>MOLECULE
32861_ChemDiv_6408-0621
 28 31 0 0 0
SMALL
GASTEIGER
Energy = 0

@<TRIPOS>ATOM
      1 C          -3.3960   -1.6710    0.0000 C.3     1  LIG1        0.0422
      2 N          -2.8920   -0.8170    0.0000 N.4     1  LIG1        0.3506
      3 C          -1.8920   -0.8170    0.0000 C.3     1  LIG1        0.1615
      4 C          -1.1880   -0.1040    0.0000 C.ar    1  LIG1        0.0344
      5 C          -1.4540    0.8580    0.0000 C.ar    1  LIG1        0.0045
      6 C          -0.7420    1.5750    0.0000 C.ar    1  LIG1        0.0368
      7 C           0.2290    1.3130    0.0000 C.ar    1  LIG1        0.1393
      8 O           0.9380    2.0210    0.0000 O.3     1  LIG1       -0.4656
      9 C           1.9000    1.7670    0.0000 C.3     1  LIG1        0.2911
     10 C           2.6130    2.4790    0.0000 C.2     1  LIG1        0.2858
     11 N           3.5750    2.2210    0.0000 N.am    1  LIG1       -0.2057
     12 C           4.2830    2.9250    0.0000 C.3     1  LIG1        0.0789
     13 C           4.7830    2.0580    0.0000 C.3     1  LIG1        0.0217
     14 C           5.2580    2.6710    0.0000 C.3     1  LIG1        0.0217
     15 C           4.0250    3.8920    0.0000 C.3     1  LIG1        0.0217
     16 O           2.3500    3.4460    0.0000 O.2     1  LIG1       -0.2693
     17 C           0.4880    0.3500    0.0000 C.ar    1  LIG1        0.0368
     18 C          -0.2210   -0.3580    0.0000 C.ar    1  LIG1        0.0045
     19 C          -4.1540   -2.3880    0.0000 C.3     1  LIG1        0.0511
     20 C          -4.2670   -3.4130    0.0000 C.3     1  LIG1        0.0055
     21 C          -3.4040   -3.8880    0.0000 C.3     1  LIG1        0.0004
     22 C          -2.6540   -3.1250    0.0000 C.3     1  LIG1        0.0055
     23 C          -2.5330   -2.1460    0.0000 C.3     1  LIG1        0.0511
     24 C          -3.5830   -3.2540    0.0000 C.3     1  LIG1        0.0004
     25 C          -4.3960   -2.8380    0.0000 C.3     1  LIG1        0.0055
     26 C          -4.3000   -1.8750    0.0000 C.3     1  LIG1        0.0511
     27 C          -5.2630   -3.5710    0.0000 C.3     1  LIG1        0.0004
     28 H          -3.3960    0.0460    0.0000 H       1  LIG1        0.2379
@<TRIPOS>BOND
     1     1     2    1
     2     1    19    1
     3     1    23    1
     4     1    26    1
     5     2     3    1
     6     2    28    1
     7     3     4    1
     8     4     5   ar
     9     4    18   ar
    10     5     6   ar
    11     6     7   ar
    12     7     8    1
    13     7    17   ar
    14     8     9    1
    15     9    10    1
    16    10    11   am
    17    10    16    2
    18    11    12    1
    19    12    13    1
    20    12    14    1
    21    12    15    1
    22    17    18   ar
    23    19    20    1
    24    20    21    1
    25    20    27    1
    26    21    22    1
    27    22    23    1
    28    22    24    1
    29    24    25    1
    30    25    26    1
    31    25    27    1
