@<TRIPOS>MOLECULE
32868_ChemDiv_6725-3900
 33 37 0 0 0
SMALL
GASTEIGER
Energy = 0

@<TRIPOS>ATOM
      1 N          -0.6460    2.5670    0.0000 N.ar    1  LIG1       -0.1916
      2 C          -1.5170    3.0750    0.0000 C.ar    1  LIG1        0.1865
      3 N          -1.3040    4.0460    0.0000 N.ar    1  LIG1       -0.1269
      4 N          -0.3130    4.1460    0.0000 N.ar    1  LIG1       -0.1269
      5 C           0.0960    3.2460    0.0000 C.ar    1  LIG1        0.1862
      6 C           1.0670    3.0040    0.0000 C.ar    1  LIG1        0.0350
      7 C           1.3420    2.0500    0.0000 C.ar    1  LIG1        0.0227
      8 C           2.3130    1.8040    0.0000 C.ar    1  LIG1        0.1223
      9 S           2.6000    0.8380    0.0000 S.O2    1  LIG1        0.0637
     10 N           2.8630   -0.1330    0.0000 N.3     1  LIG1       -0.1433
     11 C           2.1710   -0.8420    0.0000 C.3     1  LIG1        0.1584
     12 C           2.4380   -1.8040    0.0000 C.3     1  LIG1        0.1582
     13 N           3.4080   -2.0500    0.0000 N.4     1  LIG1        0.3816
     14 C           4.1130   -1.3420    0.0000 C.3     1  LIG1        0.1582
     15 C           3.8380   -0.3670    0.0000 C.3     1  LIG1        0.1584
     16 C           3.6750   -3.0080    0.0000 C.3     1  LIG1        0.1749
     17 C           2.9830   -3.7210    0.0000 C.3     1  LIG1        0.2442
     18 O           3.2540   -4.6830    0.0000 O.3     1  LIG1       -0.2137
     19 O           3.5630    1.1080    0.0000 O.2     1  LIG1       -0.1528
     20 O           1.6250    0.5540    0.0000 O.2     1  LIG1       -0.1528
     21 C           3.0000    2.5210    0.0000 C.ar    1  LIG1        0.0196
     22 C           2.7210    3.4830    0.0000 C.ar    1  LIG1       -0.0028
     23 C           1.7630    3.7250    0.0000 C.ar    1  LIG1       -0.0188
     24 C           1.5000    4.6830    0.0000 C.3     1  LIG1        0.0311
     25 C          -2.3790    2.5670    0.0000 C.ar    1  LIG1        0.0388
     26 C          -2.3790    1.5750    0.0000 C.ar    1  LIG1        0.0183
     27 C          -1.5170    1.0750    0.0000 C.ar    1  LIG1        0.0795
     28 N          -0.6460    1.5750    0.0000 N.ar    1  LIG1       -0.1667
     29 C          -1.5170    0.0710    0.0000 C.3     1  LIG1        0.0539
     30 C          -3.2460    1.0670    0.0000 C.ar    1  LIG1        0.0013
     31 C          -4.1170    1.5670    0.0000 C.ar    1  LIG1        0.0000
     32 C          -4.1170    2.5670    0.0000 C.ar    1  LIG1        0.0001
     33 C          -3.2460    3.0750    0.0000 C.ar    1  LIG1        0.0031
@<TRIPOS>BOND
     1     1     2   ar
     2     1     5   ar
     3     1    28   ar
     4     2     3   ar
     5     2    25   ar
     6     3     4   ar
     7     4     5   ar
     8     5     6    1
     9     6     7   ar
    10     6    23   ar
    11     7     8   ar
    12     8     9    1
    13     8    21   ar
    14     9    10    1
    15     9    19    2
    16     9    20    2
    17    10    11    1
    18    10    15    1
    19    11    12    1
    20    12    13    1
    21    13    14    1
    22    13    16    1
    23    14    15    1
    24    16    17    1
    25    17    18    1
    26    21    22   ar
    27    22    23   ar
    28    23    24    1
    29    25    26   ar
    30    25    33   ar
    31    26    27   ar
    32    26    30   ar
    33    27    28   ar
    34    27    29    1
    35    30    31   ar
    36    31    32   ar
    37    32    33   ar
