@<TRIPOS>MOLECULE
32863_ChemDiv_6408-0740
 32 35 0 0 0
SMALL
GASTEIGER
Energy = 0

@<TRIPOS>ATOM
      1 C           0.2290    1.1500    0.0000 C.ar    1  LIG1        0.1790
      2 C           0.4920    0.1880    0.0000 C.ar    1  LIG1        0.0714
      3 C          -0.2170   -0.5250    0.0000 C.ar    1  LIG1        0.0114
      4 C          -1.1830   -0.2710    0.0000 C.ar    1  LIG1        0.0379
      5 C          -1.4540    0.6920    0.0000 C.ar    1  LIG1        0.0415
      6 C          -0.7380    1.4080    0.0000 C.ar    1  LIG1        0.1726
      7 O          -1.0040    2.3830    0.0000 O.3     1  LIG1       -0.4724
      8 C          -0.2960    3.0880    0.0000 C.3     1  LIG1        0.2057
      9 C          -0.5580    4.0500    0.0000 C.3     1  LIG1        0.0512
     10 C          -1.8880   -0.9830    0.0000 C.3     1  LIG1        0.1616
     11 N          -2.8880   -0.9830    0.0000 N.4     1  LIG1        0.3506
     12 C          -3.3920   -1.8380    0.0000 C.3     1  LIG1        0.0422
     13 C          -4.1500   -2.5500    0.0000 C.3     1  LIG1        0.0511
     14 C          -4.2630   -3.5750    0.0000 C.3     1  LIG1        0.0055
     15 C          -3.4000   -4.0500    0.0000 C.3     1  LIG1        0.0004
     16 C          -2.6500   -3.2880    0.0000 C.3     1  LIG1        0.0055
     17 C          -2.5290   -2.3080    0.0000 C.3     1  LIG1        0.0511
     18 C          -3.5790   -3.4170    0.0000 C.3     1  LIG1        0.0004
     19 C          -4.3920   -3.0000    0.0000 C.3     1  LIG1        0.0055
     20 C          -4.2920   -2.0420    0.0000 C.3     1  LIG1        0.0511
     21 C          -5.2580   -3.7330    0.0000 C.3     1  LIG1        0.0004
     22 BR          1.4580   -0.0750    0.0000 Br      1  LIG1       -0.0457
     23 O           0.9420    1.8540    0.0000 O.3     1  LIG1       -0.4620
     24 C           1.8960    1.6000    0.0000 C.3     1  LIG1        0.2913
     25 C           2.6170    2.3130    0.0000 C.2     1  LIG1        0.2858
     26 N           3.5790    2.0540    0.0000 N.am    1  LIG1       -0.2057
     27 C           4.2880    2.7580    0.0000 C.3     1  LIG1        0.0789
     28 C           4.0250    3.7330    0.0000 C.3     1  LIG1        0.0217
     29 C           4.7880    1.8880    0.0000 C.3     1  LIG1        0.0217
     30 C           5.2540    2.5040    0.0000 C.3     1  LIG1        0.0217
     31 O           2.3500    3.2750    0.0000 O.2     1  LIG1       -0.2693
     32 H          -3.3920   -0.1210    0.0000 H       1  LIG1        0.2379
@<TRIPOS>BOND
     1     1     2   ar
     2     1     6   ar
     3     1    23    1
     4     2     3   ar
     5     2    22    1
     6     3     4   ar
     7     4     5   ar
     8     4    10    1
     9     5     6   ar
    10     6     7    1
    11     7     8    1
    12     8     9    1
    13    10    11    1
    14    11    12    1
    15    11    32    1
    16    12    13    1
    17    12    17    1
    18    12    20    1
    19    13    14    1
    20    14    15    1
    21    14    21    1
    22    15    16    1
    23    16    17    1
    24    16    18    1
    25    18    19    1
    26    19    20    1
    27    19    21    1
    28    23    24    1
    29    24    25    1
    30    25    26   am
    31    25    31    2
    32    26    27    1
    33    27    28    1
    34    27    29    1
    35    27    30    1
