@<TRIPOS>MOLECULE
32862_ChemDiv_K953-0367
 29 32 0 0 0
SMALL
GASTEIGER
Energy = 0

@<TRIPOS>ATOM
      1 C          -0.7500    3.8960    0.0000 C.ar    1  LIG1        0.2501
      2 N           0.0630    3.3540    0.0000 N.ar    1  LIG1       -0.2898
      3 C           0.8670    3.9880    0.0000 C.ar    1  LIG1        0.0975
      4 C           0.5000    4.9080    0.0000 C.ar    1  LIG1        0.1633
      5 O          -0.5210    4.8420    0.0000 O.2     1  LIG1       -0.4306
      6 C           1.1210    5.6920    0.0000 C.ar    1  LIG1        0.0391
      7 C           2.1080    5.5420    0.0000 C.ar    1  LIG1        0.0032
      8 C           2.4670    4.6130    0.0000 C.ar    1  LIG1        0.0017
      9 C           1.8540    3.8330    0.0000 C.ar    1  LIG1        0.0204
     10 C           0.0790    2.3670    0.0000 C.3     1  LIG1        0.1192
     11 C          -0.7630    1.8670    0.0000 C.3     1  LIG1        0.1117
     12 C          -0.7540    0.8790    0.0000 C.2     1  LIG1        0.2475
     13 N          -1.6250    0.3790    0.0000 N.am    1  LIG1       -0.1792
     14 C          -1.6250   -0.6500    0.0000 C.ar    1  LIG1        0.0736
     15 C          -2.4710   -1.1330    0.0000 C.ar    1  LIG1        0.0197
     16 C          -2.4710   -2.1420    0.0000 C.ar    1  LIG1        0.0388
     17 C          -1.6250   -2.6540    0.0000 C.ar    1  LIG1        0.1454
     18 O          -1.6250   -3.6420    0.0000 O.3     1  LIG1       -0.4535
     19 C          -0.7170   -4.1670    0.0000 C.ar    1  LIG1        0.1454
     20 C          -0.7380   -5.1540    0.0000 C.ar    1  LIG1        0.0384
     21 C           0.1290   -5.6630    0.0000 C.ar    1  LIG1        0.0145
     22 C           0.9880   -5.1670    0.0000 C.ar    1  LIG1        0.0579
     23 CL          1.8670   -5.6920    0.0000 Cl      1  LIG1       -0.0822
     24 C           0.9920   -4.1670    0.0000 C.ar    1  LIG1        0.0145
     25 C           0.1380   -3.6830    0.0000 C.ar    1  LIG1        0.0384
     26 C          -0.7540   -2.1580    0.0000 C.ar    1  LIG1        0.0388
     27 C          -0.7500   -1.1630    0.0000 C.ar    1  LIG1        0.0197
     28 O           0.1460    0.3500    0.0000 O.2     1  LIG1       -0.2729
     29 S          -1.6710    3.5330    0.0000 S.2     1  LIG1        0.0094
@<TRIPOS>BOND
     1     1     2   ar
     2     1     5   ar
     3     1    29    2
     4     2     3   ar
     5     2    10    1
     6     3     4   ar
     7     3     9   ar
     8     4     5   ar
     9     4     6   ar
    10     6     7   ar
    11     7     8   ar
    12     8     9   ar
    13    10    11    1
    14    11    12    1
    15    12    13   am
    16    12    28    2
    17    13    14    1
    18    14    15   ar
    19    14    27   ar
    20    15    16   ar
    21    16    17   ar
    22    17    18    1
    23    17    26   ar
    24    18    19    1
    25    19    20   ar
    26    19    25   ar
    27    20    21   ar
    28    21    22   ar
    29    22    23    1
    30    22    24   ar
    31    24    25   ar
    32    26    27   ar
