@<TRIPOS>MOLECULE
32873_ChemDiv_6257-0356
 19 21 0 0 0
SMALL
GASTEIGER
Energy = 0

@<TRIPOS>ATOM
      1 C           1.4080    1.1830    0.0000 C.ar    1  LIG1        0.1220
      2 C           1.9960    0.3710    0.0000 C.ar    1  LIG1        0.1638
      3 N           1.4250   -0.4500    0.0000 N.ar    1  LIG1       -0.2904
      4 C           0.4670   -0.1460    0.0000 C.ar    1  LIG1        0.1635
      5 C           0.4540    0.8670    0.0000 C.ar    1  LIG1        0.1277
      6 N          -0.4130    1.3500    0.0000 N.ar    1  LIG1       -0.2400
      7 C          -1.2710    0.8500    0.0000 C.ar    1  LIG1        0.0990
      8 C          -1.2710   -0.1500    0.0000 C.ar    1  LIG1        0.1005
      9 N          -0.4080   -0.6500    0.0000 N.ar    1  LIG1       -0.2251
     10 C          -2.1380   -0.6580    0.0000 C.ar    1  LIG1        0.0207
     11 C          -3.0000   -0.1580    0.0000 C.ar    1  LIG1        0.0016
     12 C          -3.0000    0.8380    0.0000 C.ar    1  LIG1        0.0016
     13 C          -2.1380    1.3500    0.0000 C.ar    1  LIG1        0.0206
     14 C           1.7380   -1.3920    0.0000 C.3     1  LIG1        0.1892
     15 C           1.0750   -2.1460    0.0000 C.3     1  LIG1        0.3399
     16 N           1.3920   -3.0830    0.0000 N.4     1  LIG1        0.5992
     17 N           2.9960    0.3670    0.0000 N.pl3   1  LIG1       -0.1081
     18 C           1.6960    2.1380    0.0000 C.1     1  LIG1        0.1049
     19 N           1.9960    3.0880    0.0000 N.1     1  LIG1       -0.1907
@<TRIPOS>BOND
     1     1     2   ar
     2     1     5   ar
     3     1    18    1
     4     2     3   ar
     5     2    17    1
     6     3     4   ar
     7     3    14    1
     8     4     5   ar
     9     4     9   ar
    10     5     6   ar
    11     6     7   ar
    12     7     8   ar
    13     7    13   ar
    14     8     9   ar
    15     8    10   ar
    16    10    11   ar
    17    11    12   ar
    18    12    13   ar
    19    14    15    1
    20    15    16    1
    21    18    19    3
