@<TRIPOS>MOLECULE
32878_ChemDiv_6865-4138
 27 30 0 0 0
SMALL
GASTEIGER
Energy = 0

@<TRIPOS>ATOM
      1 N          -0.3710    0.5250    0.0000 N.ar    1  LIG1       -0.1915
      2 C           0.3710    1.2040    0.0000 C.ar    1  LIG1        0.1895
      3 N          -0.0420    2.1080    0.0000 N.ar    1  LIG1       -0.1268
      4 N          -1.0290    2.0040    0.0000 N.ar    1  LIG1       -0.1269
      5 C          -1.2380    1.0330    0.0000 C.ar    1  LIG1        0.1865
      6 C          -2.1040    0.5250    0.0000 C.ar    1  LIG1        0.0388
      7 C          -2.1080   -0.4710    0.0000 C.ar    1  LIG1        0.0183
      8 C          -1.2380   -0.9710    0.0000 C.ar    1  LIG1        0.0795
      9 N          -0.3710   -0.4710    0.0000 N.ar    1  LIG1       -0.1667
     10 C          -1.2420   -1.9750    0.0000 C.3     1  LIG1        0.0539
     11 C          -2.9670   -0.9710    0.0000 C.ar    1  LIG1        0.0013
     12 C          -3.8420   -0.4710    0.0000 C.ar    1  LIG1        0.0000
     13 C          -3.8420    0.5250    0.0000 C.ar    1  LIG1        0.0001
     14 C          -2.9710    1.0250    0.0000 C.ar    1  LIG1        0.0031
     15 C           1.3460    0.9630    0.0000 C.ar    1  LIG1        0.0729
     16 C           1.6210    0.0130    0.0000 C.ar    1  LIG1        0.0261
     17 C           2.5920   -0.2420    0.0000 C.ar    1  LIG1        0.1238
     18 S           2.8750   -1.2130    0.0000 S.O2    1  LIG1        0.0769
     19 O           1.9040   -1.4920    0.0000 O.2     1  LIG1       -0.1516
     20 O           3.8380   -0.9380    0.0000 O.2     1  LIG1       -0.1516
     21 N           3.1460   -2.1790    0.0000 N.3     1  LIG1       -0.0762
     22 C           2.4540   -2.8920    0.0000 C.3     1  LIG1        0.1362
     23 C           3.2790    0.4790    0.0000 C.ar    1  LIG1        0.0231
     24 C           2.9960    1.4380    0.0000 C.ar    1  LIG1        0.0384
     25 C           2.0330    1.6790    0.0000 C.ar    1  LIG1        0.1417
     26 O           1.7750    2.6460    0.0000 O.3     1  LIG1       -0.4713
     27 C           0.8080    2.8960    0.0000 C.3     1  LIG1        0.2525
@<TRIPOS>BOND
     1     1     2   ar
     2     1     5   ar
     3     1     9   ar
     4     2     3   ar
     5     2    15    1
     6     3     4   ar
     7     4     5   ar
     8     5     6   ar
     9     6     7   ar
    10     6    14   ar
    11     7     8   ar
    12     7    11   ar
    13     8     9   ar
    14     8    10    1
    15    11    12   ar
    16    12    13   ar
    17    13    14   ar
    18    15    16   ar
    19    15    25   ar
    20    16    17   ar
    21    17    18    1
    22    17    23   ar
    23    18    19    2
    24    18    20    2
    25    18    21    1
    26    21    22    1
    27    23    24   ar
    28    24    25   ar
    29    25    26    1
    30    26    27    1
