@<TRIPOS>MOLECULE
32870_ChemDiv_6725-3992
 30 34 0 0 0
SMALL
GASTEIGER
Energy = 0

@<TRIPOS>ATOM
      1 N          -2.5710   -0.0750    0.0000 N.ar    1  LIG1       -0.1916
      2 C          -3.4420    0.4250    0.0000 C.ar    1  LIG1        0.1865
      3 N          -3.2330    1.4080    0.0000 N.ar    1  LIG1       -0.1269
      4 N          -2.2330    1.5080    0.0000 N.ar    1  LIG1       -0.1269
      5 C          -1.8210    0.6040    0.0000 C.ar    1  LIG1        0.1865
      6 C          -0.8500    0.3630    0.0000 C.ar    1  LIG1        0.0389
      7 C          -0.1540    1.0790    0.0000 C.ar    1  LIG1        0.0197
      8 C           0.8080    0.8380    0.0000 C.ar    1  LIG1        0.0737
      9 N           1.4920    1.5750    0.0000 N.am    1  LIG1       -0.1742
     10 C           2.4540    1.3540    0.0000 C.2     1  LIG1        0.3033
     11 C           3.1420    2.0830    0.0000 C.3     1  LIG1        0.2269
     12 N           4.1080    1.8630    0.0000 N.4     1  LIG1        0.3844
     13 C           4.4000    0.9080    0.0000 C.3     1  LIG1        0.1393
     14 C           5.3630    0.6920    0.0000 C.3     1  LIG1        0.0629
     15 C           6.0420    1.4080    0.0000 C.3     1  LIG1        0.0123
     16 C           5.7500    2.3580    0.0000 C.3     1  LIG1        0.0629
     17 C           4.7790    2.5880    0.0000 C.3     1  LIG1        0.1393
     18 O           2.7500    0.3960    0.0000 O.2     1  LIG1       -0.2665
     19 C           1.0920   -0.1250    0.0000 C.ar    1  LIG1        0.0166
     20 C           0.3960   -0.8500    0.0000 C.ar    1  LIG1        0.0014
     21 C          -0.5750   -0.6000    0.0000 C.ar    1  LIG1        0.0032
     22 C          -4.3080   -0.0750    0.0000 C.ar    1  LIG1        0.0388
     23 C          -4.3130   -1.0790    0.0000 C.ar    1  LIG1        0.0183
     24 C          -3.4420   -1.5750    0.0000 C.ar    1  LIG1        0.0795
     25 N          -2.5710   -1.0790    0.0000 N.ar    1  LIG1       -0.1667
     26 C          -3.4420   -2.5830    0.0000 C.3     1  LIG1        0.0539
     27 C          -5.1790   -1.5790    0.0000 C.ar    1  LIG1        0.0013
     28 C          -6.0420   -1.0790    0.0000 C.ar    1  LIG1        0.0000
     29 C          -6.0420   -0.0750    0.0000 C.ar    1  LIG1        0.0001
     30 C          -5.1790    0.4250    0.0000 C.ar    1  LIG1        0.0031
@<TRIPOS>BOND
     1     1     2   ar
     2     1     5   ar
     3     1    25   ar
     4     2     3   ar
     5     2    22   ar
     6     3     4   ar
     7     4     5   ar
     8     5     6    1
     9     6     7   ar
    10     6    21   ar
    11     7     8   ar
    12     8     9    1
    13     8    19   ar
    14     9    10   am
    15    10    11    1
    16    10    18    2
    17    11    12    1
    18    12    13    1
    19    12    17    1
    20    13    14    1
    21    14    15    1
    22    15    16    1
    23    16    17    1
    24    19    20   ar
    25    20    21   ar
    26    22    23   ar
    27    22    30   ar
    28    23    24   ar
    29    23    27   ar
    30    24    25   ar
    31    24    26    1
    32    27    28   ar
    33    28    29   ar
    34    29    30   ar
