@<TRIPOS>MOLECULE
32871_ChemDiv_6254-0023
 20 23 0 0 0
SMALL
GASTEIGER
Energy = 0

@<TRIPOS>ATOM
      1 C          -0.0130   -1.4630    0.0000 C.ar    1  LIG1        0.2367
      2 N          -0.0130   -0.4790    0.0000 N.ar    1  LIG1       -0.2787
      3 C           0.8290    0.0000    0.0000 C.ar    1  LIG1        0.0484
      4 C           1.6670   -0.4920    0.0000 C.ar    1  LIG1        0.0659
      5 C           2.5170   -0.0080    0.0000 C.2     1  LIG1        0.1756
      6 C           2.5170    0.9670    0.0000 C.3     1  LIG1        0.0696
      7 C           1.6790    1.4670    0.0000 C.3     1  LIG1        0.0128
      8 C           0.8290    0.9830    0.0000 C.3     1  LIG1        0.0448
      9 C           2.5130    1.9500    0.0000 C.3     1  LIG1        0.0008
     10 C           0.8330    1.9500    0.0000 C.3     1  LIG1        0.0008
     11 O           3.3500   -0.4920    0.0000 O.2     1  LIG1       -0.2912
     12 C           1.6670   -1.4580    0.0000 C.ar    1  LIG1        0.1060
     13 N           0.8290   -1.9380    0.0000 N.ar    1  LIG1       -0.2095
     14 C          -1.6880   -0.4920    0.0000 C.ar    1  LIG1        0.0841
     15 C          -1.6880   -1.4630    0.0000 C.ar    1  LIG1        0.1005
     16 N          -0.8500   -1.9460    0.0000 N.ar    1  LIG1       -0.2097
     17 C          -2.5170   -1.9380    0.0000 C.ar    1  LIG1        0.0207
     18 C          -3.3500   -1.4630    0.0000 C.ar    1  LIG1        0.0016
     19 C          -3.3540   -0.4960    0.0000 C.ar    1  LIG1        0.0016
     20 C          -2.5210   -0.0130    0.0000 C.ar    1  LIG1        0.0191
@<TRIPOS>BOND
     1     1     2   ar
     2     1    13   ar
     3     1    16   ar
     4     2     3   ar
     5     2    14   ar
     6     3     4   ar
     7     3     8    1
     8     4     5    1
     9     4    12   ar
    10     5     6    1
    11     5    11    2
    12     6     7    1
    13     7     8    1
    14     7     9    1
    15     7    10    1
    16    12    13   ar
    17    14    15   ar
    18    14    20   ar
    19    15    16   ar
    20    15    17   ar
    21    17    18   ar
    22    18    19   ar
    23    19    20   ar
