@<TRIPOS>MOLECULE
32881_ChemDiv_6409-0055
 25 26 0 0 0
SMALL
GASTEIGER
Energy = 0

@<TRIPOS>ATOM
      1 C          -1.3540    2.1330    0.0000 C.ar    1  LIG1        0.2025
      2 N          -0.3500    2.2710    0.0000 N.ar    1  LIG1       -0.1962
      3 C           0.0670    1.3710    0.0000 C.ar    1  LIG1        0.2320
      4 O          -0.6750    0.6920    0.0000 O.2     1  LIG1       -0.4188
      5 C          -1.5290    1.1790    0.0000 C.ar    1  LIG1        0.2444
      6 N          -2.4460    0.7420    0.0000 N.pl3   1  LIG1       -0.2031
      7 C          -2.5540   -0.2420    0.0000 C.3     1  LIG1        0.1216
      8 C          -3.4460   -0.6790    0.0000 C.3     1  LIG1        0.0861
      9 C          -3.5580   -1.6880    0.0000 C.3     1  LIG1        0.1404
     10 N          -4.4540   -2.1000    0.0000 N.4     1  LIG1        0.3773
     11 C          -4.5630   -3.1080    0.0000 C.3     1  LIG1        0.1388
     12 C          -5.4630   -3.5170    0.0000 C.3     1  LIG1        0.0688
     13 C          -5.2880   -1.5330    0.0000 C.3     1  LIG1        0.1388
     14 C          -5.1960   -0.5290    0.0000 C.3     1  LIG1        0.0688
     15 C           0.9420    0.8710    0.0000 C.ar    1  LIG1        0.0538
     16 C           1.4460   -0.0040    0.0000 C.ar    1  LIG1        0.0078
     17 C           2.4500   -0.0040    0.0000 C.ar    1  LIG1        0.0371
     18 C           2.9460    0.8710    0.0000 C.ar    1  LIG1        0.1386
     19 C           2.4500    1.7420    0.0000 C.ar    1  LIG1        0.0371
     20 C           1.4460    1.7420    0.0000 C.ar    1  LIG1        0.0078
     21 O           3.9580    0.8500    0.0000 O.3     1  LIG1       -0.4755
     22 C           4.4580    1.6960    0.0000 C.3     1  LIG1        0.2055
     23 C           5.4580    1.6750    0.0000 C.3     1  LIG1        0.0512
     24 C          -2.0500    2.8460    0.0000 C.1     1  LIG1        0.1245
     25 N          -2.7500    3.5210    0.0000 N.1     1  LIG1       -0.1891
@<TRIPOS>BOND
     1     1     2   ar
     2     1     5   ar
     3     1    24    1
     4     2     3   ar
     5     3     4   ar
     6     3    15    1
     7     4     5   ar
     8     5     6    1
     9     6     7    1
    10     7     8    1
    11     8     9    1
    12     9    10    1
    13    10    11    1
    14    10    13    1
    15    11    12    1
    16    13    14    1
    17    15    16   ar
    18    15    20   ar
    19    16    17   ar
    20    17    18   ar
    21    18    19   ar
    22    18    21    1
    23    19    20   ar
    24    21    22    1
    25    22    23    1
    26    24    25    3
