@<TRIPOS>MOLECULE
32880_ChemDiv_6865-4145
 30 33 0 0 0
SMALL
GASTEIGER
Energy = 0

@<TRIPOS>ATOM
      1 N          -1.1250    0.6670    0.0000 N.ar    1  LIG1       -0.1915
      2 C          -0.3880    1.3460    0.0000 C.ar    1  LIG1        0.1895
      3 N          -0.7960    2.2540    0.0000 N.ar    1  LIG1       -0.1268
      4 N          -1.7830    2.1500    0.0000 N.ar    1  LIG1       -0.1269
      5 C          -1.9960    1.1710    0.0000 C.ar    1  LIG1        0.1865
      6 C          -2.8580    0.6710    0.0000 C.ar    1  LIG1        0.0388
      7 C          -2.8630   -0.3290    0.0000 C.ar    1  LIG1        0.0183
      8 C          -1.9960   -0.8250    0.0000 C.ar    1  LIG1        0.0795
      9 N          -1.1250   -0.3290    0.0000 N.ar    1  LIG1       -0.1667
     10 C          -1.9960   -1.8330    0.0000 C.3     1  LIG1        0.0539
     11 C          -3.7210   -0.8250    0.0000 C.ar    1  LIG1        0.0013
     12 C          -4.6000   -0.3330    0.0000 C.ar    1  LIG1        0.0000
     13 C          -4.5920    0.6670    0.0000 C.ar    1  LIG1        0.0001
     14 C          -3.7250    1.1710    0.0000 C.ar    1  LIG1        0.0031
     15 C           0.5880    1.1080    0.0000 C.ar    1  LIG1        0.0729
     16 C           0.8670    0.1540    0.0000 C.ar    1  LIG1        0.0261
     17 C           1.8380   -0.1000    0.0000 C.ar    1  LIG1        0.1225
     18 S           2.1170   -1.0710    0.0000 S.O2    1  LIG1        0.0634
     19 N           2.3920   -2.0380    0.0000 N.3     1  LIG1       -0.1514
     20 C           3.3580   -2.2790    0.0000 C.3     1  LIG1        0.1313
     21 C           3.6250   -3.2460    0.0000 C.3     1  LIG1        0.2012
     22 O           4.5960   -3.4880    0.0000 O.3     1  LIG1       -0.2188
     23 C           1.6880   -2.7500    0.0000 C.3     1  LIG1        0.1150
     24 O           3.0790   -0.7920    0.0000 O.2     1  LIG1       -0.1528
     25 O           1.1460   -1.3500    0.0000 O.2     1  LIG1       -0.1528
     26 C           2.5210    0.6210    0.0000 C.ar    1  LIG1        0.0230
     27 C           2.2420    1.5830    0.0000 C.ar    1  LIG1        0.0384
     28 C           1.2790    1.8210    0.0000 C.ar    1  LIG1        0.1417
     29 O           1.0080    2.7750    0.0000 O.3     1  LIG1       -0.4713
     30 C           1.7000    3.4920    0.0000 C.3     1  LIG1        0.2525
@<TRIPOS>BOND
     1     1     2   ar
     2     1     5   ar
     3     1     9   ar
     4     2     3   ar
     5     2    15    1
     6     3     4   ar
     7     4     5   ar
     8     5     6   ar
     9     6     7   ar
    10     6    14   ar
    11     7     8   ar
    12     7    11   ar
    13     8     9   ar
    14     8    10    1
    15    11    12   ar
    16    12    13   ar
    17    13    14   ar
    18    15    16   ar
    19    15    28   ar
    20    16    17   ar
    21    17    18    1
    22    17    26   ar
    23    18    19    1
    24    18    24    2
    25    18    25    2
    26    19    20    1
    27    19    23    1
    28    20    21    1
    29    21    22    1
    30    26    27   ar
    31    27    28   ar
    32    28    29    1
    33    29    30    1
