@<TRIPOS>MOLECULE
32883_ChemDiv_6412-0041
 27 30 0 0 0
SMALL
GASTEIGER
Energy = 0

@<TRIPOS>ATOM
      1 C           0.3750   -1.6210    0.0000 C.ar    1  LIG1        0.2453
      2 N           0.3750   -2.6250    0.0000 N.ar    1  LIG1       -0.1780
      3 C          -0.4830   -3.1210    0.0000 C.ar    1  LIG1        0.2410
      4 N          -1.3580   -2.6250    0.0000 N.ar    1  LIG1       -0.1826
      5 C          -1.3580   -1.6210    0.0000 C.ar    1  LIG1        0.2287
      6 N          -0.4920   -1.1170    0.0000 N.ar    1  LIG1       -0.1824
      7 CL         -2.2380   -1.1080    0.0000 Cl      1  LIG1       -0.0409
      8 N          -0.4750   -4.1290    0.0000 N.pl3   1  LIG1       -0.2009
      9 C          -1.3330   -4.6290    0.0000 C.3     1  LIG1        0.1508
     10 C          -1.3290   -5.6380    0.0000 C.3     1  LIG1        0.2054
     11 O          -2.1920   -6.1420    0.0000 O.3     1  LIG1       -0.2184
     12 N           1.2380   -1.1170    0.0000 N.pl3   1  LIG1       -0.1775
     13 C           1.2380   -0.1170    0.0000 C.ar    1  LIG1        0.0736
     14 C           0.3750    0.3790    0.0000 C.ar    1  LIG1        0.0168
     15 C           0.3750    1.3750    0.0000 C.ar    1  LIG1        0.0060
     16 C           1.2460    1.8880    0.0000 C.ar    1  LIG1        0.0537
     17 C           1.2460    2.8830    0.0000 C.ar    1  LIG1        0.2297
     18 N           0.4380    3.4750    0.0000 N.ar    1  LIG1       -0.2083
     19 C           0.7460    4.4210    0.0000 C.ar    1  LIG1        0.1189
     20 C           1.7460    4.4210    0.0000 C.ar    1  LIG1        0.1647
     21 O           2.0500    3.4750    0.0000 O.2     1  LIG1       -0.4346
     22 C           2.2330    5.2790    0.0000 C.ar    1  LIG1        0.0391
     23 C           1.7460    6.1420    0.0000 C.ar    1  LIG1        0.0032
     24 C           0.7380    6.1420    0.0000 C.ar    1  LIG1        0.0018
     25 C           0.2500    5.2790    0.0000 C.ar    1  LIG1        0.0223
     26 C           2.1130    1.3790    0.0000 C.ar    1  LIG1        0.0060
     27 C           2.1130    0.3790    0.0000 C.ar    1  LIG1        0.0168
@<TRIPOS>BOND
     1     1     2   ar
     2     1     6   ar
     3     1    12    1
     4     2     3   ar
     5     3     4   ar
     6     3     8    1
     7     4     5   ar
     8     5     6   ar
     9     5     7    1
    10     8     9    1
    11     9    10    1
    12    10    11    1
    13    12    13    1
    14    13    14   ar
    15    13    27   ar
    16    14    15   ar
    17    15    16   ar
    18    16    17    1
    19    16    26   ar
    20    17    18   ar
    21    17    21   ar
    22    18    19   ar
    23    19    20   ar
    24    19    25   ar
    25    20    21   ar
    26    20    22   ar
    27    22    23   ar
    28    23    24   ar
    29    24    25   ar
    30    26    27   ar
