@<TRIPOS>MOLECULE
32886_ChemDiv_6511-0311
 25 26 0 0 0
SMALL
GASTEIGER
Energy = 0

@<TRIPOS>ATOM
      1 S          -3.4670   -0.2460    0.0000 S.O2    1  LIG1        0.0634
      2 C          -2.6000    0.2500    0.0000 C.ar    1  LIG1        0.1224
      3 C          -1.7290   -0.2460    0.0000 C.ar    1  LIG1        0.0230
      4 C          -0.8670    0.2500    0.0000 C.ar    1  LIG1        0.0389
      5 C          -0.8670    1.2540    0.0000 C.ar    1  LIG1        0.1454
      6 O           0.0000    1.7540    0.0000 O.3     1  LIG1       -0.4535
      7 C           0.8670    1.2540    0.0000 C.ar    1  LIG1        0.1454
      8 C           1.7290    1.7540    0.0000 C.ar    1  LIG1        0.0389
      9 C           2.5960    1.2540    0.0000 C.ar    1  LIG1        0.0230
     10 C           2.5960    0.2500    0.0000 C.ar    1  LIG1        0.1224
     11 S           3.4630   -0.2460    0.0000 S.O2    1  LIG1        0.0634
     12 N           4.3250   -0.7500    0.0000 N.3     1  LIG1       -0.1526
     13 C           5.1920   -0.2460    0.0000 C.3     1  LIG1        0.1150
     14 C           4.3250   -1.7500    0.0000 C.3     1  LIG1        0.1150
     15 O           3.9540    0.6170    0.0000 O.2     1  LIG1       -0.1528
     16 O           2.9580   -1.1130    0.0000 O.2     1  LIG1       -0.1528
     17 C           1.7290   -0.2460    0.0000 C.ar    1  LIG1        0.0230
     18 C           0.8670    0.2500    0.0000 C.ar    1  LIG1        0.0389
     19 C          -1.7290    1.7540    0.0000 C.ar    1  LIG1        0.0389
     20 C          -2.6000    1.2540    0.0000 C.ar    1  LIG1        0.0230
     21 N          -4.3290   -0.7500    0.0000 N.3     1  LIG1       -0.1526
     22 C          -5.1960   -0.2460    0.0000 C.3     1  LIG1        0.1150
     23 C          -4.3290   -1.7500    0.0000 C.3     1  LIG1        0.1150
     24 O          -2.9630   -1.1130    0.0000 O.2     1  LIG1       -0.1528
     25 O          -3.9630    0.6170    0.0000 O.2     1  LIG1       -0.1528
@<TRIPOS>BOND
     1     1     2    1
     2     1    21    1
     3     1    24    2
     4     1    25    2
     5     2     3   ar
     6     2    20   ar
     7     3     4   ar
     8     4     5   ar
     9     5     6    1
    10     5    19   ar
    11     6     7    1
    12     7     8   ar
    13     7    18   ar
    14     8     9   ar
    15     9    10   ar
    16    10    11    1
    17    10    17   ar
    18    11    12    1
    19    11    15    2
    20    11    16    2
    21    12    13    1
    22    12    14    1
    23    17    18   ar
    24    19    20   ar
    25    21    22    1
    26    21    23    1
