@<TRIPOS>MOLECULE
32882_ChemDiv_K953-0681
 25 28 0 0 0
SMALL
GASTEIGER
Energy = 0

@<TRIPOS>ATOM
      1 C          -0.9710   -2.6380    0.0000 C.ar    1  LIG1        0.2501
      2 N          -1.4790   -1.7830    0.0000 N.ar    1  LIG1       -0.2898
      3 C          -2.4580   -2.0130    0.0000 C.ar    1  LIG1        0.0975
      4 C          -2.5420   -3.0040    0.0000 C.ar    1  LIG1        0.1633
      5 O          -1.6380   -3.4000    0.0000 O.2     1  LIG1       -0.4306
      6 C          -3.4500   -3.4330    0.0000 C.ar    1  LIG1        0.0391
      7 C          -4.2790   -2.8540    0.0000 C.ar    1  LIG1        0.0032
      8 C          -4.1960   -1.8630    0.0000 C.ar    1  LIG1        0.0017
      9 C          -3.2750   -1.4330    0.0000 C.ar    1  LIG1        0.0204
     10 C          -1.1880   -0.8330    0.0000 C.3     1  LIG1        0.1192
     11 C          -0.2210   -0.6000    0.0000 C.3     1  LIG1        0.1113
     12 C           0.0750    0.3540    0.0000 C.2     1  LIG1        0.2436
     13 N           1.0500    0.5710    0.0000 N.am    1  LIG1       -0.2026
     14 C           1.3500    1.5380    0.0000 C.3     1  LIG1        0.1172
     15 C           2.3290    1.7500    0.0000 C.ar    1  LIG1       -0.0065
     16 C           2.6380    2.7040    0.0000 C.ar    1  LIG1       -0.0245
     17 C           1.9630    3.4380    0.0000 C.3     1  LIG1        0.0262
     18 C           0.9830    3.2210    0.0000 C.3     1  LIG1        0.0068
     19 C           0.6830    2.2670    0.0000 C.3     1  LIG1        0.0265
     20 C           3.6040    2.9210    0.0000 C.ar    1  LIG1       -0.0045
     21 C           4.2750    2.1790    0.0000 C.ar    1  LIG1       -0.0003
     22 C           3.9750    1.2210    0.0000 C.ar    1  LIG1       -0.0003
     23 C           3.0040    1.0080    0.0000 C.ar    1  LIG1       -0.0029
     24 O          -0.6040    1.0880    0.0000 O.2     1  LIG1       -0.2733
     25 S           0.0330   -2.7210    0.0000 S.2     1  LIG1        0.0094
@<TRIPOS>BOND
     1     1     2   ar
     2     1     5   ar
     3     1    25    2
     4     2     3   ar
     5     2    10    1
     6     3     4   ar
     7     3     9   ar
     8     4     5   ar
     9     4     6   ar
    10     6     7   ar
    11     7     8   ar
    12     8     9   ar
    13    10    11    1
    14    11    12    1
    15    12    13   am
    16    12    24    2
    17    13    14    1
    18    14    15    1
    19    14    19    1
    20    15    16   ar
    21    15    23   ar
    22    16    17    1
    23    16    20   ar
    24    17    18    1
    25    18    19    1
    26    20    21   ar
    27    21    22   ar
    28    22    23   ar
