@<TRIPOS>MOLECULE
32896_ChemDiv_6527-0155
 24 28 0 0 0
SMALL
GASTEIGER
Energy = 0

@<TRIPOS>ATOM
      1 N           0.4080    1.1630    0.0000 N.ar    1  LIG1       -0.1919
      2 N          -0.8830    1.1630    0.0000 N.ar    1  LIG1       -0.1624
      3 C          -1.0920    0.1880    0.0000 C.ar    1  LIG1        0.1030
      4 C          -0.2420   -0.3040    0.0000 C.ar    1  LIG1        0.0402
      5 C           0.6170    0.1880    0.0000 C.ar    1  LIG1        0.0876
      6 C           1.4790   -0.3040    0.0000 C.ar    1  LIG1        0.0193
      7 C           1.4750   -1.2920    0.0000 C.ar    1  LIG1        0.0016
      8 C           0.6170   -1.7880    0.0000 C.ar    1  LIG1        0.0033
      9 C          -0.2420   -1.2920    0.0000 C.ar    1  LIG1        0.0419
     10 C          -1.0920   -1.7880    0.0000 C.ar    1  LIG1        0.1957
     11 C          -1.9500   -1.2920    0.0000 C.ar    1  LIG1        0.0405
     12 C          -1.9500   -0.3040    0.0000 C.ar    1  LIG1        0.0225
     13 C          -2.8080    0.1880    0.0000 C.ar    1  LIG1        0.0017
     14 C          -3.6670   -0.3040    0.0000 C.ar    1  LIG1        0.0001
     15 C          -3.6670   -1.2920    0.0000 C.ar    1  LIG1        0.0001
     16 C          -2.8080   -1.7880    0.0000 C.ar    1  LIG1        0.0032
     17 O          -1.0920   -2.7790    0.0000 O.2     1  LIG1       -0.2866
     18 C           1.1420    1.8210    0.0000 C.2     1  LIG1        0.3149
     19 C           2.0710    1.5210    0.0000 C.ar    1  LIG1        0.2030
     20 O           2.4750    0.6210    0.0000 O.2     1  LIG1       -0.4455
     21 C           3.4670    0.7250    0.0000 C.ar    1  LIG1        0.1798
     22 C           3.6630    1.7000    0.0000 C.ar    1  LIG1        0.0440
     23 C           2.8080    2.1790    0.0000 C.ar    1  LIG1        0.0457
     24 O           0.9330    2.7830    0.0000 O.2     1  LIG1       -0.2618
@<TRIPOS>BOND
     1     1     2   ar
     2     1     5   ar
     3     1    18   am
     4     2     3   ar
     5     3     4   ar
     6     3    12   ar
     7     4     5   ar
     8     4     9   ar
     9     5     6   ar
    10     6     7   ar
    11     7     8   ar
    12     8     9   ar
    13     9    10   ar
    14    10    11   ar
    15    10    17    2
    16    11    12   ar
    17    11    16   ar
    18    12    13   ar
    19    13    14   ar
    20    14    15   ar
    21    15    16   ar
    22    18    19    1
    23    18    24    2
    24    19    20   ar
    25    19    23   ar
    26    20    21   ar
    27    21    22   ar
    28    22    23   ar
