@<TRIPOS>MOLECULE
32894_ChemDiv_6526-0745
 36 38 0 0 0
SMALL
GASTEIGER
Energy = 0

@<TRIPOS>ATOM
      1 C           1.9960    0.2290    0.0000 C.ar    1  LIG1        0.1089
      2 C           1.0000    0.2290    0.0000 C.ar    1  LIG1        0.0465
      3 C           0.6920   -0.6960    0.0000 C.ar    1  LIG1        0.1452
      4 O           1.5130   -1.2830    0.0000 O.2     1  LIG1       -0.4575
      5 C           2.3130   -0.6960    0.0000 C.ar    1  LIG1        0.1295
      6 C           3.2710   -1.0000    0.0000 C.3     1  LIG1        0.0727
      7 C          -0.2670   -0.9500    0.0000 C.ar    1  LIG1        0.0408
      8 C          -0.9630   -0.1630    0.0000 C.ar    1  LIG1        0.0465
      9 C          -1.9750   -0.1630    0.0000 C.ar    1  LIG1        0.1089
     10 C          -2.2960    0.7790    0.0000 C.ar    1  LIG1        0.1295
     11 O          -1.4790    1.3500    0.0000 O.2     1  LIG1       -0.4575
     12 C          -0.6580    0.7580    0.0000 C.ar    1  LIG1        0.1452
     13 C           0.3420    0.9920    0.0000 C.ar    1  LIG1        0.0408
     14 C          -3.2380    1.0880    0.0000 C.3     1  LIG1        0.0727
     15 C          -2.5830   -1.0000    0.0000 C.2     1  LIG1        0.3440
     16 O          -2.1710   -1.9580    0.0000 O.2     1  LIG1       -0.2448
     17 O          -3.5830   -0.9290    0.0000 O.3     1  LIG1       -0.4451
     18 C          -4.1710   -1.7330    0.0000 C.3     1  LIG1        0.2150
     19 C          -5.1630   -1.6210    0.0000 C.3     1  LIG1        0.1100
     20 C          -5.7670   -2.4210    0.0000 C.3     1  LIG1        0.1425
     21 N          -6.7670   -2.3460    0.0000 N.4     1  LIG1        0.3773
     22 C          -7.3290   -3.1830    0.0000 C.3     1  LIG1        0.1388
     23 C          -8.3080   -3.1330    0.0000 C.3     1  LIG1        0.0688
     24 C          -7.1880   -1.4460    0.0000 C.3     1  LIG1        0.1388
     25 C          -8.1880   -1.3750    0.0000 C.3     1  LIG1        0.0688
     26 C           2.6330    1.0630    0.0000 C.2     1  LIG1        0.3440
     27 O           2.2040    1.9710    0.0000 O.2     1  LIG1       -0.2448
     28 O           3.5920    0.9580    0.0000 O.3     1  LIG1       -0.4451
     29 C           4.1960    1.7540    0.0000 C.3     1  LIG1        0.2150
     30 C           5.1540    1.6540    0.0000 C.3     1  LIG1        0.1100
     31 C           5.7630    2.4250    0.0000 C.3     1  LIG1        0.1425
     32 N           6.7790    2.3540    0.0000 N.4     1  LIG1        0.3773
     33 C           7.3250    3.1880    0.0000 C.3     1  LIG1        0.1388
     34 C           8.3080    3.1250    0.0000 C.3     1  LIG1        0.0688
     35 C           7.2000    1.4790    0.0000 C.3     1  LIG1        0.1388
     36 C           8.1790    1.4040    0.0000 C.3     1  LIG1        0.0688
@<TRIPOS>BOND
     1     1     2   ar
     2     1     5   ar
     3     1    26    1
     4     2     3   ar
     5     2    13   ar
     6     3     4   ar
     7     3     7   ar
     8     4     5   ar
     9     5     6    1
    10     7     8   ar
    11     8     9   ar
    12     8    12   ar
    13     9    10   ar
    14     9    15    1
    15    10    11   ar
    16    10    14    1
    17    11    12   ar
    18    12    13   ar
    19    15    16    2
    20    15    17    1
    21    17    18    1
    22    18    19    1
    23    19    20    1
    24    20    21    1
    25    21    22    1
    26    21    24    1
    27    22    23    1
    28    24    25    1
    29    26    27    2
    30    26    28    1
    31    28    29    1
    32    29    30    1
    33    30    31    1
    34    31    32    1
    35    32    33    1
    36    32    35    1
    37    33    34    1
    38    35    36    1
