@<TRIPOS>MOLECULE
32891_ChemDiv_6423-5877
 22 24 0 0 0
SMALL
GASTEIGER
Energy = 0

@<TRIPOS>ATOM
      1 S          -0.0130   -1.0670    0.0000 S.O2    1  LIG1        0.0634
      2 N           0.8460   -0.5710    0.0000 N.3     1  LIG1       -0.1555
      3 C           1.7130   -1.0790    0.0000 C.3     1  LIG1        0.0963
      4 C           2.5880   -0.5790    0.0000 C.3     1  LIG1        0.0284
      5 C           2.5920    0.4250    0.0000 C.3     1  LIG1        0.0827
      6 C           3.4670    0.9210    0.0000 C.2     1  LIG1        0.2603
      7 O           3.4750    1.9290    0.0000 O.2     1  LIG1       -0.2717
      8 N           4.3330    0.4080    0.0000 N.am    1  LIG1       -0.0878
      9 C           1.7330    0.9380    0.0000 C.3     1  LIG1        0.0284
     10 C           0.8460    0.4380    0.0000 C.3     1  LIG1        0.0963
     11 C          -0.8880   -0.5710    0.0000 C.ar    1  LIG1        0.1254
     12 C          -1.7460   -1.0630    0.0000 C.ar    1  LIG1        0.0599
     13 C          -2.6040   -0.5710    0.0000 C.ar    1  LIG1        0.1737
     14 C          -2.6040    0.4290    0.0000 C.ar    1  LIG1        0.1725
     15 O          -3.4630    0.9250    0.0000 O.3     1  LIG1       -0.4684
     16 C          -4.3380    0.4290    0.0000 C.3     1  LIG1        0.2526
     17 C          -4.3380   -0.5710    0.0000 C.3     1  LIG1        0.2526
     18 O          -3.4710   -1.0670    0.0000 O.3     1  LIG1       -0.4683
     19 C          -1.7460    0.9380    0.0000 C.ar    1  LIG1        0.0414
     20 C          -0.8790    0.4380    0.0000 C.ar    1  LIG1        0.0232
     21 O          -0.5130   -1.8960    0.0000 O.2     1  LIG1       -0.1528
     22 O           0.4790   -1.9250    0.0000 O.2     1  LIG1       -0.1528
@<TRIPOS>BOND
     1     1     2    1
     2     1    11    1
     3     1    21    2
     4     1    22    2
     5     2     3    1
     6     2    10    1
     7     3     4    1
     8     4     5    1
     9     5     6    1
    10     5     9    1
    11     6     7    2
    12     6     8   am
    13     9    10    1
    14    11    12   ar
    15    11    20   ar
    16    12    13   ar
    17    13    14   ar
    18    13    18    1
    19    14    15    1
    20    14    19   ar
    21    15    16    1
    22    16    17    1
    23    17    18    1
    24    19    20   ar
