@<TRIPOS>MOLECULE
32893_ChemDiv_G240-0027
 29 32 0 0 0
SMALL
GASTEIGER
Energy = 0

@<TRIPOS>ATOM
      1 S           1.3290    0.0420    0.0000 S.O2    1  LIG1        0.0637
      2 C           0.3290    0.0420    0.0000 C.ar    1  LIG1        0.1254
      3 C          -0.1670    0.9080    0.0000 C.ar    1  LIG1        0.0599
      4 C          -1.1670    0.9080    0.0000 C.ar    1  LIG1        0.1738
      5 C          -1.6580    0.0420    0.0000 C.ar    1  LIG1        0.1730
      6 O          -2.6540    0.0420    0.0000 O.3     1  LIG1       -0.4630
      7 C          -3.1540    0.9080    0.0000 C.3     1  LIG1        0.2845
      8 C          -4.1540    0.9080    0.0000 C.2     1  LIG1        0.2698
      9 N          -4.6540    0.0420    0.0000 N.am    1  LIG1       -0.2765
     10 C          -5.6420   -0.0580    0.0000 C.3     1  LIG1        0.0936
     11 C          -5.8540   -1.0290    0.0000 C.3     1  LIG1        0.0233
     12 C          -4.9920   -1.5290    0.0000 C.3     1  LIG1        0.0233
     13 C          -4.2420   -0.8630    0.0000 C.3     1  LIG1        0.0936
     14 O          -4.6540    1.7710    0.0000 O.2     1  LIG1       -0.2708
     15 C          -2.6540    1.7710    0.0000 C.3     1  LIG1        0.2583
     16 O          -1.6580    1.7710    0.0000 O.3     1  LIG1       -0.4679
     17 C          -1.1670   -0.8170    0.0000 C.ar    1  LIG1        0.0414
     18 C          -0.1670   -0.8170    0.0000 C.ar    1  LIG1        0.0232
     19 N           2.3290    0.0420    0.0000 N.3     1  LIG1       -0.1496
     20 C           2.8130   -0.8170    0.0000 C.3     1  LIG1        0.1221
     21 C           3.8130   -0.8540    0.0000 C.ar    1  LIG1       -0.0045
     22 C           4.3000   -1.7380    0.0000 C.ar    1  LIG1       -0.0029
     23 C           5.3040   -1.7670    0.0000 C.ar    1  LIG1       -0.0003
     24 C           5.8500   -0.9250    0.0000 C.ar    1  LIG1       -0.0000
     25 C           5.3540   -0.0330    0.0000 C.ar    1  LIG1       -0.0003
     26 C           4.3500   -0.0040    0.0000 C.ar    1  LIG1       -0.0029
     27 C           2.8250    0.9290    0.0000 C.3     1  LIG1        0.1153
     28 O           1.3290   -0.9500    0.0000 O.2     1  LIG1       -0.1528
     29 O           1.3290    1.0420    0.0000 O.2     1  LIG1       -0.1528
@<TRIPOS>BOND
     1     1     2    1
     2     1    19    1
     3     1    28    2
     4     1    29    2
     5     2     3   ar
     6     2    18   ar
     7     3     4   ar
     8     4     5   ar
     9     4    16    1
    10     5     6    1
    11     5    17   ar
    12     6     7    1
    13     7     8    1
    14     7    15    1
    15     8     9   am
    16     8    14    2
    17     9    10    1
    18     9    13    1
    19    10    11    1
    20    11    12    1
    21    12    13    1
    22    15    16    1
    23    17    18   ar
    24    19    20    1
    25    19    27    1
    26    20    21    1
    27    21    22   ar
    28    21    26   ar
    29    22    23   ar
    30    23    24   ar
    31    24    25   ar
    32    25    26   ar
