@<TRIPOS>MOLECULE
32890_ChemDiv_6516-0040
 20 22 0 0 0
SMALL
GASTEIGER
Energy = 0

@<TRIPOS>ATOM
      1 C          -0.8880    0.3330    0.0000 C.ar    1  LIG1        0.2505
      2 O          -0.0830    0.9210    0.0000 O.2     1  LIG1       -0.4104
      3 C          -0.3960    1.8710    0.0000 C.ar    1  LIG1        0.2886
      4 N          -1.3960    1.8670    0.0000 N.ar    1  LIG1       -0.0998
      5 N          -1.7000    0.9130    0.0000 N.ar    1  LIG1       -0.1064
      6 S           0.1880    2.6830    0.0000 S.2     1  LIG1        0.0128
      7 C          -0.8750   -0.6710    0.0000 C.ar    1  LIG1        0.0578
      8 C          -1.7380   -1.1710    0.0000 C.ar    1  LIG1        0.0222
      9 C          -1.7380   -2.1750    0.0000 C.ar    1  LIG1        0.0810
     10 N          -0.8670   -2.6710    0.0000 N.ar    1  LIG1       -0.2497
     11 C           0.0000   -2.1710    0.0000 C.ar    1  LIG1        0.0591
     12 C          -0.0080   -1.1630    0.0000 C.ar    1  LIG1        0.0194
     13 C           0.8630   -2.6670    0.0000 C.3     1  LIG1        0.0458
     14 C           1.7290   -2.1630    0.0000 C.3     1  LIG1        0.0063
     15 C           2.5960   -2.6580    0.0000 C.3     1  LIG1        0.0004
     16 C           3.4630   -2.1540    0.0000 C.3     1  LIG1        0.0000
     17 C          -2.6000   -2.6790    0.0000 C.ar    1  LIG1        0.0191
     18 C          -3.4670   -2.1790    0.0000 C.ar    1  LIG1        0.0015
     19 C          -3.4670   -1.1750    0.0000 C.ar    1  LIG1        0.0001
     20 C          -2.6040   -0.6790    0.0000 C.ar    1  LIG1        0.0016
@<TRIPOS>BOND
     1     1     2   ar
     2     1     5   ar
     3     1     7    1
     4     2     3   ar
     5     3     4   ar
     6     3     6    2
     7     4     5   ar
     8     7     8   ar
     9     7    12   ar
    10     8     9   ar
    11     8    20   ar
    12     9    10   ar
    13     9    17   ar
    14    10    11   ar
    15    11    12   ar
    16    11    13    1
    17    13    14    1
    18    14    15    1
    19    15    16    1
    20    17    18   ar
    21    18    19   ar
    22    19    20   ar
