@<TRIPOS>MOLECULE
32895_ChemDiv_G240-0079
 25 28 0 0 0
SMALL
GASTEIGER
Energy = 0

@<TRIPOS>ATOM
      1 S           2.3290   -0.0750    0.0000 S.O2    1  LIG1        0.0634
      2 C           1.3290   -0.0750    0.0000 C.ar    1  LIG1        0.1254
      3 C           0.8290    0.7920    0.0000 C.ar    1  LIG1        0.0599
      4 C          -0.1670    0.7920    0.0000 C.ar    1  LIG1        0.1738
      5 C          -0.6670   -0.0750    0.0000 C.ar    1  LIG1        0.1730
      6 O          -1.6670   -0.0750    0.0000 O.3     1  LIG1       -0.4630
      7 C          -2.1670    0.7920    0.0000 C.3     1  LIG1        0.2845
      8 C          -3.1670    0.7920    0.0000 C.2     1  LIG1        0.2698
      9 N          -3.6670   -0.0750    0.0000 N.am    1  LIG1       -0.2765
     10 C          -4.6670   -0.1790    0.0000 C.3     1  LIG1        0.0936
     11 C          -4.8710   -1.1540    0.0000 C.3     1  LIG1        0.0233
     12 C          -4.0040   -1.6540    0.0000 C.3     1  LIG1        0.0233
     13 C          -3.2580   -0.9880    0.0000 C.3     1  LIG1        0.0936
     14 O          -3.6670    1.6580    0.0000 O.2     1  LIG1       -0.2708
     15 C          -1.6670    1.6540    0.0000 C.3     1  LIG1        0.2583
     16 O          -0.6670    1.6540    0.0000 O.3     1  LIG1       -0.4679
     17 C          -0.1670   -0.9380    0.0000 C.ar    1  LIG1        0.0414
     18 C           0.8290   -0.9420    0.0000 C.ar    1  LIG1        0.0232
     19 N           3.3290   -0.0750    0.0000 N.3     1  LIG1       -0.1555
     20 C           3.9170    0.7330    0.0000 C.3     1  LIG1        0.0958
     21 C           4.8670    0.4290    0.0000 C.3     1  LIG1        0.0206
     22 C           4.8630   -0.5670    0.0000 C.3     1  LIG1        0.0206
     23 C           3.9170   -0.8790    0.0000 C.3     1  LIG1        0.0958
     24 O           2.3290   -1.0750    0.0000 O.2     1  LIG1       -0.1528
     25 O           2.3290    0.9290    0.0000 O.2     1  LIG1       -0.1528
@<TRIPOS>BOND
     1     1     2    1
     2     1    19    1
     3     1    24    2
     4     1    25    2
     5     2     3   ar
     6     2    18   ar
     7     3     4   ar
     8     4     5   ar
     9     4    16    1
    10     5     6    1
    11     5    17   ar
    12     6     7    1
    13     7     8    1
    14     7    15    1
    15     8     9   am
    16     8    14    2
    17     9    10    1
    18     9    13    1
    19    10    11    1
    20    11    12    1
    21    12    13    1
    22    15    16    1
    23    17    18   ar
    24    19    20    1
    25    19    23    1
    26    20    21    1
    27    21    22    1
    28    22    23    1
