@<TRIPOS>MOLECULE
32898_ChemDiv_D073-0074
 25 29 0 0 0
SMALL
GASTEIGER
Energy = 0

@<TRIPOS>ATOM
      1 N           0.0540    1.9630    0.0000 N.ar    1  LIG1       -0.1886
      2 C          -0.8080    2.4630    0.0000 C.ar    1  LIG1        0.1867
      3 N          -0.5960    3.4420    0.0000 N.ar    1  LIG1       -0.1268
      4 N           0.4000    3.5380    0.0000 N.ar    1  LIG1       -0.1237
      5 C           0.8040    2.6290    0.0000 C.ar    1  LIG1        0.2210
      6 C           1.7750    2.4170    0.0000 C.ar    1  LIG1        0.1829
      7 O           2.1790    1.4960    0.0000 O.2     1  LIG1       -0.4472
      8 C           3.1750    1.6000    0.0000 C.ar    1  LIG1        0.1798
      9 C           3.3920    2.5710    0.0000 C.ar    1  LIG1        0.0439
     10 C           2.5290    3.0790    0.0000 C.ar    1  LIG1        0.0440
     11 C          -1.6710    1.9540    0.0000 C.ar    1  LIG1        0.0391
     12 C          -1.6710    0.9500    0.0000 C.ar    1  LIG1        0.0224
     13 C          -0.8080    0.4580    0.0000 C.ar    1  LIG1        0.1014
     14 N           0.0540    0.9500    0.0000 N.ar    1  LIG1       -0.1623
     15 C          -0.8080   -0.5460    0.0000 C.ar    1  LIG1        0.0194
     16 C          -1.6750   -1.0420    0.0000 C.ar    1  LIG1        0.0024
     17 C          -1.6830   -2.0420    0.0000 C.ar    1  LIG1        0.0114
     18 C          -0.8080   -2.5380    0.0000 C.ar    1  LIG1        0.0577
     19 C           0.0630   -2.0420    0.0000 C.ar    1  LIG1        0.0114
     20 C           0.0540   -1.0380    0.0000 C.ar    1  LIG1        0.0024
     21 CL         -0.8080   -3.5330    0.0000 Cl      1  LIG1       -0.0822
     22 C          -2.5330    0.4580    0.0000 C.ar    1  LIG1        0.0017
     23 C          -3.3920    0.9500    0.0000 C.ar    1  LIG1        0.0001
     24 C          -3.3960    1.9630    0.0000 C.ar    1  LIG1        0.0001
     25 C          -2.5290    2.4630    0.0000 C.ar    1  LIG1        0.0032
@<TRIPOS>BOND
     1     1     2   ar
     2     1     5   ar
     3     1    14   ar
     4     2     3   ar
     5     2    11   ar
     6     3     4   ar
     7     4     5   ar
     8     5     6    1
     9     6     7   ar
    10     6    10   ar
    11     7     8   ar
    12     8     9   ar
    13     9    10   ar
    14    11    12   ar
    15    11    25   ar
    16    12    13   ar
    17    12    22   ar
    18    13    14   ar
    19    13    15    1
    20    15    16   ar
    21    15    20   ar
    22    16    17   ar
    23    17    18   ar
    24    18    19   ar
    25    18    21    1
    26    19    20   ar
    27    22    23   ar
    28    23    24   ar
    29    24    25   ar
