@<TRIPOS>MOLECULE
32900_ChemDiv_D073-0076
 20 23 0 0 0
SMALL
GASTEIGER
Energy = 0

@<TRIPOS>ATOM
      1 N          -0.1080    0.4670    0.0000 N.ar    1  LIG1       -0.1916
      2 C          -0.9750    0.9670    0.0000 C.ar    1  LIG1        0.1865
      3 N          -0.7580    1.9500    0.0000 N.ar    1  LIG1       -0.1269
      4 N           0.2330    2.0460    0.0000 N.ar    1  LIG1       -0.1269
      5 C           0.6330    1.1330    0.0000 C.ar    1  LIG1        0.1866
      6 C           1.6130    0.9210    0.0000 C.ar    1  LIG1        0.0407
      7 C           1.9170   -0.0290    0.0000 C.ar    1  LIG1        0.0238
      8 C           2.8920   -0.2420    0.0000 C.ar    1  LIG1        0.0990
      9 N           3.5630    0.5000    0.0000 N.ar    1  LIG1       -0.2423
     10 C           3.2460    1.4500    0.0000 C.ar    1  LIG1        0.0990
     11 C           2.2750    1.6630    0.0000 C.ar    1  LIG1        0.0238
     12 C          -1.8380    0.4580    0.0000 C.ar    1  LIG1        0.0388
     13 C          -1.8380   -0.5460    0.0000 C.ar    1  LIG1        0.0183
     14 C          -0.9750   -1.0380    0.0000 C.ar    1  LIG1        0.0795
     15 N          -0.1080   -0.5460    0.0000 N.ar    1  LIG1       -0.1667
     16 C          -0.9750   -2.0420    0.0000 C.3     1  LIG1        0.0539
     17 C          -2.7080   -1.0380    0.0000 C.ar    1  LIG1        0.0013
     18 C          -3.5670   -0.5460    0.0000 C.ar    1  LIG1        0.0000
     19 C          -3.5670    0.4670    0.0000 C.ar    1  LIG1        0.0001
     20 C          -2.6960    0.9670    0.0000 C.ar    1  LIG1        0.0031
@<TRIPOS>BOND
     1     1     2   ar
     2     1     5   ar
     3     1    15   ar
     4     2     3   ar
     5     2    12   ar
     6     3     4   ar
     7     4     5   ar
     8     5     6    1
     9     6     7   ar
    10     6    11   ar
    11     7     8   ar
    12     8     9   ar
    13     9    10   ar
    14    10    11   ar
    15    12    13   ar
    16    12    20   ar
    17    13    14   ar
    18    13    17   ar
    19    14    15   ar
    20    14    16    1
    21    17    18   ar
    22    18    19   ar
    23    19    20   ar
