@<TRIPOS>MOLECULE
32904_ChemDiv_6732-0144
 15 16 0 0 0
SMALL
GASTEIGER
Energy = 0

@<TRIPOS>ATOM
      1 C          -1.0790    0.2500    0.0000 C.ar    1  LIG1        0.1197
      2 C          -0.1250    0.5670    0.0000 C.ar    1  LIG1        0.1421
      3 S           0.4630   -0.2500    0.0000 S.2     1  LIG1        0.0213
      4 N          -0.1250   -1.0670    0.0000 N.ar    1  LIG1       -0.2025
      5 C          -1.0790   -0.7460    0.0000 C.ar    1  LIG1        0.1650
      6 C          -1.9500   -1.2460    0.0000 C.ar    1  LIG1        0.3005
      7 N          -2.8080   -0.7460    0.0000 N.ar    1  LIG1       -0.1842
      8 C          -2.8080    0.2500    0.0000 C.ar    1  LIG1        0.2018
      9 N          -1.9500    0.7500    0.0000 N.ar    1  LIG1       -0.2214
     10 O          -1.9500   -2.2460    0.0000 O.2     1  LIG1       -0.2634
     11 C           0.1830    1.5130    0.0000 C.2     1  LIG1        0.3503
     12 O          -0.4920    2.2500    0.0000 O.2     1  LIG1       -0.2442
     13 O           1.1580    1.7250    0.0000 O.3     1  LIG1       -0.4450
     14 C           1.8250    0.9830    0.0000 C.3     1  LIG1        0.2089
     15 C           2.8040    1.1880    0.0000 C.3     1  LIG1        0.0513
@<TRIPOS>BOND
     1     1     2   ar
     2     1     5   ar
     3     1     9   ar
     4     2     3   ar
     5     2    11    1
     6     3     4   ar
     7     4     5   ar
     8     5     6   ar
     9     6     7   ar
    10     6    10    2
    11     7     8   ar
    12     8     9   ar
    13    11    12    2
    14    11    13    1
    15    13    14    1
    16    14    15    1
