@<TRIPOS>MOLECULE
32908_ChemDiv_6737-1718
 32 36 0 0 0
SMALL
GASTEIGER
Energy = 0

@<TRIPOS>ATOM
      1 C           3.0290   -0.5040    0.0000 C.ar    1  LIG1        0.0795
      2 C           2.1580   -1.0040    0.0000 C.ar    1  LIG1        0.2016
      3 C           1.2960   -0.5040    0.0000 C.ar    1  LIG1        0.0737
      4 C           1.2960    0.4960    0.0000 C.ar    1  LIG1        0.1515
      5 O           2.1580    0.9960    0.0000 O.2     1  LIG1       -0.4501
      6 C           3.0290    0.4960    0.0000 C.ar    1  LIG1        0.1827
      7 C           0.4290    0.9960    0.0000 C.ar    1  LIG1        0.0745
      8 C          -0.4330    0.4830    0.0000 C.ar    1  LIG1        0.1421
      9 O          -1.3130    0.9960    0.0000 O.3     1  LIG1       -0.4704
     10 C          -2.1750    0.4960    0.0000 C.3     1  LIG1        0.2350
     11 C          -3.0380    1.0130    0.0000 C.ar    1  LIG1        0.0558
     12 C          -3.9040    0.5080    0.0000 C.ar    1  LIG1        0.1393
     13 C          -4.7710    1.0130    0.0000 C.ar    1  LIG1        0.0421
     14 C          -4.7670    2.0080    0.0000 C.ar    1  LIG1        0.0125
     15 C          -3.8920    2.5130    0.0000 C.ar    1  LIG1        0.0574
     16 C          -3.0290    2.0000    0.0000 C.ar    1  LIG1        0.0137
     17 CL         -3.8880    3.5080    0.0000 Cl      1  LIG1       -0.0823
     18 C          -5.6250    0.5080    0.0000 C.3     1  LIG1        0.1756
     19 O          -5.6330   -0.4880    0.0000 O.3     1  LIG1       -0.3108
     20 C          -4.7670   -0.9920    0.0000 C.3     1  LIG1        0.3612
     21 O          -3.9040   -0.4880    0.0000 O.3     1  LIG1       -0.4484
     22 C          -0.4330   -0.5040    0.0000 C.ar    1  LIG1        0.0372
     23 C           0.4290   -1.0040    0.0000 C.ar    1  LIG1        0.0094
     24 O           2.1580   -2.0040    0.0000 O.2     1  LIG1       -0.2864
     25 C           3.8960   -1.0170    0.0000 C.ar    1  LIG1        0.0401
     26 C           3.8960   -2.0040    0.0000 C.ar    1  LIG1        0.1388
     27 O           3.0380   -2.5040    0.0000 O.3     1  LIG1       -0.4714
     28 C           3.0290   -3.5040    0.0000 C.3     1  LIG1        0.2525
     29 C           4.7580   -2.5170    0.0000 C.ar    1  LIG1        0.0369
     30 C           5.6290   -2.0040    0.0000 C.ar    1  LIG1        0.0031
     31 C           5.6290   -1.0040    0.0000 C.ar    1  LIG1        0.0002
     32 C           4.7630   -0.5040    0.0000 C.ar    1  LIG1        0.0032
@<TRIPOS>BOND
     1     1     2   ar
     2     1     6   ar
     3     1    25    1
     4     2     3   ar
     5     2    24    2
     6     3     4   ar
     7     3    23   ar
     8     4     5   ar
     9     4     7   ar
    10     5     6   ar
    11     7     8   ar
    12     8     9    1
    13     8    22   ar
    14     9    10    1
    15    10    11    1
    16    11    12   ar
    17    11    16   ar
    18    12    13   ar
    19    12    21    1
    20    13    14   ar
    21    13    18    1
    22    14    15   ar
    23    15    16   ar
    24    15    17    1
    25    18    19    1
    26    19    20    1
    27    20    21    1
    28    22    23   ar
    29    25    26   ar
    30    25    32   ar
    31    26    27    1
    32    26    29   ar
    33    27    28    1
    34    29    30   ar
    35    30    31   ar
    36    31    32   ar
