@<TRIPOS>MOLECULE
32917_ChemDiv_G240-0465
 28 31 0 0 0
SMALL
GASTEIGER
Energy = 0

@<TRIPOS>ATOM
      1 S           1.7290    0.0080    0.0000 S.O2    1  LIG1        0.0773
      2 C           0.7290    0.0080    0.0000 C.ar    1  LIG1        0.1268
      3 C           0.2290    0.8710    0.0000 C.ar    1  LIG1        0.0600
      4 C          -0.7710    0.8710    0.0000 C.ar    1  LIG1        0.1738
      5 C          -1.2710    0.0080    0.0000 C.ar    1  LIG1        0.1730
      6 O          -2.2710    0.0080    0.0000 O.3     1  LIG1       -0.4630
      7 C          -2.7710    0.8710    0.0000 C.3     1  LIG1        0.2845
      8 C          -3.7710    0.8710    0.0000 C.2     1  LIG1        0.2698
      9 N          -4.2750    0.0080    0.0000 N.am    1  LIG1       -0.2765
     10 C          -3.7710   -0.8630    0.0000 C.3     1  LIG1        0.0935
     11 C          -4.2750   -1.7290    0.0000 C.3     1  LIG1        0.0216
     12 C          -5.2750   -1.7290    0.0000 C.3     1  LIG1        0.0035
     13 C          -5.7750   -0.8630    0.0000 C.3     1  LIG1        0.0216
     14 C          -5.2750    0.0080    0.0000 C.3     1  LIG1        0.0935
     15 O          -4.2750    1.7330    0.0000 O.2     1  LIG1       -0.2708
     16 C          -2.2710    1.7330    0.0000 C.3     1  LIG1        0.2583
     17 O          -1.2710    1.7330    0.0000 O.3     1  LIG1       -0.4679
     18 C          -0.7710   -0.8630    0.0000 C.ar    1  LIG1        0.0414
     19 C           0.2290   -0.8630    0.0000 C.ar    1  LIG1        0.0233
     20 N           2.7290    0.0080    0.0000 N.3     1  LIG1       -0.0696
     21 C           3.2290    0.8710    0.0000 C.3     1  LIG1        0.1795
     22 C           4.2080    0.8750    0.0000 C.ar    1  LIG1        0.1425
     23 O           4.8080    1.7000    0.0000 O.2     1  LIG1       -0.4532
     24 C           5.7670    1.4080    0.0000 C.ar    1  LIG1        0.1792
     25 C           5.7710    0.4130    0.0000 C.ar    1  LIG1        0.0435
     26 C           4.8210    0.0960    0.0000 C.ar    1  LIG1        0.0377
     27 O           1.7290   -0.9920    0.0000 O.2     1  LIG1       -0.1516
     28 O           1.7290    1.0080    0.0000 O.2     1  LIG1       -0.1516
@<TRIPOS>BOND
     1     1     2    1
     2     1    20    1
     3     1    27    2
     4     1    28    2
     5     2     3   ar
     6     2    19   ar
     7     3     4   ar
     8     4     5   ar
     9     4    17    1
    10     5     6    1
    11     5    18   ar
    12     6     7    1
    13     7     8    1
    14     7    16    1
    15     8     9   am
    16     8    15    2
    17     9    10    1
    18     9    14    1
    19    10    11    1
    20    11    12    1
    21    12    13    1
    22    13    14    1
    23    16    17    1
    24    18    19   ar
    25    20    21    1
    26    21    22    1
    27    22    23   ar
    28    22    26   ar
    29    23    24   ar
    30    24    25   ar
    31    25    26   ar
