@<TRIPOS>MOLECULE
32915_ChemDiv_G240-0459
 32 35 0 0 0
SMALL
GASTEIGER
Energy = 0

@<TRIPOS>ATOM
      1 S           0.7880    0.0000    0.0000 S.O2    1  LIG1        0.0634
      2 N           1.7960    0.0000    0.0000 N.3     1  LIG1       -0.1555
      3 C           2.2830   -0.8420    0.0000 C.3     1  LIG1        0.0964
      4 C           3.2710   -0.8420    0.0000 C.3     1  LIG1        0.0303
      5 C           3.7710    0.0000    0.0000 C.3     1  LIG1        0.1019
      6 C           4.7710    0.0000    0.0000 C.2     1  LIG1        0.3165
      7 O           5.2500   -0.8670    0.0000 O.2     1  LIG1       -0.2501
      8 O           5.2500    0.8710    0.0000 O.3     1  LIG1       -0.4485
      9 C           6.2500    0.8710    0.0000 C.3     1  LIG1        0.2086
     10 C           6.7380    1.6880    0.0000 C.3     1  LIG1        0.0513
     11 C           3.2710    0.8710    0.0000 C.3     1  LIG1        0.0303
     12 C           2.2830    0.8830    0.0000 C.3     1  LIG1        0.0964
     13 C          -0.2130    0.0000    0.0000 C.ar    1  LIG1        0.1254
     14 C          -0.7130    0.8710    0.0000 C.ar    1  LIG1        0.0599
     15 C          -1.7210    0.8710    0.0000 C.ar    1  LIG1        0.1738
     16 C          -2.2210    0.0000    0.0000 C.ar    1  LIG1        0.1730
     17 O          -3.2330    0.0000    0.0000 O.3     1  LIG1       -0.4630
     18 C          -3.7330    0.8710    0.0000 C.3     1  LIG1        0.2845
     19 C          -4.7380    0.8710    0.0000 C.2     1  LIG1        0.2698
     20 N          -5.2380    0.0000    0.0000 N.am    1  LIG1       -0.2765
     21 C          -4.7380   -0.8670    0.0000 C.3     1  LIG1        0.0935
     22 C          -5.2380   -1.7420    0.0000 C.3     1  LIG1        0.0216
     23 C          -6.2290   -1.7420    0.0000 C.3     1  LIG1        0.0035
     24 C          -6.7380   -0.8670    0.0000 C.3     1  LIG1        0.0216
     25 C          -6.2290    0.0000    0.0000 C.3     1  LIG1        0.0935
     26 O          -5.2380    1.7460    0.0000 O.2     1  LIG1       -0.2708
     27 C          -3.2330    1.7460    0.0000 C.3     1  LIG1        0.2583
     28 O          -2.2210    1.7460    0.0000 O.3     1  LIG1       -0.4679
     29 C          -1.7210   -0.8670    0.0000 C.ar    1  LIG1        0.0414
     30 C          -0.7130   -0.8670    0.0000 C.ar    1  LIG1        0.0232
     31 O           0.7880   -1.0040    0.0000 O.2     1  LIG1       -0.1528
     32 O           0.7880    1.0080    0.0000 O.2     1  LIG1       -0.1528
@<TRIPOS>BOND
     1     1     2    1
     2     1    13    1
     3     1    31    2
     4     1    32    2
     5     2     3    1
     6     2    12    1
     7     3     4    1
     8     4     5    1
     9     5     6    1
    10     5    11    1
    11     6     7    2
    12     6     8    1
    13     8     9    1
    14     9    10    1
    15    11    12    1
    16    13    14   ar
    17    13    30   ar
    18    14    15   ar
    19    15    16   ar
    20    15    28    1
    21    16    17    1
    22    16    29   ar
    23    17    18    1
    24    18    19    1
    25    18    27    1
    26    19    20   am
    27    19    26    2
    28    20    21    1
    29    20    25    1
    30    21    22    1
    31    22    23    1
    32    23    24    1
    33    24    25    1
    34    27    28    1
    35    29    30   ar
