@<TRIPOS>MOLECULE
32918_ChemDiv_6527-0169
 27 31 0 0 0
SMALL
GASTEIGER
Energy = 0

@<TRIPOS>ATOM
      1 N          -0.3290    1.1580    0.0000 N.ar    1  LIG1       -0.1944
      2 N          -1.6210    1.1580    0.0000 N.ar    1  LIG1       -0.1625
      3 C          -1.8290    0.1920    0.0000 C.ar    1  LIG1        0.1030
      4 C          -0.9750   -0.3040    0.0000 C.ar    1  LIG1        0.0402
      5 C          -0.1170    0.1920    0.0000 C.ar    1  LIG1        0.0875
      6 C           0.7380   -0.3040    0.0000 C.ar    1  LIG1        0.0193
      7 C           0.7380   -1.2960    0.0000 C.ar    1  LIG1        0.0016
      8 C          -0.1170   -1.7920    0.0000 C.ar    1  LIG1        0.0033
      9 C          -0.9750   -1.2960    0.0000 C.ar    1  LIG1        0.0419
     10 C          -1.8290   -1.7920    0.0000 C.ar    1  LIG1        0.1957
     11 C          -2.6920   -1.2960    0.0000 C.ar    1  LIG1        0.0405
     12 C          -2.6920   -0.3040    0.0000 C.ar    1  LIG1        0.0225
     13 C          -3.5460    0.1920    0.0000 C.ar    1  LIG1        0.0017
     14 C          -4.4040   -0.3040    0.0000 C.ar    1  LIG1        0.0001
     15 C          -4.4040   -1.2960    0.0000 C.ar    1  LIG1        0.0001
     16 C          -3.5460   -1.7920    0.0000 C.ar    1  LIG1        0.0032
     17 O          -1.8290   -2.7830    0.0000 O.2     1  LIG1       -0.2866
     18 C           0.4080    1.8170    0.0000 C.2     1  LIG1        0.2803
     19 C           1.3380    1.5210    0.0000 C.ar    1  LIG1        0.0581
     20 C           1.5460    0.5580    0.0000 C.ar    1  LIG1        0.0079
     21 C           2.4920    0.2460    0.0000 C.ar    1  LIG1        0.0371
     22 C           3.2290    0.9210    0.0000 C.ar    1  LIG1        0.1387
     23 C           3.0130    1.8790    0.0000 C.ar    1  LIG1        0.0371
     24 C           2.0750    2.1790    0.0000 C.ar    1  LIG1        0.0079
     25 O           4.1710    0.6170    0.0000 O.3     1  LIG1       -0.4714
     26 C           4.4000   -0.3580    0.0000 C.3     1  LIG1        0.2525
     27 O           0.1960    2.7880    0.0000 O.2     1  LIG1       -0.2652
@<TRIPOS>BOND
     1     1     2   ar
     2     1     5   ar
     3     1    18   am
     4     2     3   ar
     5     3     4   ar
     6     3    12   ar
     7     4     5   ar
     8     4     9   ar
     9     5     6   ar
    10     6     7   ar
    11     7     8   ar
    12     8     9   ar
    13     9    10   ar
    14    10    11   ar
    15    10    17    2
    16    11    12   ar
    17    11    16   ar
    18    12    13   ar
    19    13    14   ar
    20    14    15   ar
    21    15    16   ar
    22    18    19    1
    23    18    27    2
    24    19    20   ar
    25    19    24   ar
    26    20    21   ar
    27    21    22   ar
    28    22    23   ar
    29    22    25    1
    30    23    24   ar
    31    25    26    1
