@<TRIPOS>MOLECULE
32916_ChemDiv_6527-0167
 25 29 0 0 0
SMALL
GASTEIGER
Energy = 0

@<TRIPOS>ATOM
      1 N           0.2580    1.1580    0.0000 N.ar    1  LIG1       -0.1944
      2 N          -1.0290    1.1580    0.0000 N.ar    1  LIG1       -0.1625
      3 C          -1.2460    0.1880    0.0000 C.ar    1  LIG1        0.1030
      4 C          -0.3880   -0.3040    0.0000 C.ar    1  LIG1        0.0402
      5 C           0.4670    0.1880    0.0000 C.ar    1  LIG1        0.0875
      6 C           1.3290   -0.3040    0.0000 C.ar    1  LIG1        0.0193
      7 C           1.3290   -1.2960    0.0000 C.ar    1  LIG1        0.0016
      8 C           0.4670   -1.7880    0.0000 C.ar    1  LIG1        0.0033
      9 C          -0.3880   -1.2960    0.0000 C.ar    1  LIG1        0.0419
     10 C          -1.2460   -1.7880    0.0000 C.ar    1  LIG1        0.1957
     11 C          -2.1000   -1.2960    0.0000 C.ar    1  LIG1        0.0405
     12 C          -2.1000   -0.3040    0.0000 C.ar    1  LIG1        0.0225
     13 C          -2.9580    0.1880    0.0000 C.ar    1  LIG1        0.0017
     14 C          -3.8210   -0.3040    0.0000 C.ar    1  LIG1        0.0001
     15 C          -3.8210   -1.2960    0.0000 C.ar    1  LIG1        0.0001
     16 C          -2.9580   -1.7880    0.0000 C.ar    1  LIG1        0.0032
     17 O          -1.2460   -2.7790    0.0000 O.2     1  LIG1       -0.2866
     18 C           0.9960    1.8210    0.0000 C.2     1  LIG1        0.2818
     19 C           1.9250    1.5210    0.0000 C.ar    1  LIG1        0.0770
     20 C           2.6580    2.1790    0.0000 C.ar    1  LIG1        0.1036
     21 N           3.6000    1.8790    0.0000 N.ar    1  LIG1       -0.2422
     22 C           3.8170    0.9080    0.0000 C.ar    1  LIG1        0.0989
     23 C           3.0750    0.2460    0.0000 C.ar    1  LIG1        0.0208
     24 C           2.1330    0.5500    0.0000 C.ar    1  LIG1        0.0080
     25 O           0.7830    2.7830    0.0000 O.2     1  LIG1       -0.2651
@<TRIPOS>BOND
     1     1     2   ar
     2     1     5   ar
     3     1    18   am
     4     2     3   ar
     5     3     4   ar
     6     3    12   ar
     7     4     5   ar
     8     4     9   ar
     9     5     6   ar
    10     6     7   ar
    11     7     8   ar
    12     8     9   ar
    13     9    10   ar
    14    10    11   ar
    15    10    17    2
    16    11    12   ar
    17    11    16   ar
    18    12    13   ar
    19    13    14   ar
    20    14    15   ar
    21    15    16   ar
    22    18    19    1
    23    18    25    2
    24    19    20   ar
    25    19    24   ar
    26    20    21   ar
    27    21    22   ar
    28    22    23   ar
    29    23    24   ar
