@<TRIPOS>MOLECULE
32913_ChemDiv_G240-0445
 27 30 0 0 0
SMALL
GASTEIGER
Energy = 0

@<TRIPOS>ATOM
      1 S           2.3080   -0.3040    0.0000 S.O2    1  LIG1        0.0769
      2 C           1.3080   -0.3040    0.0000 C.ar    1  LIG1        0.1268
      3 C           0.8080    0.5670    0.0000 C.ar    1  LIG1        0.0600
      4 C          -0.1920    0.5670    0.0000 C.ar    1  LIG1        0.1738
      5 C          -0.6920   -0.3040    0.0000 C.ar    1  LIG1        0.1730
      6 O          -1.6920   -0.3040    0.0000 O.3     1  LIG1       -0.4630
      7 C          -2.1920    0.5670    0.0000 C.3     1  LIG1        0.2845
      8 C          -3.1880    0.5670    0.0000 C.2     1  LIG1        0.2698
      9 N          -3.6920   -0.3040    0.0000 N.am    1  LIG1       -0.2765
     10 C          -4.6960   -0.3040    0.0000 C.3     1  LIG1        0.0935
     11 C          -5.1960   -1.1670    0.0000 C.3     1  LIG1        0.0216
     12 C          -4.6960   -2.0380    0.0000 C.3     1  LIG1        0.0035
     13 C          -3.6880   -2.0380    0.0000 C.3     1  LIG1        0.0216
     14 C          -3.1880   -1.1670    0.0000 C.3     1  LIG1        0.0935
     15 O          -3.6920    1.4290    0.0000 O.2     1  LIG1       -0.2708
     16 C          -1.6920    1.4290    0.0000 C.3     1  LIG1        0.2583
     17 O          -0.6920    1.4290    0.0000 O.3     1  LIG1       -0.4679
     18 C          -0.1920   -1.1670    0.0000 C.ar    1  LIG1        0.0414
     19 C           0.8080   -1.1670    0.0000 C.ar    1  LIG1        0.0233
     20 N           3.3040   -0.3040    0.0000 N.3     1  LIG1       -0.0793
     21 C           3.8040    0.5670    0.0000 C.3     1  LIG1        0.0977
     22 C           4.7880    0.4540    0.0000 C.3     1  LIG1        0.0193
     23 C           5.1920    1.3670    0.0000 C.3     1  LIG1        0.0015
     24 C           4.4540    2.0420    0.0000 C.3     1  LIG1        0.0015
     25 C           3.5920    1.5420    0.0000 C.3     1  LIG1        0.0193
     26 O           2.3080    0.6920    0.0000 O.2     1  LIG1       -0.1516
     27 O           2.3080   -1.3040    0.0000 O.2     1  LIG1       -0.1516
@<TRIPOS>BOND
     1     1     2    1
     2     1    20    1
     3     1    26    2
     4     1    27    2
     5     2     3   ar
     6     2    19   ar
     7     3     4   ar
     8     4     5   ar
     9     4    17    1
    10     5     6    1
    11     5    18   ar
    12     6     7    1
    13     7     8    1
    14     7    16    1
    15     8     9   am
    16     8    15    2
    17     9    10    1
    18     9    14    1
    19    10    11    1
    20    11    12    1
    21    12    13    1
    22    13    14    1
    23    16    17    1
    24    18    19   ar
    25    20    21    1
    26    21    22    1
    27    21    25    1
    28    22    23    1
    29    23    24    1
    30    24    25    1
