@<TRIPOS>MOLECULE
32914_ChemDiv_6527-0159
 23 26 0 0 0
SMALL
GASTEIGER
Energy = 0

@<TRIPOS>ATOM
      1 N           0.6250    1.1580    0.0000 N.ar    1  LIG1       -0.1979
      2 N          -0.6630    1.1580    0.0000 N.ar    1  LIG1       -0.1628
      3 C          -0.8710    0.1920    0.0000 C.ar    1  LIG1        0.1030
      4 C          -0.0170   -0.3080    0.0000 C.ar    1  LIG1        0.0402
      5 C           0.8380    0.1920    0.0000 C.ar    1  LIG1        0.0872
      6 C           1.6960   -0.3040    0.0000 C.ar    1  LIG1        0.0193
      7 C           1.6960   -1.2920    0.0000 C.ar    1  LIG1        0.0016
      8 C           0.8380   -1.7880    0.0000 C.ar    1  LIG1        0.0033
      9 C          -0.0170   -1.2920    0.0000 C.ar    1  LIG1        0.0419
     10 C          -0.8670   -1.7880    0.0000 C.ar    1  LIG1        0.1957
     11 C          -1.7290   -1.2920    0.0000 C.ar    1  LIG1        0.0405
     12 C          -1.7290   -0.3040    0.0000 C.ar    1  LIG1        0.0225
     13 C          -2.5830    0.1920    0.0000 C.ar    1  LIG1        0.0017
     14 C          -3.4420   -0.3040    0.0000 C.ar    1  LIG1        0.0001
     15 C          -3.4420   -1.2920    0.0000 C.ar    1  LIG1        0.0001
     16 C          -2.5830   -1.7880    0.0000 C.ar    1  LIG1        0.0032
     17 O          -0.8710   -2.7790    0.0000 O.2     1  LIG1       -0.2866
     18 C           1.3540    1.8170    0.0000 C.2     1  LIG1        0.2568
     19 C           2.2920    1.5170    0.0000 C.3     1  LIG1        0.0900
     20 C           2.5040    0.5500    0.0000 C.3     1  LIG1        0.0094
     21 C           3.4380    0.2460    0.0000 C.3     1  LIG1        0.0005
     22 C           1.7710   -0.1130    0.0000 C.3     1  LIG1        0.0005
     23 O           1.1460    2.7830    0.0000 O.2     1  LIG1       -0.2702
@<TRIPOS>BOND
     1     1     2   ar
     2     1     5   ar
     3     1    18   am
     4     2     3   ar
     5     3     4   ar
     6     3    12   ar
     7     4     5   ar
     8     4     9   ar
     9     5     6   ar
    10     6     7   ar
    11     7     8   ar
    12     8     9   ar
    13     9    10   ar
    14    10    11   ar
    15    10    17    2
    16    11    12   ar
    17    11    16   ar
    18    12    13   ar
    19    13    14   ar
    20    14    15   ar
    21    15    16   ar
    22    18    19    1
    23    18    23    2
    24    19    20    1
    25    20    21    1
    26    20    22    1
