@<TRIPOS>MOLECULE
32910_ChemDiv_6740-0022
 16 19 0 0 0
SMALL
GASTEIGER
Energy = 0

@<TRIPOS>ATOM
      1 C          -0.6040    0.1000    0.0000 C.3     1  LIG1        0.0280
      2 C           0.2540   -0.4000    0.0000 C.3     1  LIG1        0.1427
      3 N           1.1630    0.0040    0.0000 N.am    1  LIG1       -0.1953
      4 C           1.8330   -0.7330    0.0000 C.2     1  LIG1        0.2531
      5 C           1.3330   -1.6000    0.0000 C.3     1  LIG1        0.1457
      6 S           0.3580   -1.3880    0.0000 S.3     1  LIG1       -0.1097
      7 O           2.8250   -0.6330    0.0000 O.2     1  LIG1       -0.2724
      8 C          -1.4630   -0.3920    0.0000 C.3     1  LIG1        0.0025
      9 C          -2.3250    0.1000    0.0000 C.3     1  LIG1        0.0001
     10 C          -2.8290   -0.7580    0.0000 C.3     1  LIG1        0.0000
     11 C          -2.0790   -0.4960    0.0000 C.3     1  LIG1        0.0001
     12 C          -1.1130   -0.7580    0.0000 C.3     1  LIG1        0.0025
     13 C          -2.0830    0.5000    0.0000 C.3     1  LIG1        0.0000
     14 C          -1.4630    1.6040    0.0000 C.3     1  LIG1        0.0001
     15 C          -0.6040    1.1000    0.0000 C.3     1  LIG1        0.0025
     16 C          -2.3250    1.1000    0.0000 C.3     1  LIG1        0.0000
@<TRIPOS>BOND
     1     1     2    1
     2     1     8    1
     3     1    12    1
     4     1    15    1
     5     2     3    1
     6     2     6    1
     7     3     4   am
     8     4     5    1
     9     4     7    2
    10     5     6    1
    11     8     9    1
    12     9    10    1
    13     9    16    1
    14    10    11    1
    15    11    12    1
    16    11    13    1
    17    13    14    1
    18    14    15    1
    19    14    16    1
