@<TRIPOS>MOLECULE
32923_ChemDiv_G240-0480
 31 34 0 0 0
SMALL
GASTEIGER
Energy = 0

@<TRIPOS>ATOM
      1 S           0.7500    0.4830    0.0000 S.O2    1  LIG1        0.0769
      2 C          -0.2540    0.4830    0.0000 C.ar    1  LIG1        0.1268
      3 C          -0.7630    1.3460    0.0000 C.ar    1  LIG1        0.0600
      4 C          -1.7540    1.3460    0.0000 C.ar    1  LIG1        0.1738
      5 C          -2.2540    0.4830    0.0000 C.ar    1  LIG1        0.1730
      6 O          -3.2630    0.4830    0.0000 O.3     1  LIG1       -0.4630
      7 C          -3.7540    1.3460    0.0000 C.3     1  LIG1        0.2845
      8 C          -4.7580    1.3460    0.0000 C.2     1  LIG1        0.2698
      9 N          -5.2580    0.4830    0.0000 N.am    1  LIG1       -0.2765
     10 C          -4.7580   -0.3830    0.0000 C.3     1  LIG1        0.0935
     11 C          -5.2580   -1.2460    0.0000 C.3     1  LIG1        0.0216
     12 C          -6.2460   -1.2460    0.0000 C.3     1  LIG1        0.0035
     13 C          -6.7460   -0.3830    0.0000 C.3     1  LIG1        0.0216
     14 C          -6.2460    0.4830    0.0000 C.3     1  LIG1        0.0935
     15 O          -5.2580    2.2130    0.0000 O.2     1  LIG1       -0.2708
     16 C          -3.2630    2.2130    0.0000 C.3     1  LIG1        0.2583
     17 O          -2.2540    2.2130    0.0000 O.3     1  LIG1       -0.4679
     18 C          -1.7540   -0.3830    0.0000 C.ar    1  LIG1        0.0414
     19 C          -0.7630   -0.3830    0.0000 C.ar    1  LIG1        0.0233
     20 O           0.7500   -0.5210    0.0000 O.2     1  LIG1       -0.1516
     21 O           0.7500    1.4830    0.0000 O.2     1  LIG1       -0.1516
     22 N           1.7420    0.4830    0.0000 N.3     1  LIG1       -0.0778
     23 C           2.2420   -0.3830    0.0000 C.3     1  LIG1        0.1158
     24 C           3.2540   -0.4290    0.0000 C.3     1  LIG1        0.0255
     25 C           3.7290   -1.2920    0.0000 C.3     1  LIG1        0.0279
     26 C           4.7290   -1.3080    0.0000 C.ar    1  LIG1       -0.0221
     27 C           5.2170   -2.1920    0.0000 C.ar    1  LIG1       -0.0043
     28 C           6.2290   -2.2080    0.0000 C.ar    1  LIG1       -0.0003
     29 C           6.7460   -1.3580    0.0000 C.ar    1  LIG1       -0.0000
     30 C           6.2580   -0.4790    0.0000 C.ar    1  LIG1       -0.0003
     31 C           5.2460   -0.4580    0.0000 C.ar    1  LIG1       -0.0043
@<TRIPOS>BOND
     1     1     2    1
     2     1    20    2
     3     1    21    2
     4     1    22    1
     5     2     3   ar
     6     2    19   ar
     7     3     4   ar
     8     4     5   ar
     9     4    17    1
    10     5     6    1
    11     5    18   ar
    12     6     7    1
    13     7     8    1
    14     7    16    1
    15     8     9   am
    16     8    15    2
    17     9    10    1
    18     9    14    1
    19    10    11    1
    20    11    12    1
    21    12    13    1
    22    13    14    1
    23    16    17    1
    24    18    19   ar
    25    22    23    1
    26    23    24    1
    27    24    25    1
    28    25    26    1
    29    26    27   ar
    30    26    31   ar
    31    27    28   ar
    32    28    29   ar
    33    29    30   ar
    34    30    31   ar
