@<TRIPOS>MOLECULE
32922_ChemDiv_8011-1369
 22 25 0 0 0
SMALL
GASTEIGER
Energy = 0

@<TRIPOS>ATOM
      1 C          -1.3080    0.7210    0.0000 C.ar    1  LIG1        0.1025
      2 N          -1.3080    1.6790    0.0000 N.ar    1  LIG1       -0.1688
      3 N           0.3830    1.6790    0.0000 N.ar    1  LIG1       -0.2394
      4 C           0.3830    0.7210    0.0000 C.ar    1  LIG1        0.0801
      5 C          -0.4670    0.2500    0.0000 C.ar    1  LIG1        0.0397
      6 C          -0.4670   -0.7210    0.0000 C.ar    1  LIG1        0.0419
      7 C          -1.3080   -1.1960    0.0000 C.ar    1  LIG1        0.1957
      8 C          -2.1500   -0.7210    0.0000 C.ar    1  LIG1        0.0405
      9 C          -2.1500    0.2500    0.0000 C.ar    1  LIG1        0.0225
     10 C          -2.9920    0.7210    0.0000 C.ar    1  LIG1        0.0017
     11 C          -3.8330    0.2500    0.0000 C.ar    1  LIG1        0.0001
     12 C          -3.8330   -0.7210    0.0000 C.ar    1  LIG1        0.0001
     13 C          -2.9920   -1.1960    0.0000 C.ar    1  LIG1        0.0032
     14 O          -1.3080   -2.1580    0.0000 O.2     1  LIG1       -0.2866
     15 C           0.3830   -1.1960    0.0000 C.ar    1  LIG1        0.0033
     16 C           1.2250   -0.7210    0.0000 C.ar    1  LIG1        0.0016
     17 C           1.2250    0.2500    0.0000 C.ar    1  LIG1        0.0188
     18 C           1.2420    2.1630    0.0000 C.3     1  LIG1        0.2362
     19 C           2.1080    1.6580    0.0000 C.2     1  LIG1        0.3423
     20 O           2.1080    0.6670    0.0000 O.2     1  LIG1       -0.2479
     21 O           2.9710    2.1420    0.0000 O.3     1  LIG1       -0.4430
     22 C           3.8290    1.6460    0.0000 C.3     1  LIG1        0.2557
@<TRIPOS>BOND
     1     1     2   ar
     2     1     5   ar
     3     1     9   ar
     4     2     3   ar
     5     3     4   ar
     6     3    18    1
     7     4     5   ar
     8     4    17   ar
     9     5     6   ar
    10     6     7   ar
    11     6    15   ar
    12     7     8   ar
    13     7    14    2
    14     8     9   ar
    15     8    13   ar
    16     9    10   ar
    17    10    11   ar
    18    11    12   ar
    19    12    13   ar
    20    15    16   ar
    21    16    17   ar
    22    18    19    1
    23    19    20    2
    24    19    21    1
    25    21    22    1
