@<TRIPOS>MOLECULE
32921_ChemDiv_G240-0475
 30 33 0 0 0
SMALL
GASTEIGER
Energy = 0

@<TRIPOS>ATOM
      1 S           0.9670    0.0170    0.0000 S.O2    1  LIG1        0.0772
      2 C          -0.0380    0.0170    0.0000 C.ar    1  LIG1        0.1268
      3 C          -0.5380    0.8880    0.0000 C.ar    1  LIG1        0.0600
      4 C          -1.5380    0.8880    0.0000 C.ar    1  LIG1        0.1738
      5 C          -2.0380    0.0170    0.0000 C.ar    1  LIG1        0.1730
      6 O          -3.0290    0.0170    0.0000 O.3     1  LIG1       -0.4630
      7 C          -3.5290    0.8880    0.0000 C.3     1  LIG1        0.2845
      8 C          -4.5250    0.8880    0.0000 C.2     1  LIG1        0.2698
      9 N          -5.0250    0.0170    0.0000 N.am    1  LIG1       -0.2765
     10 C          -6.0170    0.0170    0.0000 C.3     1  LIG1        0.0935
     11 C          -6.5130   -0.8460    0.0000 C.3     1  LIG1        0.0216
     12 C          -6.0170   -1.7080    0.0000 C.3     1  LIG1        0.0035
     13 C          -5.0250   -1.7080    0.0000 C.3     1  LIG1        0.0216
     14 C          -4.5250   -0.8460    0.0000 C.3     1  LIG1        0.0935
     15 O          -5.0250    1.7500    0.0000 O.2     1  LIG1       -0.2708
     16 C          -3.0290    1.7500    0.0000 C.3     1  LIG1        0.2583
     17 O          -2.0380    1.7500    0.0000 O.3     1  LIG1       -0.4679
     18 C          -1.5380   -0.8460    0.0000 C.ar    1  LIG1        0.0414
     19 C          -0.5380   -0.8460    0.0000 C.ar    1  LIG1        0.0233
     20 N           1.9630    0.0170    0.0000 N.3     1  LIG1       -0.0729
     21 C           2.4630   -0.8460    0.0000 C.3     1  LIG1        0.1418
     22 C           3.4790   -0.8460    0.0000 C.ar    1  LIG1       -0.0029
     23 C           3.9920    0.0080    0.0000 C.ar    1  LIG1       -0.0031
     24 C           4.9880   -0.0080    0.0000 C.ar    1  LIG1       -0.0045
     25 C           5.4790   -0.8960    0.0000 C.ar    1  LIG1       -0.0219
     26 C           4.9670   -1.7460    0.0000 C.ar    1  LIG1       -0.0045
     27 C           3.9630   -1.7290    0.0000 C.ar    1  LIG1       -0.0031
     28 C           6.5130   -0.8960    0.0000 C.3     1  LIG1        0.0310
     29 O           0.9670    1.0210    0.0000 O.2     1  LIG1       -0.1516
     30 O           0.9670   -0.9790    0.0000 O.2     1  LIG1       -0.1516
@<TRIPOS>BOND
     1     1     2    1
     2     1    20    1
     3     1    29    2
     4     1    30    2
     5     2     3   ar
     6     2    19   ar
     7     3     4   ar
     8     4     5   ar
     9     4    17    1
    10     5     6    1
    11     5    18   ar
    12     6     7    1
    13     7     8    1
    14     7    16    1
    15     8     9   am
    16     8    15    2
    17     9    10    1
    18     9    14    1
    19    10    11    1
    20    11    12    1
    21    12    13    1
    22    13    14    1
    23    16    17    1
    24    18    19   ar
    25    20    21    1
    26    21    22    1
    27    22    23   ar
    28    22    27   ar
    29    23    24   ar
    30    24    25   ar
    31    25    26   ar
    32    25    28    1
    33    26    27   ar
