@<TRIPOS>MOLECULE
32933_ChemDiv_6264-0016
 12 13 0 0 0
SMALL
GASTEIGER
Energy = 0

@<TRIPOS>ATOM
      1 N          -1.3000   -1.7460    0.0000 N.4     1  LIG1        0.4525
      2 C          -0.4330   -1.2460    0.0000 C.3     1  LIG1        0.2351
      3 C          -0.4330   -0.2460    0.0000 C.3     1  LIG1        0.2001
      4 O          -1.3000    0.2580    0.0000 O.3     1  LIG1       -0.3390
      5 C          -2.1670   -0.2460    0.0000 C.3     1  LIG1        0.2113
      6 C          -2.1670   -1.2460    0.0000 C.3     1  LIG1        0.2333
      7 C           0.4290    0.2500    0.0000 C.ar    1  LIG1        0.0106
      8 C           1.2960   -0.2460    0.0000 C.ar    1  LIG1       -0.0017
      9 C           2.1630    0.2500    0.0000 C.ar    1  LIG1       -0.0002
     10 C           2.1630    1.2500    0.0000 C.ar    1  LIG1       -0.0000
     11 C           1.2960    1.7500    0.0000 C.ar    1  LIG1       -0.0002
     12 C           0.4290    1.2500    0.0000 C.ar    1  LIG1       -0.0017
@<TRIPOS>BOND
     1     1     2    1
     2     1     6    1
     3     2     3    1
     4     3     4    1
     5     3     7    1
     6     4     5    1
     7     5     6    1
     8     7     8   ar
     9     7    12   ar
    10     8     9   ar
    11     9    10   ar
    12    10    11   ar
    13    11    12   ar
