@<TRIPOS>MOLECULE
32934_ChemDiv_6783-0280
 23 24 0 0 0
SMALL
GASTEIGER
Energy = 0

@<TRIPOS>ATOM
      1 N           1.6710   -1.5750    0.0000 N.ar    1  LIG1       -0.1286
      2 N           1.6790   -2.5790    0.0000 N.ar    1  LIG1       -0.2118
      3 C           0.8080   -3.0830    0.0000 C.ar    1  LIG1        0.2767
      4 C          -0.0500   -2.5830    0.0000 C.ar    1  LIG1        0.0670
      5 C          -0.0630   -1.5830    0.0000 C.ar    1  LIG1        0.0645
      6 C           0.8080   -1.0880    0.0000 C.ar    1  LIG1        0.2482
      7 O           0.8040   -0.0920    0.0000 O.3     1  LIG1       -0.4172
      8 C          -0.0630    0.4000    0.0000 C.ar    1  LIG1        0.2346
      9 N          -0.0750    1.4000    0.0000 N.ar    1  LIG1       -0.1862
     10 C          -0.9420    1.8920    0.0000 C.ar    1  LIG1        0.1929
     11 N          -1.8080    1.3960    0.0000 N.ar    1  LIG1       -0.2254
     12 C          -1.8080    0.3920    0.0000 C.ar    1  LIG1        0.0662
     13 C          -0.9380   -0.1040    0.0000 C.ar    1  LIG1        0.0729
     14 C          -2.6710   -0.1040    0.0000 C.3     1  LIG1        0.0523
     15 S          -0.9460    2.8960    0.0000 S.3     1  LIG1       -0.0637
     16 C          -0.2380    3.6130    0.0000 C.3     1  LIG1        0.1743
     17 C           0.7330    3.3630    0.0000 C.2     1  LIG1        0.3286
     18 O           1.4330    4.0790    0.0000 O.2     1  LIG1       -0.2491
     19 O           0.9960    2.3960    0.0000 O.3     1  LIG1       -0.4479
     20 C           1.9540    2.6580    0.0000 C.3     1  LIG1        0.2086
     21 C           2.6670    1.9540    0.0000 C.3     1  LIG1        0.0513
     22 O           0.8170   -4.0790    0.0000 O.2     1  LIG1       -0.2655
     23 C           2.5420   -3.0710    0.0000 C.3     1  LIG1        0.1572
@<TRIPOS>BOND
     1     1     2   ar
     2     1     6   ar
     3     2     3   ar
     4     2    23    1
     5     3     4   ar
     6     3    22    2
     7     4     5   ar
     8     5     6   ar
     9     6     7    1
    10     7     8    1
    11     8     9   ar
    12     8    13   ar
    13     9    10   ar
    14    10    11   ar
    15    10    15    1
    16    11    12   ar
    17    12    13   ar
    18    12    14    1
    19    15    16    1
    20    16    17    1
    21    17    18    2
    22    17    19    1
    23    19    20    1
    24    20    21    1
