@<TRIPOS>MOLECULE
32930_ChemDiv_8017-5513
 13 14 0 0 0
SMALL
GASTEIGER
Energy = 0

@<TRIPOS>ATOM
      1 C           0.1670    0.7830    0.0000 C.ar    1  LIG1        0.0495
      2 C           0.1670   -0.1710    0.0000 C.ar    1  LIG1        0.1297
      3 N          -0.6500   -0.6460    0.0000 N.ar    1  LIG1       -0.2420
      4 C          -1.4750   -0.1710    0.0000 C.ar    1  LIG1        0.0556
      5 C          -1.4750    0.7830    0.0000 C.ar    1  LIG1       -0.0082
      6 C          -0.6500    1.2580    0.0000 C.ar    1  LIG1        0.0010
      7 C          -2.2960    1.2580    0.0000 C.3     1  LIG1        0.0323
      8 C          -2.2960   -0.6460    0.0000 C.3     1  LIG1        0.0455
      9 C          -2.2960   -1.5960    0.0000 C.3     1  LIG1        0.0067
     10 S           0.9920   -0.6460    0.0000 S.2     1  LIG1        0.0329
     11 N           1.8170   -0.1710    0.0000 N.ar    1  LIG1       -0.2009
     12 C           1.8170    0.7830    0.0000 C.ar    1  LIG1        0.1251
     13 BR          2.2920    1.6000    0.0000 Br      1  LIG1       -0.0273
@<TRIPOS>BOND
     1     1     2   ar
     2     1     6   ar
     3     1    12   ar
     4     2     3   ar
     5     2    10   ar
     6     3     4   ar
     7     4     5   ar
     8     4     8    1
     9     5     6   ar
    10     5     7    1
    11     8     9    1
    12    10    11   ar
    13    11    12   ar
    14    12    13    1
