@<TRIPOS>MOLECULE
32936_ChemDiv_6791-0021
 28 31 0 0 0
SMALL
GASTEIGER
Energy = 0

@<TRIPOS>ATOM
      1 S          -1.4880    0.1790    0.0000 S.O2    1  LIG1        0.0823
      2 N          -0.7290    0.8250    0.0000 N.am    1  LIG1       -0.1376
      3 C           0.2290    0.4920    0.0000 C.ar    1  LIG1        0.0771
      4 C           0.9960    1.1380    0.0000 C.ar    1  LIG1        0.0264
      5 C           1.9290    0.7920    0.0000 C.ar    1  LIG1        0.0713
      6 C           2.1000   -0.1920    0.0000 C.ar    1  LIG1        0.1553
      7 O           3.0880   -0.3380    0.0000 O.2     1  LIG1       -0.4159
      8 C           3.5290    0.5500    0.0000 C.ar    1  LIG1        0.3786
      9 S           2.8130    1.2580    0.0000 S.2     1  LIG1       -0.0033
     10 O           4.5250    0.6960    0.0000 O.2     1  LIG1       -0.2366
     11 C           1.3420   -0.8290    0.0000 C.ar    1  LIG1        0.0364
     12 C           0.4040   -0.4880    0.0000 C.ar    1  LIG1        0.0184
     13 C          -0.3670   -1.1290    0.0000 C.ar    1  LIG1        0.0014
     14 C          -0.1920   -2.1170    0.0000 C.ar    1  LIG1        0.0000
     15 C           0.7580   -2.4580    0.0000 C.ar    1  LIG1        0.0001
     16 C           1.5210   -1.8130    0.0000 C.ar    1  LIG1        0.0031
     17 C          -0.9170    1.8170    0.0000 C.2     1  LIG1        0.2485
     18 O          -0.1580    2.4630    0.0000 O.2     1  LIG1       -0.2729
     19 C          -1.8540    2.1540    0.0000 C.3     1  LIG1        0.0968
     20 C          -2.2500   -0.4710    0.0000 C.ar    1  LIG1        0.1258
     21 C          -2.0670   -1.4540    0.0000 C.ar    1  LIG1        0.0199
     22 C          -2.8250   -2.1000    0.0000 C.ar    1  LIG1       -0.0029
     23 C          -3.7670   -1.7670    0.0000 C.ar    1  LIG1       -0.0218
     24 C          -3.9500   -0.7830    0.0000 C.ar    1  LIG1       -0.0029
     25 C          -3.1920   -0.1380    0.0000 C.ar    1  LIG1        0.0199
     26 C          -4.5290   -2.4170    0.0000 C.3     1  LIG1        0.0310
     27 O          -2.1380    0.9460    0.0000 O.2     1  LIG1       -0.1493
     28 O          -0.8330   -0.5830    0.0000 O.2     1  LIG1       -0.1493
@<TRIPOS>BOND
     1     1     2    1
     2     1    20    1
     3     1    27    2
     4     1    28    2
     5     2     3    1
     6     2    17   am
     7     3     4   ar
     8     3    12   ar
     9     4     5   ar
    10     5     6   ar
    11     5     9   ar
    12     6     7   ar
    13     6    11   ar
    14     7     8   ar
    15     8     9   ar
    16     8    10    2
    17    11    12   ar
    18    11    16   ar
    19    12    13   ar
    20    13    14   ar
    21    14    15   ar
    22    15    16   ar
    23    17    18    2
    24    17    19    1
    25    20    21   ar
    26    20    25   ar
    27    21    22   ar
    28    22    23   ar
    29    23    24   ar
    30    23    26    1
    31    24    25   ar
