@<TRIPOS>MOLECULE
32937_ChemDiv_6264-0407
 22 23 0 0 0
SMALL
GASTEIGER
Energy = 0

@<TRIPOS>ATOM
      1 C          -1.3000    0.2750    0.0000 C.3     1  LIG1        0.2332
      2 C          -0.4330    0.7710    0.0000 C.2     1  LIG1        0.3489
      3 O          -0.4330    1.7710    0.0000 O.2     1  LIG1       -0.2470
      4 O           0.4290    0.2750    0.0000 O.3     1  LIG1       -0.4401
      5 C           1.2960    0.7710    0.0000 C.3     1  LIG1        0.2689
      6 C           2.1580    0.2750    0.0000 C.3     1  LIG1        0.1575
      7 N           3.0250    0.7710    0.0000 N.4     1  LIG1        0.3135
      8 C           3.8880    0.2750    0.0000 C.3     1  LIG1        0.1711
      9 C           3.0250    1.7710    0.0000 C.3     1  LIG1        0.1711
     10 C           2.1580    1.2710    0.0000 C.3     1  LIG1        0.1711
     11 C          -2.1630    0.7710    0.0000 C.ar    1  LIG1        0.0153
     12 C          -2.1630    1.7710    0.0000 C.ar    1  LIG1       -0.0014
     13 C          -3.0290    2.2710    0.0000 C.ar    1  LIG1       -0.0002
     14 C          -3.8920    1.7710    0.0000 C.ar    1  LIG1       -0.0000
     15 C          -3.8920    0.7710    0.0000 C.ar    1  LIG1       -0.0002
     16 C          -3.0290    0.2750    0.0000 C.ar    1  LIG1       -0.0014
     17 C          -1.3000   -0.7250    0.0000 C.3     1  LIG1        0.0425
     18 C          -2.1040   -1.3040    0.0000 C.3     1  LIG1        0.0033
     19 C          -1.8000   -2.2670    0.0000 C.3     1  LIG1        0.0001
     20 C          -0.8000   -2.2540    0.0000 C.3     1  LIG1        0.0001
     21 C          -0.4920   -1.3040    0.0000 C.3     1  LIG1        0.0033
     22 O          -2.2130   -0.2250    0.0000 O.3     1  LIG1       -0.2097
@<TRIPOS>BOND
     1     1     2    1
     2     1    11    1
     3     1    17    1
     4     1    22    1
     5     2     3    2
     6     2     4    1
     7     4     5    1
     8     5     6    1
     9     6     7    1
    10     7     8    1
    11     7     9    1
    12     7    10    1
    13    11    12   ar
    14    11    16   ar
    15    12    13   ar
    16    13    14   ar
    17    14    15   ar
    18    15    16   ar
    19    17    18    1
    20    17    21    1
    21    18    19    1
    22    19    20    1
    23    20    21    1
