@<TRIPOS>MOLECULE
32943_ChemDiv_6280-1563
 22 23 0 0 0
SMALL
GASTEIGER
Energy = 0

@<TRIPOS>ATOM
      1 C           0.5630   -1.2330    0.0000 C.ar    1  LIG1        0.2205
      2 O          -0.0380   -2.0290    0.0000 O.2     1  LIG1       -0.4469
      3 C          -0.9710   -1.7330    0.0000 C.ar    1  LIG1        0.1456
      4 C          -0.9710   -0.7290    0.0000 C.ar    1  LIG1        0.0375
      5 C          -0.0380   -0.3960    0.0000 C.ar    1  LIG1        0.0472
      6 C          -1.8380   -0.2290    0.0000 C.ar    1  LIG1       -0.0011
      7 C          -2.7040   -0.7290    0.0000 C.ar    1  LIG1       -0.0217
      8 C          -2.7040   -1.7330    0.0000 C.ar    1  LIG1       -0.0011
      9 C          -1.8380   -2.2330    0.0000 C.ar    1  LIG1        0.0372
     10 C          -3.5710   -0.2290    0.0000 C.3     1  LIG1        0.0310
     11 C           1.5630   -1.2330    0.0000 C.2     1  LIG1        0.3766
     12 O           2.0630   -0.3630    0.0000 O.3     1  LIG1       -0.4345
     13 C           1.5630    0.5080    0.0000 C.3     1  LIG1        0.2813
     14 C           2.0630    1.3630    0.0000 C.3     1  LIG1        0.1897
     15 N           3.0670    1.3630    0.0000 N.4     1  LIG1        0.3898
     16 C           3.5670    2.2380    0.0000 C.3     1  LIG1        0.2027
     17 C           3.5670    0.5080    0.0000 C.3     1  LIG1        0.2027
     18 C           0.5630    0.5080    0.0000 C.3     1  LIG1        0.1897
     19 N           0.0630    1.3630    0.0000 N.4     1  LIG1        0.3898
     20 C          -0.9380    1.3630    0.0000 C.3     1  LIG1        0.2027
     21 C           0.5630    2.2380    0.0000 C.3     1  LIG1        0.2027
     22 O           2.0630   -2.1000    0.0000 O.2     1  LIG1       -0.2414
@<TRIPOS>BOND
     1     1     2   ar
     2     1     5   ar
     3     1    11    1
     4     2     3   ar
     5     3     4   ar
     6     3     9   ar
     7     4     5   ar
     8     4     6   ar
     9     6     7   ar
    10     7     8   ar
    11     7    10    1
    12     8     9   ar
    13    11    12    1
    14    11    22    2
    15    12    13    1
    16    13    14    1
    17    13    18    1
    18    14    15    1
    19    15    16    1
    20    15    17    1
    21    18    19    1
    22    19    20    1
    23    19    21    1
