@<TRIPOS>MOLECULE
32944_ChemDiv_6809-0136
 22 24 0 0 0
SMALL
GASTEIGER
Energy = 0

@<TRIPOS>ATOM
      1 C          -0.4920    0.8710    0.0000 C.2     1  LIG1        0.4112
      2 N           0.4960    0.8710    0.0000 N.am    1  LIG1       -0.0029
      3 C           1.0040    0.0290    0.0000 C.2     1  LIG1        0.3226
      4 C           0.4960   -0.8380    0.0000 C.3     1  LIG1        0.1591
      5 C          -0.4920   -0.8380    0.0000 C.3     1  LIG1        0.2681
      6 N          -0.9790    0.0290    0.0000 N.2     1  LIG1       -0.0919
      7 C          -0.9790   -1.7750    0.0000 C.2     1  LIG1        0.2861
      8 N          -0.4920   -2.6380    0.0000 N.am    1  LIG1       -0.1763
      9 C           0.4960   -2.6380    0.0000 C.ar    1  LIG1        0.0735
     10 C           1.0040   -3.4920    0.0000 C.ar    1  LIG1        0.0166
     11 C           1.9880   -3.4920    0.0000 C.ar    1  LIG1        0.0013
     12 C           2.4880   -2.6380    0.0000 C.ar    1  LIG1        0.0001
     13 C           1.9880   -1.7750    0.0000 C.ar    1  LIG1        0.0013
     14 C           1.0040   -1.7750    0.0000 C.ar    1  LIG1        0.0166
     15 O          -1.9790   -1.7750    0.0000 O.2     1  LIG1       -0.2692
     16 O           2.0380    0.0290    0.0000 O.2     1  LIG1       -0.2533
     17 N          -0.9790    1.7290    0.0000 N.pl3   1  LIG1       -0.1903
     18 C          -0.4920    2.6170    0.0000 C.3     1  LIG1        0.1994
     19 C          -0.9790    3.4960    0.0000 C.3     1  LIG1        0.1826
     20 O          -1.9790    3.4960    0.0000 O.3     1  LIG1       -0.3468
     21 C          -2.4920    2.5920    0.0000 C.3     1  LIG1        0.1826
     22 C          -1.9920    1.7290    0.0000 C.3     1  LIG1        0.1994
@<TRIPOS>BOND
     1     1     2    1
     2     1     6    2
     3     1    17    1
     4     2     3   am
     5     3     4    1
     6     3    16    2
     7     4     5    1
     8     5     6    1
     9     5     7    1
    10     7     8   am
    11     7    15    2
    12     8     9    1
    13     9    10   ar
    14     9    14   ar
    15    10    11   ar
    16    11    12   ar
    17    12    13   ar
    18    13    14   ar
    19    17    18    1
    20    17    22    1
    21    18    19    1
    22    19    20    1
    23    20    21    1
    24    21    22    1
