@<TRIPOS>MOLECULE
32955_ChemDiv_6425-0037
 35 39 0 0 0
SMALL
GASTEIGER
Energy = 0

@<TRIPOS>ATOM
      1 C           4.7420    1.4670    0.0000 C.ar    1  LIG1        0.0703
      2 C           3.8880    1.9790    0.0000 C.ar    1  LIG1        0.2025
      3 C           3.0330    1.4670    0.0000 C.ar    1  LIG1        0.0924
      4 C           3.0330    0.4670    0.0000 C.ar    1  LIG1        0.1513
      5 N           2.1630   -0.0330    0.0000 N.ar    1  LIG1       -0.1961
      6 C           1.3080    0.4670    0.0000 C.ar    1  LIG1        0.2216
      7 N           0.4540   -0.0330    0.0000 N.pl3   1  LIG1       -0.2746
      8 C          -0.4170    0.5170    0.0000 C.3     1  LIG1        0.1152
      9 C          -1.2960    0.0130    0.0000 C.3     1  LIG1        0.1165
     10 N          -1.2960   -0.9920    0.0000 N.am    1  LIG1       -0.2591
     11 C          -2.2040   -1.4920    0.0000 C.2     1  LIG1        0.3276
     12 N          -3.0580   -0.9920    0.0000 N.am    1  LIG1       -0.1622
     13 C          -3.9040   -1.4540    0.0000 C.ar    1  LIG1        0.0749
     14 C          -4.7790   -0.9420    0.0000 C.ar    1  LIG1        0.0154
     15 C          -5.6380   -1.4290    0.0000 C.ar    1  LIG1        0.0013
     16 C          -5.6500   -2.4330    0.0000 C.ar    1  LIG1        0.0001
     17 C          -4.8040   -2.9670    0.0000 C.ar    1  LIG1        0.0013
     18 C          -3.9250   -2.4580    0.0000 C.ar    1  LIG1        0.0166
     19 C          -6.5000   -0.9250    0.0000 C.ar    1  LIG1        0.0000
     20 C          -6.4790    0.0630    0.0000 C.ar    1  LIG1        0.0000
     21 C          -5.6130    0.5540    0.0000 C.ar    1  LIG1        0.0000
     22 C          -4.7790    0.0630    0.0000 C.ar    1  LIG1        0.0013
     23 O          -2.2040   -2.4920    0.0000 O.2     1  LIG1       -0.2504
     24 C          -0.4540   -1.5290    0.0000 C.3     1  LIG1        0.1165
     25 C           0.4290   -1.0380    0.0000 C.3     1  LIG1        0.1152
     26 N           1.3080    1.4670    0.0000 N.ar    1  LIG1       -0.2119
     27 C           2.1630    1.9790    0.0000 C.ar    1  LIG1        0.1080
     28 N           3.8880   -0.0330    0.0000 N.ar    1  LIG1       -0.3112
     29 C           4.7420    0.4670    0.0000 C.ar    1  LIG1        0.0813
     30 C           3.9210   -1.0380    0.0000 C.3     1  LIG1        0.1076
     31 C           3.0750   -1.5290    0.0000 C.3     1  LIG1        0.0265
     32 O           3.9210    2.9710    0.0000 O.2     1  LIG1       -0.2863
     33 C           5.6500    1.9790    0.0000 C.2     1  LIG1        0.0774
     34 O           5.6500    2.9710    0.0000 O.co2   1  LIG1       -0.5444
     35 O           6.5000    1.4670    0.0000 O.co2   1  LIG1       -0.5444
@<TRIPOS>BOND
     1     1     2   ar
     2     1    29   ar
     3     1    33    1
     4     2     3   ar
     5     2    32    2
     6     3     4   ar
     7     3    27   ar
     8     4     5   ar
     9     4    28   ar
    10     5     6   ar
    11     6     7    1
    12     6    26   ar
    13     7     8    1
    14     7    25    1
    15     8     9    1
    16     9    10    1
    17    10    11   am
    18    10    24    1
    19    11    12   am
    20    11    23    2
    21    12    13    1
    22    13    14   ar
    23    13    18   ar
    24    14    15   ar
    25    14    22   ar
    26    15    16   ar
    27    15    19   ar
    28    16    17   ar
    29    17    18   ar
    30    19    20   ar
    31    20    21   ar
    32    21    22   ar
    33    24    25    1
    34    26    27   ar
    35    28    29   ar
    36    28    30    1
    37    30    31    1
    38    33    34   ar
    39    33    35   ar
