@<TRIPOS>MOLECULE
32951_ChemDiv_6425-0035
 31 34 0 0 0
SMALL
GASTEIGER
Energy = 0

@<TRIPOS>ATOM
      1 C           4.3080    1.4630    0.0000 C.ar    1  LIG1        0.0703
      2 C           3.4580    1.9750    0.0000 C.ar    1  LIG1        0.2025
      3 C           2.6040    1.4630    0.0000 C.ar    1  LIG1        0.0924
      4 C           2.6040    0.4670    0.0000 C.ar    1  LIG1        0.1513
      5 N           1.7330   -0.0330    0.0000 N.ar    1  LIG1       -0.1961
      6 C           0.8830    0.4670    0.0000 C.ar    1  LIG1        0.2216
      7 N           0.0290   -0.0330    0.0000 N.pl3   1  LIG1       -0.2746
      8 C          -0.8420    0.5170    0.0000 C.3     1  LIG1        0.1152
      9 C          -1.7210    0.0130    0.0000 C.3     1  LIG1        0.1165
     10 N          -1.7210   -0.9920    0.0000 N.am    1  LIG1       -0.2591
     11 C          -2.6290   -1.4920    0.0000 C.2     1  LIG1        0.3276
     12 N          -3.4830   -0.9920    0.0000 N.am    1  LIG1       -0.1622
     13 C          -4.3290   -1.4540    0.0000 C.ar    1  LIG1        0.0749
     14 C          -5.2000   -0.9420    0.0000 C.ar    1  LIG1        0.0166
     15 C          -6.0540   -1.4290    0.0000 C.ar    1  LIG1        0.0013
     16 C          -6.0670   -2.4330    0.0000 C.ar    1  LIG1        0.0001
     17 C          -5.2250   -2.9630    0.0000 C.ar    1  LIG1        0.0013
     18 C          -4.3460   -2.4580    0.0000 C.ar    1  LIG1        0.0166
     19 O          -2.6290   -2.4880    0.0000 O.2     1  LIG1       -0.2504
     20 C          -0.8790   -1.5290    0.0000 C.3     1  LIG1        0.1165
     21 C           0.0040   -1.0380    0.0000 C.3     1  LIG1        0.1152
     22 N           0.8830    1.4630    0.0000 N.ar    1  LIG1       -0.2119
     23 C           1.7330    1.9750    0.0000 C.ar    1  LIG1        0.1080
     24 N           3.4580   -0.0330    0.0000 N.ar    1  LIG1       -0.3112
     25 C           4.3080    0.4670    0.0000 C.ar    1  LIG1        0.0813
     26 C           3.4880   -1.0380    0.0000 C.3     1  LIG1        0.1076
     27 C           2.6420   -1.5290    0.0000 C.3     1  LIG1        0.0265
     28 O           3.4880    2.9670    0.0000 O.2     1  LIG1       -0.2863
     29 C           5.2210    1.9750    0.0000 C.2     1  LIG1        0.0774
     30 O           5.2210    2.9670    0.0000 O.co2   1  LIG1       -0.5444
     31 O           6.0670    1.4630    0.0000 O.co2   1  LIG1       -0.5444
@<TRIPOS>BOND
     1     1     2   ar
     2     1    25   ar
     3     1    29    1
     4     2     3   ar
     5     2    28    2
     6     3     4   ar
     7     3    23   ar
     8     4     5   ar
     9     4    24   ar
    10     5     6   ar
    11     6     7    1
    12     6    22   ar
    13     7     8    1
    14     7    21    1
    15     8     9    1
    16     9    10    1
    17    10    11   am
    18    10    20    1
    19    11    12   am
    20    11    19    2
    21    12    13    1
    22    13    14   ar
    23    13    18   ar
    24    14    15   ar
    25    15    16   ar
    26    16    17   ar
    27    17    18   ar
    28    20    21    1
    29    22    23   ar
    30    24    25   ar
    31    24    26    1
    32    26    27    1
    33    29    30   ar
    34    29    31   ar
