@<TRIPOS>MOLECULE
32965_ChemDiv_6285-0301
 30 32 0 0 0
SMALL
GASTEIGER
Energy = 0

@<TRIPOS>ATOM
      1 C           0.8080    0.6790    0.0000 C.ar    1  LIG1        0.2430
      2 N          -0.2000    0.6790    0.0000 N.ar    1  LIG1       -0.1882
      3 C          -0.5170   -0.2830    0.0000 C.ar    1  LIG1        0.2328
      4 O           0.3000   -0.8630    0.0000 O.2     1  LIG1       -0.4196
      5 C           1.1170   -0.2830    0.0000 C.ar    1  LIG1        0.2369
      6 N           2.0630   -0.6000    0.0000 N.pl3   1  LIG1       -0.2736
      7 C           2.2580   -1.5670    0.0000 C.3     1  LIG1        0.1152
      8 C           2.8080    0.0670    0.0000 C.3     1  LIG1        0.1152
      9 C          -1.4670   -0.6000    0.0000 C.ar    1  LIG1        0.0599
     10 C          -2.2080    0.0790    0.0000 C.ar    1  LIG1        0.0449
     11 C          -3.1580   -0.2250    0.0000 C.ar    1  LIG1        0.1756
     12 C          -3.3580   -1.2080    0.0000 C.ar    1  LIG1        0.2061
     13 C          -2.6130   -1.8830    0.0000 C.ar    1  LIG1        0.1756
     14 C          -1.6630   -1.5710    0.0000 C.ar    1  LIG1        0.0449
     15 O          -2.8170   -2.8500    0.0000 O.3     1  LIG1       -0.4683
     16 C          -2.0710   -3.5130    0.0000 C.3     1  LIG1        0.2526
     17 O          -4.3040   -1.5250    0.0000 O.3     1  LIG1       -0.4654
     18 C          -4.5000   -2.5040    0.0000 C.3     1  LIG1        0.2528
     19 O          -3.9040    0.4290    0.0000 O.3     1  LIG1       -0.4683
     20 C          -4.8500    0.1080    0.0000 C.3     1  LIG1        0.2526
     21 S           1.3880    1.4960    0.0000 S.O2    1  LIG1        0.0482
     22 C           2.2580    2.0000    0.0000 C.ar    1  LIG1        0.1122
     23 C           2.2460    2.9960    0.0000 C.ar    1  LIG1        0.0197
     24 C           3.1080    3.5040    0.0000 C.ar    1  LIG1        0.0127
     25 C           3.9790    3.0080    0.0000 C.ar    1  LIG1        0.0578
     26 C           3.9830    2.0080    0.0000 C.ar    1  LIG1        0.0127
     27 C           3.1250    1.5000    0.0000 C.ar    1  LIG1        0.0197
     28 CL          4.8460    3.5170    0.0000 Cl      1  LIG1       -0.0822
     29 O           0.7250    2.2330    0.0000 O.2     1  LIG1       -0.1627
     30 O           2.0670    0.7460    0.0000 O.2     1  LIG1       -0.1627
@<TRIPOS>BOND
     1     1     2   ar
     2     1     5   ar
     3     1    21    1
     4     2     3   ar
     5     3     4   ar
     6     3     9    1
     7     4     5   ar
     8     5     6    1
     9     6     7    1
    10     6     8    1
    11     9    10   ar
    12     9    14   ar
    13    10    11   ar
    14    11    12   ar
    15    11    19    1
    16    12    13   ar
    17    12    17    1
    18    13    14   ar
    19    13    15    1
    20    15    16    1
    21    17    18    1
    22    19    20    1
    23    21    22    1
    24    21    29    2
    25    21    30    2
    26    22    23   ar
    27    22    27   ar
    28    23    24   ar
    29    24    25   ar
    30    25    26   ar
    31    25    28    1
    32    26    27   ar
