@<TRIPOS>MOLECULE
32961_ChemDiv_6280-1639
 18 19 0 0 0
SMALL
GASTEIGER
Energy = 0

@<TRIPOS>ATOM
      1 N          -3.4710   -0.2460    0.0000 N.ar    1  LIG1       -0.2406
      2 C          -2.6040    0.2540    0.0000 C.ar    1  LIG1        0.1703
      3 C          -1.7380   -0.2460    0.0000 C.ar    1  LIG1        0.0538
      4 C          -1.7380   -1.2460    0.0000 C.ar    1  LIG1        0.1007
      5 N          -2.6040   -1.7460    0.0000 N.ar    1  LIG1       -0.2567
      6 C          -3.4710   -1.2460    0.0000 C.ar    1  LIG1       -0.0059
      7 S          -4.3380   -1.7460    0.0000 S.3     1  LIG1       -0.7189
      8 C          -0.8710    0.2540    0.0000 C.ar    1  LIG1        0.0045
      9 C           0.0000   -0.2460    0.0000 C.ar    1  LIG1        0.0033
     10 C           0.8670    0.2540    0.0000 C.ar    1  LIG1        0.0369
     11 C           0.8670    1.2500    0.0000 C.ar    1  LIG1        0.1386
     12 C           0.0000    1.7500    0.0000 C.ar    1  LIG1        0.0369
     13 C          -0.8710    1.2500    0.0000 C.ar    1  LIG1        0.0033
     14 O           1.7330    1.7500    0.0000 O.3     1  LIG1       -0.4755
     15 C           2.6000    1.2500    0.0000 C.3     1  LIG1        0.2054
     16 C           3.4670    1.7500    0.0000 C.3     1  LIG1        0.0473
     17 C           4.3330    1.2500    0.0000 C.3     1  LIG1        0.0040
     18 N          -2.6040    1.2500    0.0000 N.pl3   1  LIG1       -0.1072
@<TRIPOS>BOND
     1     1     2   ar
     2     1     6   ar
     3     2     3   ar
     4     2    18    1
     5     3     4   ar
     6     3     8    1
     7     4     5   ar
     8     5     6   ar
     9     6     7    1
    10     8     9   ar
    11     8    13   ar
    12     9    10   ar
    13    10    11   ar
    14    11    12   ar
    15    11    14    1
    16    12    13   ar
    17    14    15    1
    18    15    16    1
    19    16    17    1
