@<TRIPOS>MOLECULE
32962_ChemDiv_6809-0226
 29 32 0 0 0
SMALL
GASTEIGER
Energy = 0

@<TRIPOS>ATOM
      1 C           0.0790   -0.2830    0.0000 C.ar    1  LIG1        0.2457
      2 N           0.1170    0.7130    0.0000 N.ar    1  LIG1       -0.1733
      3 C           1.0290    1.1670    0.0000 C.ar    1  LIG1        0.2829
      4 C           1.8170    0.6250    0.0000 C.ar    1  LIG1        0.0782
      5 C           1.7710   -0.3920    0.0000 C.ar    1  LIG1        0.0780
      6 N           0.9040   -0.8460    0.0000 N.ar    1  LIG1       -0.2154
      7 C           2.6250   -0.9330    0.0000 C.3     1  LIG1        0.1100
      8 S           3.5380   -0.4790    0.0000 S.3     1  LIG1       -0.0802
      9 C           4.3670   -1.0250    0.0000 C.ar    1  LIG1        0.1595
     10 S           5.2750   -0.7420    0.0000 S.2     1  LIG1       -0.0435
     11 C           5.8170   -1.5670    0.0000 C.ar    1  LIG1        0.1120
     12 N           5.2420   -2.3420    0.0000 N.ar    1  LIG1       -0.1448
     13 N           4.3250   -2.0290    0.0000 N.ar    1  LIG1       -0.1347
     14 C           6.8380   -1.5670    0.0000 C.3     1  LIG1        0.0614
     15 O           1.0880    2.1670    0.0000 O.2     1  LIG1       -0.2651
     16 N          -0.8000   -0.7420    0.0000 N.pl3   1  LIG1       -0.1415
     17 C          -1.6500   -0.1630    0.0000 C.ar    1  LIG1        0.2430
     18 N          -1.6500    0.8920    0.0000 N.ar    1  LIG1       -0.2164
     19 C          -2.5130    1.3500    0.0000 C.ar    1  LIG1        0.0637
     20 C          -3.3880    0.8540    0.0000 C.ar    1  LIG1        0.0311
     21 C          -3.3880   -0.1630    0.0000 C.ar    1  LIG1        0.0853
     22 N          -2.5130   -0.6540    0.0000 N.ar    1  LIG1       -0.2121
     23 C          -4.2500   -0.6540    0.0000 C.ar    1  LIG1        0.0189
     24 C          -5.1250   -0.1630    0.0000 C.ar    1  LIG1       -0.0027
     25 C          -5.1250    0.8920    0.0000 C.ar    1  LIG1       -0.0221
     26 C          -4.2500    1.3500    0.0000 C.ar    1  LIG1       -0.0016
     27 C          -6.0460    1.3670    0.0000 C.3     1  LIG1        0.0264
     28 C          -6.8380    0.7960    0.0000 C.3     1  LIG1        0.0050
     29 C          -2.5130    2.3460    0.0000 C.3     1  LIG1        0.0522
@<TRIPOS>BOND
     1     1     2   ar
     2     1     6   ar
     3     1    16    1
     4     2     3   ar
     5     3     4   ar
     6     3    15    2
     7     4     5   ar
     8     5     6   ar
     9     5     7    1
    10     7     8    1
    11     8     9    1
    12     9    10   ar
    13     9    13   ar
    14    10    11   ar
    15    11    12   ar
    16    11    14    1
    17    12    13   ar
    18    16    17    1
    19    17    18   ar
    20    17    22   ar
    21    18    19   ar
    22    19    20   ar
    23    19    29    1
    24    20    21   ar
    25    20    26   ar
    26    21    22   ar
    27    21    23   ar
    28    23    24   ar
    29    24    25   ar
    30    25    26   ar
    31    25    27    1
    32    27    28    1
