@<TRIPOS>MOLECULE
32974_ChemDiv_6835-5933
 24 27 0 0 0
SMALL
GASTEIGER
Energy = 0

@<TRIPOS>ATOM
      1 C           0.0630   -0.4920    0.0000 C.ar    1  LIG1        0.0895
      2 C           0.0630   -1.4960    0.0000 C.ar    1  LIG1        0.2098
      3 N           0.9290   -1.9960    0.0000 N.ar    1  LIG1       -0.2505
      4 C           1.8000   -1.4960    0.0000 C.ar    1  LIG1        0.3360
      5 N           1.8000   -0.4920    0.0000 N.ar    1  LIG1       -0.2468
      6 C           0.9290    0.0130    0.0000 C.ar    1  LIG1        0.2650
      7 O           0.9290    1.0130    0.0000 O.2     1  LIG1       -0.2670
      8 C           2.6670    0.0080    0.0000 C.3     1  LIG1        0.1382
      9 O           2.6630   -1.9960    0.0000 O.2     1  LIG1       -0.2461
     10 C           0.9290   -2.9920    0.0000 C.3     1  LIG1        0.1381
     11 O          -0.8040   -2.0040    0.0000 O.3     1  LIG1       -0.4684
     12 C          -1.6750   -1.5080    0.0000 C.3     1  LIG1        0.1388
     13 C          -1.6790   -0.5040    0.0000 C.3     1  LIG1        0.0888
     14 C          -0.8080    0.0000    0.0000 C.3     1  LIG1        0.0637
     15 C          -0.8170    1.0000    0.0000 C.ar    1  LIG1        0.0161
     16 C          -1.6830    1.4960    0.0000 C.ar    1  LIG1        0.1348
     17 O          -2.5460    0.9960    0.0000 O.3     1  LIG1       -0.4756
     18 C          -2.5460   -0.0040    0.0000 C.3     1  LIG1        0.2094
     19 C          -1.6790    2.5000    0.0000 C.ar    1  LIG1        0.0366
     20 C          -0.8210    2.9960    0.0000 C.ar    1  LIG1        0.0031
     21 C           0.0420    2.5000    0.0000 C.ar    1  LIG1       -0.0001
     22 C           0.0460    1.5000    0.0000 C.ar    1  LIG1       -0.0010
     23 C          -2.6710   -1.5000    0.0000 C.3     1  LIG1        0.0438
     24 C          -1.6790   -2.5000    0.0000 C.3     1  LIG1        0.0438
@<TRIPOS>BOND
     1     1     2   ar
     2     1     6   ar
     3     1    14    1
     4     2     3   ar
     5     2    11    1
     6     3     4   ar
     7     3    10    1
     8     4     5   ar
     9     4     9    2
    10     5     6   ar
    11     5     8    1
    12     6     7    2
    13    11    12    1
    14    12    13    1
    15    12    23    1
    16    12    24    1
    17    13    14    1
    18    13    18    1
    19    14    15    1
    20    15    16   ar
    21    15    22   ar
    22    16    17    1
    23    16    19   ar
    24    17    18    1
    25    19    20   ar
    26    20    21   ar
    27    21    22   ar
