@<TRIPOS>MOLECULE
32972_ChemDiv_6835-5513
 17 18 0 0 0
SMALL
GASTEIGER
Energy = 0

@<TRIPOS>ATOM
      1 N           2.3880    0.2130    0.0000 N.am    1  LIG1       -0.5749
      2 C           2.8880   -0.6540    0.0000 C.2     1  LIG1        0.1101
      3 S           2.2210   -1.3960    0.0000 S.3     1  LIG1       -0.0919
      4 C           1.3130   -0.9920    0.0000 C.3     1  LIG1        0.0953
      5 C           1.4080    0.0040    0.0000 C.2     1  LIG1        0.0710
      6 O           0.6630    0.6670    0.0000 O.2     1  LIG1       -0.3166
      7 C           0.4460   -1.4960    0.0000 C.3     1  LIG1        0.0432
      8 C          -0.4210   -0.9960    0.0000 C.ar    1  LIG1       -0.0209
      9 C          -1.2920   -1.5000    0.0000 C.ar    1  LIG1       -0.0042
     10 C          -2.1500   -0.9960    0.0000 C.ar    1  LIG1        0.0008
     11 C          -2.1500    0.0040    0.0000 C.ar    1  LIG1        0.0140
     12 C          -3.0210    0.5040    0.0000 C.2     1  LIG1        0.0729
     13 O          -3.8880    0.0040    0.0000 O.co2   1  LIG1       -0.5446
     14 O          -3.0210    1.5040    0.0000 O.co2   1  LIG1       -0.5446
     15 C          -1.2920    0.5040    0.0000 C.ar    1  LIG1        0.0008
     16 C          -0.4250    0.0130    0.0000 C.ar    1  LIG1       -0.0042
     17 O           3.8830   -0.7540    0.0000 O.2     1  LIG1       -0.3062
@<TRIPOS>BOND
     1     1     2   am
     2     1     5   am
     3     2     3    1
     4     2    17    2
     5     3     4    1
     6     4     5    1
     7     4     7    1
     8     5     6    2
     9     7     8    1
    10     8     9   ar
    11     8    16   ar
    12     9    10   ar
    13    10    11   ar
    14    11    12    1
    15    11    15   ar
    16    12    13   ar
    17    12    14   ar
    18    15    16   ar
