@<TRIPOS>MOLECULE
32973_ChemDiv_6295-0037
 28 31 0 0 0
SMALL
GASTEIGER
Energy = 0

@<TRIPOS>ATOM
      1 N          -2.9460    0.4960    0.0000 N.ar    1  LIG1       -0.3245
      2 C          -3.8000    0.9830    0.0000 C.ar    1  LIG1        0.0600
      3 C          -4.6460    0.4960    0.0000 C.ar    1  LIG1        0.0172
      4 C          -3.8130   -0.9710    0.0000 C.ar    1  LIG1        0.0172
      5 C          -2.9580   -0.4920    0.0000 C.ar    1  LIG1        0.0600
      6 C          -2.1170   -0.9830    0.0000 C.ar    1  LIG1        0.0172
      7 C          -2.1250   -1.9580    0.0000 C.ar    1  LIG1        0.0015
      8 C          -2.9750   -2.4460    0.0000 C.ar    1  LIG1        0.0001
      9 C          -3.8170   -1.9460    0.0000 C.ar    1  LIG1        0.0015
     10 C          -5.4920    0.9830    0.0000 C.ar    1  LIG1        0.0015
     11 C          -5.4920    1.9630    0.0000 C.ar    1  LIG1        0.0001
     12 C          -4.6460    2.4500    0.0000 C.ar    1  LIG1        0.0015
     13 C          -3.8000    1.9630    0.0000 C.ar    1  LIG1        0.0172
     14 C          -2.1080    0.9830    0.0000 C.3     1  LIG1        0.1397
     15 C          -1.2670    0.4960    0.0000 C.3     1  LIG1        0.1851
     16 O          -1.2670   -0.4830    0.0000 O.3     1  LIG1       -0.2201
     17 C          -0.4210    0.9830    0.0000 C.3     1  LIG1        0.0929
     18 S           0.4210    0.5000    0.0000 S.3     1  LIG1       -0.1278
     19 C           1.2670    0.9880    0.0000 C.3     1  LIG1        0.1446
     20 C           2.1130    0.5130    0.0000 C.2     1  LIG1        0.2566
     21 N           2.9540    1.0000    0.0000 N.am    1  LIG1       -0.1785
     22 C           3.8000    0.5130    0.0000 C.ar    1  LIG1        0.0734
     23 C           4.6420    1.0040    0.0000 C.ar    1  LIG1        0.0166
     24 C           5.4880    0.5250    0.0000 C.ar    1  LIG1        0.0013
     25 C           5.4880   -0.4630    0.0000 C.ar    1  LIG1        0.0001
     26 C           4.6420   -0.9540    0.0000 C.ar    1  LIG1        0.0013
     27 C           3.8000   -0.4670    0.0000 C.ar    1  LIG1        0.0166
     28 O           2.1130   -0.4670    0.0000 O.2     1  LIG1       -0.2720
@<TRIPOS>BOND
     1     1     2   ar
     2     1     5   ar
     3     1    14    1
     4     2     3   ar
     5     2    13   ar
     6     3     4   ar
     7     3    10   ar
     8     4     5   ar
     9     4     9   ar
    10     5     6   ar
    11     6     7   ar
    12     7     8   ar
    13     8     9   ar
    14    10    11   ar
    15    11    12   ar
    16    12    13   ar
    17    14    15    1
    18    15    16    1
    19    15    17    1
    20    17    18    1
    21    18    19    1
    22    19    20    1
    23    20    21   am
    24    20    28    2
    25    21    22    1
    26    22    23   ar
    27    22    27   ar
    28    23    24   ar
    29    24    25   ar
    30    25    26   ar
    31    26    27   ar
