@<TRIPOS>MOLECULE
32998_ChemDiv_6959-0002
 31 36 0 0 0
SMALL
GASTEIGER
Energy = 0

@<TRIPOS>ATOM
      1 C          -1.2960    0.2580    0.0000 C.ar    1  LIG1        0.0780
      2 C          -1.8130   -0.6170    0.0000 C.ar    1  LIG1        0.1994
      3 C          -1.1330   -1.3630    0.0000 C.2     1  LIG1        0.2843
      4 N          -0.2210   -0.9540    0.0000 N.am    1  LIG1       -0.2633
      5 C          -0.3290    0.0460    0.0000 C.3     1  LIG1        0.1273
      6 C           0.4130    0.7130    0.0000 C.ar    1  LIG1        0.0001
      7 C           0.2130    1.6790    0.0000 C.ar    1  LIG1       -0.0023
      8 C           0.9540    2.3460    0.0000 C.ar    1  LIG1       -0.0003
      9 C           1.9080    2.0420    0.0000 C.ar    1  LIG1       -0.0000
     10 C           2.1080    1.0580    0.0000 C.ar    1  LIG1       -0.0003
     11 C           1.3670    0.3920    0.0000 C.ar    1  LIG1       -0.0023
     12 C           0.6420   -1.4540    0.0000 C.3     1  LIG1        0.1212
     13 C           1.5040   -0.9540    0.0000 C.ar    1  LIG1        0.0009
     14 C           2.3790   -1.4630    0.0000 C.ar    1  LIG1        0.0376
     15 C           3.2460   -0.9540    0.0000 C.ar    1  LIG1        0.1762
     16 C           3.2460    0.0330    0.0000 C.ar    1  LIG1        0.1764
     17 O           4.1960    0.3460    0.0000 O.3     1  LIG1       -0.4346
     18 C           4.7750   -0.4670    0.0000 C.3     1  LIG1        0.4294
     19 O           4.1960   -1.2710    0.0000 O.3     1  LIG1       -0.4346
     20 C           2.3670    0.5460    0.0000 C.ar    1  LIG1        0.0399
     21 C           1.5040    0.0460    0.0000 C.ar    1  LIG1        0.0007
     22 O          -1.3460   -2.3420    0.0000 O.2     1  LIG1       -0.2665
     23 O          -2.8130   -0.6040    0.0000 O.2     1  LIG1       -0.4489
     24 C          -3.3000    0.2710    0.0000 C.ar    1  LIG1        0.1485
     25 C          -2.7880    1.1250    0.0000 C.ar    1  LIG1        0.0733
     26 C          -1.7880    1.1210    0.0000 C.ar    1  LIG1        0.1995
     27 O          -1.2830    1.9830    0.0000 O.2     1  LIG1       -0.2866
     28 C          -3.2790    2.0000    0.0000 C.ar    1  LIG1        0.0062
     29 C          -4.2710    2.0130    0.0000 C.ar    1  LIG1        0.0003
     30 C          -4.7790    1.1500    0.0000 C.ar    1  LIG1        0.0031
     31 C          -4.2960    0.2750    0.0000 C.ar    1  LIG1        0.0376
@<TRIPOS>BOND
     1     1     2   ar
     2     1     5    1
     3     1    26   ar
     4     2     3    1
     5     2    23   ar
     6     3     4   am
     7     3    22    2
     8     4     5    1
     9     4    12    1
    10     5     6    1
    11     6     7   ar
    12     6    11   ar
    13     7     8   ar
    14     8     9   ar
    15     9    10   ar
    16    10    11   ar
    17    12    13    1
    18    13    14   ar
    19    13    21   ar
    20    14    15   ar
    21    15    16   ar
    22    15    19    1
    23    16    17    1
    24    16    20   ar
    25    17    18    1
    26    18    19    1
    27    20    21   ar
    28    23    24   ar
    29    24    25   ar
    30    24    31   ar
    31    25    26   ar
    32    25    28   ar
    33    26    27    2
    34    28    29   ar
    35    29    30   ar
    36    30    31   ar
