@<TRIPOS>MOLECULE
32994_ChemDiv_6872-1354
 29 32 0 0 0
SMALL
GASTEIGER
Energy = 0

@<TRIPOS>ATOM
      1 C          -0.6000   -0.9500    0.0000 C.ar    1  LIG1        0.0780
      2 C          -0.5830   -1.9540    0.0000 C.ar    1  LIG1        0.1994
      3 C           0.3380   -2.2250    0.0000 C.2     1  LIG1        0.2840
      4 N           0.9130   -1.4330    0.0000 N.am    1  LIG1       -0.2672
      5 C           0.3380   -0.6290    0.0000 C.3     1  LIG1        0.1270
      6 C           0.6380    0.3170    0.0000 C.ar    1  LIG1        0.0003
      7 C          -0.0420    1.0540    0.0000 C.ar    1  LIG1        0.0009
      8 C           0.2580    2.0080    0.0000 C.ar    1  LIG1        0.0418
      9 C           1.2420    2.2290    0.0000 C.ar    1  LIG1        0.1957
     10 C           1.9210    1.4830    0.0000 C.ar    1  LIG1        0.0418
     11 C           1.6170    0.5250    0.0000 C.ar    1  LIG1        0.0009
     12 O           1.5500    3.1830    0.0000 O.3     1  LIG1       -0.2866
     13 C           1.9210   -1.4330    0.0000 C.3     1  LIG1        0.1005
     14 C           2.4170   -0.5710    0.0000 C.3     1  LIG1        0.0842
     15 C           3.4210   -0.5710    0.0000 C.3     1  LIG1        0.1410
     16 N           3.9330    0.2960    0.0000 N.4     1  LIG1        0.3867
     17 C           4.9330    0.2960    0.0000 C.3     1  LIG1        0.2025
     18 C           3.4380    1.1630    0.0000 C.3     1  LIG1        0.2025
     19 O           0.6540   -3.1790    0.0000 O.2     1  LIG1       -0.2666
     20 O          -1.4380   -2.4710    0.0000 O.2     1  LIG1       -0.4489
     21 C          -2.3130   -1.9790    0.0000 C.ar    1  LIG1        0.1485
     22 C          -2.3290   -0.9670    0.0000 C.ar    1  LIG1        0.0730
     23 C          -1.4630   -0.4630    0.0000 C.ar    1  LIG1        0.1995
     24 O          -1.4790    0.5380    0.0000 O.2     1  LIG1       -0.2866
     25 C          -3.2130   -0.4750    0.0000 C.ar    1  LIG1        0.0020
     26 C          -4.0750   -0.9830    0.0000 C.ar    1  LIG1       -0.0216
     27 C          -4.0580   -1.9960    0.0000 C.ar    1  LIG1       -0.0011
     28 C          -3.1830   -2.4960    0.0000 C.ar    1  LIG1        0.0373
     29 C          -4.9380   -0.4920    0.0000 C.3     1  LIG1        0.0310
@<TRIPOS>BOND
     1     1     2   ar
     2     1     5    1
     3     1    23   ar
     4     2     3    1
     5     2    20   ar
     6     3     4   am
     7     3    19    2
     8     4     5    1
     9     4    13    1
    10     5     6    1
    11     6     7   ar
    12     6    11   ar
    13     7     8   ar
    14     8     9   ar
    15     9    10   ar
    16     9    12    1
    17    10    11   ar
    18    13    14    1
    19    14    15    1
    20    15    16    1
    21    16    17    1
    22    16    18    1
    23    20    21   ar
    24    21    22   ar
    25    21    28   ar
    26    22    23   ar
    27    22    25   ar
    28    23    24    2
    29    25    26   ar
    30    26    27   ar
    31    26    29    1
    32    27    28   ar
