@<TRIPOS>MOLECULE
32999_ChemDiv_6313-0069
 23 26 0 0 0
SMALL
GASTEIGER
Energy = 0

@<TRIPOS>ATOM
      1 N          -1.5170    1.1380    0.0000 N.ar    1  LIG1       -0.2808
      2 C          -0.9330    1.9330    0.0000 C.ar    1  LIG1        0.2927
      3 S          -1.5250    2.7630    0.0000 S.2     1  LIG1       -0.0260
      4 C          -2.4670    2.4580    0.0000 C.ar    1  LIG1        0.0497
      5 C          -2.4670    1.4580    0.0000 C.ar    1  LIG1        0.0695
      6 C          -3.3290    0.9580    0.0000 C.ar    1  LIG1        0.0178
      7 C          -4.1960    1.4750    0.0000 C.ar    1  LIG1        0.0015
      8 C          -4.1960    2.4630    0.0000 C.ar    1  LIG1        0.0006
      9 C          -3.3170    2.9580    0.0000 C.ar    1  LIG1        0.0081
     10 O           0.0670    1.9290    0.0000 O.2     1  LIG1       -0.2594
     11 C          -1.2750    0.1710    0.0000 C.3     1  LIG1        0.1966
     12 C          -0.3130   -0.1000    0.0000 C.2     1  LIG1        0.2705
     13 N          -0.0540   -1.0710    0.0000 N.am    1  LIG1       -0.1527
     14 C           0.9080   -1.3330    0.0000 C.ar    1  LIG1        0.1852
     15 N           1.2630   -2.2880    0.0000 N.ar    1  LIG1       -0.2272
     16 C           2.2500   -2.2380    0.0000 C.ar    1  LIG1        0.0630
     17 C           2.5210   -1.2710    0.0000 C.ar    1  LIG1        0.0235
     18 S           1.6880   -0.7130    0.0000 S.2     1  LIG1       -0.0544
     19 C           3.4920   -1.0250    0.0000 C.3     1  LIG1        0.0343
     20 C           4.1920   -1.7380    0.0000 C.3     1  LIG1        0.0057
     21 C           3.9170   -2.6960    0.0000 C.3     1  LIG1        0.0067
     22 C           2.9580   -2.9540    0.0000 C.3     1  LIG1        0.0461
     23 O           0.4000    0.6080    0.0000 O.2     1  LIG1       -0.2708
@<TRIPOS>BOND
     1     1     2   ar
     2     1     5   ar
     3     1    11    1
     4     2     3   ar
     5     2    10    2
     6     3     4   ar
     7     4     5   ar
     8     4     9   ar
     9     5     6   ar
    10     6     7   ar
    11     7     8   ar
    12     8     9   ar
    13    11    12    1
    14    12    13   am
    15    12    23    2
    16    13    14    1
    17    14    15   ar
    18    14    18   ar
    19    15    16   ar
    20    16    17   ar
    21    16    22    1
    22    17    18   ar
    23    17    19    1
    24    19    20    1
    25    20    21    1
    26    21    22    1
