@<TRIPOS>MOLECULE
32996_ChemDiv_6872-1731
 31 34 0 0 0
SMALL
GASTEIGER
Energy = 0

@<TRIPOS>ATOM
      1 C          -1.4580   -0.1750    0.0000 C.ar    1  LIG1        0.0780
      2 C          -2.1420    0.5670    0.0000 C.ar    1  LIG1        0.1994
      3 C          -1.6290    1.4380    0.0000 C.2     1  LIG1        0.2841
      4 N          -0.6460    1.2330    0.0000 N.am    1  LIG1       -0.2649
      5 C          -0.5420    0.2330    0.0000 C.3     1  LIG1        0.1271
      6 C           0.3170   -0.2580    0.0000 C.ar    1  LIG1        0.0003
      7 C           0.3170   -1.2710    0.0000 C.ar    1  LIG1        0.0008
      8 C           1.1920   -1.7580    0.0000 C.ar    1  LIG1        0.0367
      9 C           2.0580   -1.2710    0.0000 C.ar    1  LIG1        0.1393
     10 O           2.9330   -1.7580    0.0000 O.3     1  LIG1       -0.4655
     11 C           2.9330   -2.7630    0.0000 C.3     1  LIG1        0.2929
     12 C           3.7920   -3.2710    0.0000 C.2     1  LIG1        0.3052
     13 O           3.7920   -4.2750    0.0000 O.2     1  LIG1       -0.2676
     14 N           4.6670   -2.7630    0.0000 N.am    1  LIG1       -0.0845
     15 C           2.0580   -0.2580    0.0000 C.ar    1  LIG1        0.0367
     16 C           1.1920    0.2460    0.0000 C.ar    1  LIG1        0.0008
     17 C           0.0830    1.9080    0.0000 C.3     1  LIG1        0.1264
     18 C          -0.1290    2.8750    0.0000 C.3     1  LIG1        0.1637
     19 O          -1.0330    3.2920    0.0000 O.3     1  LIG1       -0.3493
     20 C          -1.2580    4.2750    0.0000 C.3     1  LIG1        0.1742
     21 O          -2.0330    2.3540    0.0000 O.2     1  LIG1       -0.2665
     22 O          -3.1130    0.3380    0.0000 O.2     1  LIG1       -0.4489
     23 C          -3.3960   -0.6080    0.0000 C.ar    1  LIG1        0.1485
     24 C          -2.7290   -1.3330    0.0000 C.ar    1  LIG1        0.0730
     25 C          -1.7540   -1.1210    0.0000 C.ar    1  LIG1        0.1995
     26 O          -1.0670   -1.8670    0.0000 O.2     1  LIG1       -0.2866
     27 C          -3.0250   -2.2880    0.0000 C.ar    1  LIG1        0.0020
     28 C          -3.9880   -2.5080    0.0000 C.ar    1  LIG1       -0.0216
     29 C          -4.6710   -1.7580    0.0000 C.ar    1  LIG1       -0.0011
     30 C          -4.3710   -0.8210    0.0000 C.ar    1  LIG1        0.0373
     31 C          -4.2880   -3.4420    0.0000 C.3     1  LIG1        0.0310
@<TRIPOS>BOND
     1     1     2   ar
     2     1     5    1
     3     1    25   ar
     4     2     3    1
     5     2    22   ar
     6     3     4   am
     7     3    21    2
     8     4     5    1
     9     4    17    1
    10     5     6    1
    11     6     7   ar
    12     6    16   ar
    13     7     8   ar
    14     8     9   ar
    15     9    10    1
    16     9    15   ar
    17    10    11    1
    18    11    12    1
    19    12    13    2
    20    12    14   am
    21    15    16   ar
    22    17    18    1
    23    18    19    1
    24    19    20    1
    25    22    23   ar
    26    23    24   ar
    27    23    30   ar
    28    24    25   ar
    29    24    27   ar
    30    25    26    2
    31    27    28   ar
    32    28    29   ar
    33    28    31    1
    34    29    30   ar
