@<TRIPOS>MOLECULE
32991_ChemDiv_6456-0125
 29 32 0 0 0
SMALL
GASTEIGER
Energy = 0

@<TRIPOS>ATOM
      1 C          -2.4920    0.4460    0.0000 C.ar    1  LIG1        0.2446
      2 N          -1.9960   -0.4250    0.0000 N.ar    1  LIG1       -0.1767
      3 C          -1.0000   -0.4250    0.0000 C.ar    1  LIG1        0.2603
      4 N          -0.5000    0.4460    0.0000 N.ar    1  LIG1       -0.1901
      5 C          -1.0000    1.3080    0.0000 C.ar    1  LIG1        0.2020
      6 N          -1.9960    1.3080    0.0000 N.ar    1  LIG1       -0.1912
      7 C          -0.5000    2.1710    0.0000 C.3     1  LIG1        0.2055
      8 N           0.4960    2.1710    0.0000 N.4     1  LIG1        0.3832
      9 C           0.9960    3.0290    0.0000 C.3     1  LIG1        0.1392
     10 C           2.0000    3.0290    0.0000 C.3     1  LIG1        0.0633
     11 C           2.5000    2.1710    0.0000 C.3     1  LIG1        0.0162
     12 C           3.4960    2.1710    0.0000 C.3     1  LIG1        0.0268
     13 C           3.9960    1.3080    0.0000 C.ar    1  LIG1       -0.0222
     14 C           3.4960    0.4460    0.0000 C.ar    1  LIG1       -0.0043
     15 C           3.9960   -0.4250    0.0000 C.ar    1  LIG1       -0.0003
     16 C           4.9960   -0.4250    0.0000 C.ar    1  LIG1       -0.0000
     17 C           5.4960    0.4460    0.0000 C.ar    1  LIG1       -0.0003
     18 C           4.9960    1.3080    0.0000 C.ar    1  LIG1       -0.0043
     19 C           2.0000    1.3000    0.0000 C.3     1  LIG1        0.0633
     20 C           0.9960    1.3000    0.0000 C.3     1  LIG1        0.1392
     21 N          -0.4830   -1.2880    0.0000 N.pl3   1  LIG1       -0.0859
     22 N          -3.4920    0.4460    0.0000 N.pl3   1  LIG1       -0.1776
     23 C          -3.9880   -0.4130    0.0000 C.ar    1  LIG1        0.0736
     24 C          -3.4920   -1.2830    0.0000 C.ar    1  LIG1        0.0163
     25 C          -3.9880   -2.1500    0.0000 C.ar    1  LIG1       -0.0029
     26 C          -4.9920   -2.1500    0.0000 C.ar    1  LIG1       -0.0218
     27 C          -5.4880   -1.2750    0.0000 C.ar    1  LIG1       -0.0029
     28 C          -4.9920   -0.4130    0.0000 C.ar    1  LIG1        0.0163
     29 C          -5.5000   -3.0250    0.0000 C.3     1  LIG1        0.0310
@<TRIPOS>BOND
     1     1     2   ar
     2     1     6   ar
     3     1    22    1
     4     2     3   ar
     5     3     4   ar
     6     3    21    1
     7     4     5   ar
     8     5     6   ar
     9     5     7    1
    10     7     8    1
    11     8     9    1
    12     8    20    1
    13     9    10    1
    14    10    11    1
    15    11    12    1
    16    11    19    1
    17    12    13    1
    18    13    14   ar
    19    13    18   ar
    20    14    15   ar
    21    15    16   ar
    22    16    17   ar
    23    17    18   ar
    24    19    20    1
    25    22    23    1
    26    23    24   ar
    27    23    28   ar
    28    24    25   ar
    29    25    26   ar
    30    26    27   ar
    31    26    29    1
    32    27    28   ar
