@<TRIPOS>MOLECULE
33009_ChemDiv_6456-0401
 29 32 0 0 0
SMALL
GASTEIGER
Energy = 0

@<TRIPOS>ATOM
      1 N           0.7170    1.6460    0.0000 N.am    1  LIG1       -0.2365
      2 C           0.7170    0.6750    0.0000 C.2     1  LIG1        0.2545
      3 C          -0.1290    0.1330    0.0000 C.3     1  LIG1        0.1951
      4 N          -0.1290   -0.8380    0.0000 N.pl3   1  LIG1       -0.1861
      5 C          -0.9880   -1.3040    0.0000 C.ar    1  LIG1        0.2322
      6 N          -0.9880   -2.3500    0.0000 N.ar    1  LIG1       -0.2172
      7 C          -1.8290   -2.8170    0.0000 C.ar    1  LIG1        0.0634
      8 C          -2.6880   -2.3500    0.0000 C.ar    1  LIG1        0.0296
      9 C          -2.6880   -1.3790    0.0000 C.ar    1  LIG1        0.0634
     10 N          -1.8290   -0.8380    0.0000 N.ar    1  LIG1       -0.2172
     11 C          -3.5960   -0.8880    0.0000 C.3     1  LIG1        0.0522
     12 C          -1.8290   -3.8000    0.0000 C.3     1  LIG1        0.0522
     13 C           0.7170   -1.3040    0.0000 C.1     1  LIG1        0.1772
     14 N           1.6250   -1.7960    0.0000 N.1     1  LIG1       -0.1737
     15 O           1.5500    0.2080    0.0000 O.2     1  LIG1       -0.2723
     16 C           1.6250    2.0750    0.0000 C.ar    1  LIG1        0.0541
     17 C           1.8380    3.0460    0.0000 C.ar    1  LIG1       -0.0078
     18 C           1.1960    3.8040    0.0000 C.3     1  LIG1        0.0323
     19 C           0.1880    3.8040    0.0000 C.3     1  LIG1        0.0323
     20 C          -0.4170    3.0830    0.0000 C.ar    1  LIG1       -0.0078
     21 C          -0.1920    2.0750    0.0000 C.ar    1  LIG1        0.0541
     22 C          -0.9210    1.3830    0.0000 C.ar    1  LIG1        0.0149
     23 C          -1.8960    1.6880    0.0000 C.ar    1  LIG1        0.0013
     24 C          -2.1330    2.6830    0.0000 C.ar    1  LIG1       -0.0002
     25 C          -1.4000    3.3880    0.0000 C.ar    1  LIG1       -0.0030
     26 C           2.7960    3.3880    0.0000 C.ar    1  LIG1       -0.0030
     27 C           3.5920    2.6830    0.0000 C.ar    1  LIG1       -0.0002
     28 C           3.3540    1.6880    0.0000 C.ar    1  LIG1        0.0013
     29 C           2.4080    1.4330    0.0000 C.ar    1  LIG1        0.0149
@<TRIPOS>BOND
     1     1     2   am
     2     1    16    1
     3     1    21    1
     4     2     3    1
     5     2    15    2
     6     3     4    1
     7     4     5    1
     8     4    13    1
     9     5     6   ar
    10     5    10   ar
    11     6     7   ar
    12     7     8   ar
    13     7    12    1
    14     8     9   ar
    15     9    10   ar
    16     9    11    1
    17    13    14    3
    18    16    17   ar
    19    16    29   ar
    20    17    18    1
    21    17    26   ar
    22    18    19    1
    23    19    20    1
    24    20    21   ar
    25    20    25   ar
    26    21    22   ar
    27    22    23   ar
    28    23    24   ar
    29    24    25   ar
    30    26    27   ar
    31    27    28   ar
    32    28    29   ar
