@<TRIPOS>MOLECULE
33000_ChemDiv_6959-0308
 36 41 0 0 0
SMALL
GASTEIGER
Energy = 0

@<TRIPOS>ATOM
      1 C          -1.5790   -0.6000    0.0000 C.ar    1  LIG1        0.0780
      2 C          -2.1000   -1.4460    0.0000 C.ar    1  LIG1        0.1994
      3 C          -1.4250   -2.1880    0.0000 C.2     1  LIG1        0.2843
      4 N          -0.5000   -1.7920    0.0000 N.am    1  LIG1       -0.2633
      5 C          -0.6000   -0.8040    0.0000 C.3     1  LIG1        0.1273
      6 C           0.1500   -0.1420    0.0000 C.ar    1  LIG1        0.0003
      7 C          -0.0580    0.8170    0.0000 C.ar    1  LIG1        0.0008
      8 C           0.6830    1.4750    0.0000 C.ar    1  LIG1        0.0367
      9 C           1.6580    1.1750    0.0000 C.ar    1  LIG1        0.1393
     10 O           2.4130    1.8330    0.0000 O.3     1  LIG1       -0.4655
     11 C           3.3790    1.5250    0.0000 C.3     1  LIG1        0.2929
     12 C           4.1290    2.1960    0.0000 C.2     1  LIG1        0.3052
     13 O           5.0960    1.8830    0.0000 O.2     1  LIG1       -0.2676
     14 N           3.9130    3.1580    0.0000 N.am    1  LIG1       -0.0845
     15 C           1.8710    0.2080    0.0000 C.ar    1  LIG1        0.0367
     16 C           1.1130   -0.4580    0.0000 C.ar    1  LIG1        0.0008
     17 C           0.3830   -2.2790    0.0000 C.3     1  LIG1        0.1212
     18 C           1.2630   -1.7880    0.0000 C.ar    1  LIG1        0.0009
     19 C           2.1330   -2.2790    0.0000 C.ar    1  LIG1        0.0376
     20 C           3.0170   -1.7880    0.0000 C.ar    1  LIG1        0.1762
     21 C           3.0170   -0.8040    0.0000 C.ar    1  LIG1        0.1764
     22 O           3.9750   -0.4920    0.0000 O.3     1  LIG1       -0.4346
     23 C           4.5670   -1.2960    0.0000 C.3     1  LIG1        0.4294
     24 O           3.9750   -2.0880    0.0000 O.3     1  LIG1       -0.4346
     25 C           2.1330   -0.3040    0.0000 C.ar    1  LIG1        0.0399
     26 C           1.2630   -0.7960    0.0000 C.ar    1  LIG1        0.0007
     27 O          -1.6290   -3.1540    0.0000 O.2     1  LIG1       -0.2665
     28 O          -3.1040   -1.4460    0.0000 O.2     1  LIG1       -0.4489
     29 C          -3.6000   -0.5830    0.0000 C.ar    1  LIG1        0.1485
     30 C          -3.0880    0.2670    0.0000 C.ar    1  LIG1        0.0733
     31 C          -2.0710    0.2580    0.0000 C.ar    1  LIG1        0.1995
     32 O          -1.5630    1.1080    0.0000 O.2     1  LIG1       -0.2866
     33 C          -3.5710    1.1250    0.0000 C.ar    1  LIG1        0.0062
     34 C          -4.5880    1.1290    0.0000 C.ar    1  LIG1        0.0003
     35 C          -5.1000    0.2830    0.0000 C.ar    1  LIG1        0.0031
     36 C          -4.6040   -0.5710    0.0000 C.ar    1  LIG1        0.0376
@<TRIPOS>BOND
     1     1     2   ar
     2     1     5    1
     3     1    31   ar
     4     2     3    1
     5     2    28   ar
     6     3     4   am
     7     3    27    2
     8     4     5    1
     9     4    17    1
    10     5     6    1
    11     6     7   ar
    12     6    16   ar
    13     7     8   ar
    14     8     9   ar
    15     9    10    1
    16     9    15   ar
    17    10    11    1
    18    11    12    1
    19    12    13    2
    20    12    14   am
    21    15    16   ar
    22    17    18    1
    23    18    19   ar
    24    18    26   ar
    25    19    20   ar
    26    20    21   ar
    27    20    24    1
    28    21    22    1
    29    21    25   ar
    30    22    23    1
    31    23    24    1
    32    25    26   ar
    33    28    29   ar
    34    29    30   ar
    35    29    36   ar
    36    30    31   ar
    37    30    33   ar
    38    31    32    2
    39    33    34   ar
    40    34    35   ar
    41    35    36   ar
