@<TRIPOS>MOLECULE
33005_ChemDiv_6321-0530
 35 39 0 0 0
SMALL
GASTEIGER
Energy = 0

@<TRIPOS>ATOM
      1 C          -0.8630   -2.0000    0.0000 C.ar    1  LIG1        0.2358
      2 N          -0.8670   -1.0000    0.0000 N.ar    1  LIG1       -0.2223
      3 N          -1.8250   -0.6920    0.0000 N.ar    1  LIG1       -0.1284
      4 C          -2.4080   -1.5000    0.0000 C.ar    1  LIG1        0.2756
      5 N          -1.8080   -2.3130    0.0000 N.ar    1  LIG1       -0.1761
      6 N          -3.4080   -1.5130    0.0000 N.pl3   1  LIG1       -0.0847
      7 C          -0.0040   -0.4960    0.0000 C.3     1  LIG1        0.0843
      8 C           0.8580   -1.0000    0.0000 C.3     1  LIG1       -0.0016
      9 C           0.8580   -2.0000    0.0000 C.3     1  LIG1        0.0748
     10 N          -0.0040   -2.4960    0.0000 N.pl3   1  LIG1       -0.2078
     11 C           1.7290   -2.5000    0.0000 C.ar    1  LIG1        0.0020
     12 C           2.5880   -2.0000    0.0000 C.ar    1  LIG1        0.0549
     13 CL          2.5880   -1.0000    0.0000 Cl      1  LIG1       -0.0825
     14 C           3.4500   -2.4960    0.0000 C.ar    1  LIG1        0.0111
     15 C           3.4540   -3.5000    0.0000 C.ar    1  LIG1        0.0008
     16 C           2.5880   -4.0000    0.0000 C.ar    1  LIG1       -0.0002
     17 C           1.7250   -3.5000    0.0000 C.ar    1  LIG1       -0.0022
     18 C           0.0000    0.5040    0.0000 C.ar    1  LIG1       -0.0060
     19 C          -0.8630    1.0040    0.0000 C.ar    1  LIG1        0.0003
     20 C          -0.8630    2.0000    0.0000 C.ar    1  LIG1        0.0366
     21 C           0.0130    2.5040    0.0000 C.ar    1  LIG1        0.1390
     22 O           0.0000    3.5040    0.0000 O.3     1  LIG1       -0.4706
     23 C          -0.8630    4.0000    0.0000 C.3     1  LIG1        0.2320
     24 C          -1.7250    3.5040    0.0000 C.ar    1  LIG1        0.0212
     25 C          -2.5960    4.0000    0.0000 C.ar    1  LIG1       -0.0007
     26 C          -3.4580    3.5040    0.0000 C.ar    1  LIG1       -0.0002
     27 C          -3.4580    2.5170    0.0000 C.ar    1  LIG1       -0.0000
     28 C          -2.5960    2.0040    0.0000 C.ar    1  LIG1       -0.0002
     29 C          -1.7250    2.5040    0.0000 C.ar    1  LIG1       -0.0007
     30 C           0.8750    2.0000    0.0000 C.ar    1  LIG1        0.0366
     31 C           0.8750    1.0040    0.0000 C.ar    1  LIG1        0.0003
     32 H           0.8580    0.0130    0.0000 H       1  LIG1        0.0597
     33 H           1.8580   -1.0000    0.0000 H       1  LIG1        0.0311
     34 H           1.5710   -0.2880    0.0000 H       1  LIG1        0.0311
     35 H           1.7250   -1.4960    0.0000 H       1  LIG1        0.0570
@<TRIPOS>BOND
     1     1     2   ar
     2     1     5   ar
     3     1    10    1
     4     2     3   ar
     5     2     7    1
     6     3     4   ar
     7     4     5   ar
     8     4     6    1
     9     7     8    1
    10     7    18    1
    11     7    32    1
    12     8     9    1
    13     8    33    1
    14     8    34    1
    15     9    10    1
    16     9    11    1
    17     9    35    1
    18    11    12   ar
    19    11    17   ar
    20    12    13    1
    21    12    14   ar
    22    14    15   ar
    23    15    16   ar
    24    16    17   ar
    25    18    19   ar
    26    18    31   ar
    27    19    20   ar
    28    20    21   ar
    29    21    22    1
    30    21    30   ar
    31    22    23    1
    32    23    24    1
    33    24    25   ar
    34    24    29   ar
    35    25    26   ar
    36    26    27   ar
    37    27    28   ar
    38    28    29   ar
    39    30    31   ar
