@<TRIPOS>MOLECULE
33007_ChemDiv_6321-0570
 27 30 0 0 0
SMALL
GASTEIGER
Energy = 0

@<TRIPOS>ATOM
      1 C          -1.3210   -1.0290    0.0000 C.ar    1  LIG1        0.2359
      2 N          -1.3290   -0.0290    0.0000 N.ar    1  LIG1       -0.2193
      3 N          -2.2830    0.2790    0.0000 N.ar    1  LIG1       -0.1283
      4 C          -2.8670   -0.5290    0.0000 C.ar    1  LIG1        0.2756
      5 N          -2.2710   -1.3290    0.0000 N.ar    1  LIG1       -0.1761
      6 N          -3.8670   -0.5290    0.0000 N.pl3   1  LIG1       -0.0847
      7 C          -0.4670    0.4750    0.0000 C.3     1  LIG1        0.1163
      8 C           0.3960   -0.0290    0.0000 C.3     1  LIG1        0.0013
      9 C           0.3960   -1.0290    0.0000 C.3     1  LIG1        0.0749
     10 N          -0.4670   -1.5210    0.0000 N.pl3   1  LIG1       -0.2078
     11 C           1.2710   -1.5290    0.0000 C.ar    1  LIG1        0.0021
     12 C           2.1250   -1.0290    0.0000 C.ar    1  LIG1        0.0558
     13 C           2.9880   -1.5210    0.0000 C.ar    1  LIG1        0.0225
     14 C           2.9960   -2.5290    0.0000 C.ar    1  LIG1        0.0585
     15 C           2.1250   -3.0290    0.0000 C.ar    1  LIG1        0.0112
     16 C           1.2630   -2.5290    0.0000 C.ar    1  LIG1       -0.0013
     17 CL          3.8630   -3.0290    0.0000 Cl      1  LIG1       -0.0822
     18 CL          2.1250   -0.0290    0.0000 Cl      1  LIG1       -0.0825
     19 C          -0.4580    1.4750    0.0000 C.ar    1  LIG1        0.1388
     20 O          -1.2710    2.0790    0.0000 O.2     1  LIG1       -0.4532
     21 C          -0.9500    3.0330    0.0000 C.ar    1  LIG1        0.1792
     22 C           0.0500    3.0170    0.0000 C.ar    1  LIG1        0.0435
     23 C           0.3500    2.0630    0.0000 C.ar    1  LIG1        0.0377
     24 H           0.3960    0.9880    0.0000 H       1  LIG1        0.0628
     25 H           1.1080    0.6830    0.0000 H       1  LIG1        0.0312
     26 H           1.3960   -0.0290    0.0000 H       1  LIG1        0.0312
     27 H           1.2630   -0.5250    0.0000 H       1  LIG1        0.0570
@<TRIPOS>BOND
     1     1     2   ar
     2     1     5   ar
     3     1    10    1
     4     2     3   ar
     5     2     7    1
     6     3     4   ar
     7     4     5   ar
     8     4     6    1
     9     7     8    1
    10     7    19    1
    11     7    24    1
    12     8     9    1
    13     8    25    1
    14     8    26    1
    15     9    10    1
    16     9    11    1
    17     9    27    1
    18    11    12   ar
    19    11    16   ar
    20    12    13   ar
    21    12    18    1
    22    13    14   ar
    23    14    15   ar
    24    14    17    1
    25    15    16   ar
    26    19    20   ar
    27    19    23   ar
    28    20    21   ar
    29    21    22   ar
    30    22    23   ar
