@<TRIPOS>MOLECULE
33016_ChemDiv_6557-0260
 25 27 0 0 0
SMALL
GASTEIGER
Energy = 0

@<TRIPOS>ATOM
      1 C          -2.9380    0.1790    0.0000 C.ar    1  LIG1        0.0292
      2 C          -2.9380   -0.8170    0.0000 C.ar    1  LIG1        0.0292
      3 C          -1.9920   -1.1290    0.0000 C.ar    1  LIG1        0.0383
      4 N          -1.4000   -0.3210    0.0000 N.ar    1  LIG1       -0.3335
      5 C          -1.9920    0.4830    0.0000 C.ar    1  LIG1        0.0383
      6 C          -1.6710    1.4330    0.0000 C.3     1  LIG1        0.0500
      7 C          -0.3920   -0.3210    0.0000 C.3     1  LIG1        0.1101
      8 C           0.1080    0.5380    0.0000 C.3     1  LIG1        0.0509
      9 C           1.1080    0.5380    0.0000 C.ar    1  LIG1       -0.0170
     10 C           1.6130    1.4040    0.0000 C.ar    1  LIG1        0.0358
     11 C           2.6080    1.4040    0.0000 C.ar    1  LIG1        0.1721
     12 C           3.1130    0.5380    0.0000 C.ar    1  LIG1        0.1724
     13 C           2.6080   -0.3210    0.0000 C.ar    1  LIG1        0.0397
     14 C           1.6130   -0.3210    0.0000 C.ar    1  LIG1       -0.0009
     15 O           4.1170    0.5380    0.0000 O.3     1  LIG1       -0.4684
     16 C           4.6630   -0.2960    0.0000 C.3     1  LIG1        0.2526
     17 O           3.1130    2.2750    0.0000 O.3     1  LIG1       -0.4684
     18 C           4.1170    2.3290    0.0000 C.3     1  LIG1        0.2526
     19 C          -1.6710   -2.0830    0.0000 C.3     1  LIG1        0.0500
     20 C          -3.8040   -1.3130    0.0000 C.ar    1  LIG1        0.0820
     21 N          -4.6670   -0.8170    0.0000 N.ar    1  LIG1       -0.1526
     22 N          -4.6670    0.1790    0.0000 N.ar    1  LIG1       -0.1526
     23 C          -3.8040    0.6790    0.0000 C.ar    1  LIG1        0.0820
     24 C          -3.8040    1.6790    0.0000 C.3     1  LIG1        0.0540
     25 C          -3.8040   -2.3250    0.0000 C.3     1  LIG1        0.0540
@<TRIPOS>BOND
     1     1     2   ar
     2     1     5   ar
     3     1    23   ar
     4     2     3   ar
     5     2    20   ar
     6     3     4   ar
     7     3    19    1
     8     4     5   ar
     9     4     7    1
    10     5     6    1
    11     7     8    1
    12     8     9    1
    13     9    10   ar
    14     9    14   ar
    15    10    11   ar
    16    11    12   ar
    17    11    17    1
    18    12    13   ar
    19    12    15    1
    20    13    14   ar
    21    15    16    1
    22    17    18    1
    23    20    21   ar
    24    20    25    1
    25    21    22   ar
    26    22    23   ar
    27    23    24    1
