@<TRIPOS>MOLECULE
33018_ChemDiv_6574-0219
 27 30 0 0 0
SMALL
GASTEIGER
Energy = 0

@<TRIPOS>ATOM
      1 N          -0.5960    3.4750    0.0000 N.ar    1  LIG1       -0.1862
      2 C           0.3880    3.2380    0.0000 C.ar    1  LIG1        0.2151
      3 N           0.9080    4.0830    0.0000 N.ar    1  LIG1       -0.1011
      4 N           0.2500    4.8460    0.0000 N.ar    1  LIG1       -0.0218
      5 N          -0.6710    4.4630    0.0000 N.ar    1  LIG1       -0.0382
      6 S           0.6630    2.2790    0.0000 S.3     1  LIG1       -0.0640
      7 C          -0.0250    1.5580    0.0000 C.3     1  LIG1        0.1521
      8 C           0.2540    0.6000    0.0000 C.2     1  LIG1        0.2595
      9 N          -0.4460   -0.1210    0.0000 N.am    1  LIG1       -0.1420
     10 C          -0.1710   -1.0920    0.0000 C.ar    1  LIG1        0.2503
     11 N           0.7710   -1.4540    0.0000 N.ar    1  LIG1       -0.2036
     12 C           0.7130   -2.4540    0.0000 C.ar    1  LIG1        0.1312
     13 S          -0.2460   -2.7040    0.0000 S.2     1  LIG1        0.0355
     14 N          -0.7830   -1.8630    0.0000 N.ar    1  LIG1       -0.1728
     15 C           1.4250   -3.1670    0.0000 C.ar    1  LIG1        0.0253
     16 C           2.3920   -2.9080    0.0000 C.ar    1  LIG1        0.0021
     17 C           3.1000   -3.6250    0.0000 C.ar    1  LIG1        0.0001
     18 C           2.8380   -4.5710    0.0000 C.ar    1  LIG1        0.0000
     19 C           1.8670   -4.8460    0.0000 C.ar    1  LIG1        0.0001
     20 C           1.1630   -4.1290    0.0000 C.ar    1  LIG1        0.0021
     21 O           1.2130    0.3670    0.0000 O.2     1  LIG1       -0.2719
     22 C          -1.3880    2.8580    0.0000 C.ar    1  LIG1        0.0866
     23 C          -1.2500    1.8710    0.0000 C.ar    1  LIG1        0.0193
     24 C          -2.0420    1.2540    0.0000 C.ar    1  LIG1        0.0015
     25 C          -2.9670    1.6290    0.0000 C.ar    1  LIG1        0.0001
     26 C          -3.1040    2.6290    0.0000 C.ar    1  LIG1        0.0015
     27 C          -2.3040    3.2380    0.0000 C.ar    1  LIG1        0.0193
@<TRIPOS>BOND
     1     1     2   ar
     2     1     5   ar
     3     1    22    1
     4     2     3   ar
     5     2     6    1
     6     3     4   ar
     7     4     5   ar
     8     6     7    1
     9     7     8    1
    10     8     9   am
    11     8    21    2
    12     9    10    1
    13    10    11   ar
    14    10    14   ar
    15    11    12   ar
    16    12    13   ar
    17    12    15    1
    18    13    14   ar
    19    15    16   ar
    20    15    20   ar
    21    16    17   ar
    22    17    18   ar
    23    18    19   ar
    24    19    20   ar
    25    22    23   ar
    26    22    27   ar
    27    23    24   ar
    28    24    25   ar
    29    25    26   ar
    30    26    27   ar
