@<TRIPOS>MOLECULE
33014_ChemDiv_6557-0251
 28 32 0 0 0
SMALL
GASTEIGER
Energy = 0

@<TRIPOS>ATOM
      1 C          -0.2330    0.8420    0.0000 C.ar    1  LIG1        0.0316
      2 C          -0.2330    1.8420    0.0000 C.ar    1  LIG1        0.0294
      3 C           0.7130    2.1500    0.0000 C.ar    1  LIG1        0.0387
      4 N           1.3040    1.3420    0.0000 N.ar    1  LIG1       -0.3298
      5 C           0.7130    0.5330    0.0000 C.ar    1  LIG1        0.0389
      6 C           1.2170   -0.3330    0.0000 C.3     1  LIG1        0.0501
      7 C           2.3000    1.3420    0.0000 C.3     1  LIG1        0.1321
      8 C           2.8040    0.4750    0.0000 C.ar    1  LIG1        0.0004
      9 C           2.3000   -0.3880    0.0000 C.ar    1  LIG1       -0.0024
     10 C           2.8040   -1.2460    0.0000 C.ar    1  LIG1       -0.0003
     11 C           3.8000   -1.2460    0.0000 C.ar    1  LIG1       -0.0000
     12 C           4.3040   -0.3880    0.0000 C.ar    1  LIG1       -0.0003
     13 C           3.8000    0.4750    0.0000 C.ar    1  LIG1       -0.0024
     14 C           0.9750    3.1170    0.0000 C.3     1  LIG1        0.0500
     15 C          -1.1000    2.3460    0.0000 C.ar    1  LIG1        0.0804
     16 N          -1.9670    1.8420    0.0000 N.ar    1  LIG1       -0.1695
     17 N          -1.9670    0.8420    0.0000 N.ar    1  LIG1       -0.2285
     18 C          -1.1000    0.3420    0.0000 C.ar    1  LIG1        0.0840
     19 C          -1.3130   -0.6380    0.0000 C.ar    1  LIG1        0.0207
     20 C          -2.3080   -0.7380    0.0000 C.ar    1  LIG1        0.0207
     21 C          -2.7130    0.1750    0.0000 C.ar    1  LIG1        0.1004
     22 C          -2.8080   -1.6000    0.0000 C.ar    1  LIG1        0.0015
     23 C          -3.8080   -1.6000    0.0000 C.ar    1  LIG1        0.0000
     24 C          -4.3080   -2.4710    0.0000 C.ar    1  LIG1        0.0000
     25 C          -3.8080   -3.3420    0.0000 C.ar    1  LIG1        0.0000
     26 C          -2.8080   -3.3420    0.0000 C.ar    1  LIG1        0.0000
     27 C          -2.3080   -2.4710    0.0000 C.ar    1  LIG1        0.0000
     28 C          -1.1000    3.3460    0.0000 C.3     1  LIG1        0.0540
@<TRIPOS>BOND
     1     1     2   ar
     2     1     5   ar
     3     1    18   ar
     4     2     3   ar
     5     2    15   ar
     6     3     4   ar
     7     3    14    1
     8     4     5   ar
     9     4     7    1
    10     5     6    1
    11     7     8    1
    12     8     9   ar
    13     8    13   ar
    14     9    10   ar
    15    10    11   ar
    16    11    12   ar
    17    12    13   ar
    18    15    16   ar
    19    15    28    1
    20    16    17   ar
    21    17    18   ar
    22    17    21   ar
    23    18    19   ar
    24    19    20   ar
    25    20    21   ar
    26    20    22    1
    27    22    23   ar
    28    22    27   ar
    29    23    24   ar
    30    24    25   ar
    31    25    26   ar
    32    26    27   ar
