@<TRIPOS>MOLECULE
33028_ChemDiv_C736-0362
 35 40 0 0 0
SMALL
GASTEIGER
Energy = 0

@<TRIPOS>ATOM
      1 N          -1.2170   -0.4500    0.0000 N.ar    1  LIG1       -0.1810
      2 C          -2.0790    0.0630    0.0000 C.ar    1  LIG1        0.1694
      3 N          -1.8670    1.0460    0.0000 N.ar    1  LIG1       -0.2099
      4 C          -0.8540    1.1540    0.0000 C.ar    1  LIG1        0.1628
      5 N          -0.4630    0.2290    0.0000 N.ar    1  LIG1       -0.1464
      6 C          -0.3540    2.0170    0.0000 C.3     1  LIG1        0.0939
      7 C           0.6420    2.0000    0.0000 C.3     1  LIG1        0.1351
      8 N           1.1420    2.8630    0.0000 N.ar    1  LIG1       -0.2548
      9 N           2.1250    2.9580    0.0000 N.ar    1  LIG1       -0.1740
     10 C           2.3380    3.9380    0.0000 C.ar    1  LIG1        0.0801
     11 C           1.4880    4.4330    0.0000 C.ar    1  LIG1        0.0308
     12 C           0.7460    3.7710    0.0000 C.ar    1  LIG1        0.0571
     13 C          -0.2330    3.9830    0.0000 C.3     1  LIG1        0.0517
     14 C           3.2580    4.3250    0.0000 C.3     1  LIG1        0.0540
     15 C          -2.9420   -0.4500    0.0000 C.ar    1  LIG1        0.0537
     16 C          -2.9420   -1.4500    0.0000 C.ar    1  LIG1        0.0871
     17 N          -2.0790   -1.9500    0.0000 N.ar    1  LIG1       -0.2135
     18 C          -1.2170   -1.4500    0.0000 C.ar    1  LIG1        0.2227
     19 N          -0.3460   -1.9500    0.0000 N.pl3   1  LIG1       -0.2746
     20 C          -0.3460   -2.9500    0.0000 C.3     1  LIG1        0.1151
     21 C           0.5170   -3.4420    0.0000 C.3     1  LIG1        0.1153
     22 N           1.3790   -2.9330    0.0000 N.am    1  LIG1       -0.2701
     23 C           2.2420   -3.4330    0.0000 C.2     1  LIG1        0.2839
     24 C           3.1040   -2.9330    0.0000 C.ar    1  LIG1        0.1987
     25 O           4.0130   -3.3290    0.0000 O.2     1  LIG1       -0.4458
     26 C           4.6790   -2.5880    0.0000 C.ar    1  LIG1        0.1798
     27 C           4.1710   -1.7330    0.0000 C.ar    1  LIG1        0.0440
     28 C           3.2000   -1.9330    0.0000 C.ar    1  LIG1        0.0455
     29 O           2.2500   -4.4330    0.0000 O.2     1  LIG1       -0.2666
     30 C           1.3790   -1.9330    0.0000 C.3     1  LIG1        0.1153
     31 C           0.5080   -1.4380    0.0000 C.3     1  LIG1        0.1151
     32 C          -3.8210   -1.9500    0.0000 C.ar    1  LIG1        0.0193
     33 C          -4.6830   -1.4500    0.0000 C.ar    1  LIG1        0.0015
     34 C          -4.6830   -0.4500    0.0000 C.ar    1  LIG1        0.0002
     35 C          -3.8210    0.0630    0.0000 C.ar    1  LIG1        0.0046
@<TRIPOS>BOND
     1     1     2   ar
     2     1     5   ar
     3     1    18   ar
     4     2     3   ar
     5     2    15   ar
     6     3     4   ar
     7     4     5   ar
     8     4     6    1
     9     6     7    1
    10     7     8    1
    11     8     9   ar
    12     8    12   ar
    13     9    10   ar
    14    10    11   ar
    15    10    14    1
    16    11    12   ar
    17    12    13    1
    18    15    16   ar
    19    15    35   ar
    20    16    17   ar
    21    16    32   ar
    22    17    18   ar
    23    18    19    1
    24    19    20    1
    25    19    31    1
    26    20    21    1
    27    21    22    1
    28    22    23   am
    29    22    30    1
    30    23    24    1
    31    23    29    2
    32    24    25   ar
    33    24    28   ar
    34    25    26   ar
    35    26    27   ar
    36    27    28   ar
    37    30    31    1
    38    32    33   ar
    39    33    34   ar
    40    34    35   ar
