@<TRIPOS>MOLECULE
33026_ChemDiv_C736-0361
 35 40 0 0 0
SMALL
GASTEIGER
Energy = 0

@<TRIPOS>ATOM
      1 N          -1.2880   -0.9460    0.0000 N.ar    1  LIG1       -0.1810
      2 C          -2.1500   -0.4330    0.0000 C.ar    1  LIG1        0.1694
      3 N          -1.9380    0.5500    0.0000 N.ar    1  LIG1       -0.2099
      4 C          -0.9250    0.6580    0.0000 C.ar    1  LIG1        0.1628
      5 N          -0.5330   -0.2670    0.0000 N.ar    1  LIG1       -0.1464
      6 C          -0.4250    1.5210    0.0000 C.3     1  LIG1        0.0939
      7 C           0.5750    1.5040    0.0000 C.3     1  LIG1        0.1351
      8 N           1.0710    2.3670    0.0000 N.ar    1  LIG1       -0.2548
      9 N           2.0540    2.4630    0.0000 N.ar    1  LIG1       -0.1740
     10 C           2.2670    3.4420    0.0000 C.ar    1  LIG1        0.0801
     11 C           1.4170    3.9420    0.0000 C.ar    1  LIG1        0.0308
     12 C           0.6750    3.2750    0.0000 C.ar    1  LIG1        0.0571
     13 C          -0.3040    3.4880    0.0000 C.3     1  LIG1        0.0517
     14 C           3.1880    3.8380    0.0000 C.3     1  LIG1        0.0540
     15 C          -3.0130   -0.9460    0.0000 C.ar    1  LIG1        0.0537
     16 C          -3.0130   -1.9460    0.0000 C.ar    1  LIG1        0.0871
     17 N          -2.1500   -2.4460    0.0000 N.ar    1  LIG1       -0.2135
     18 C          -1.2880   -1.9460    0.0000 C.ar    1  LIG1        0.2226
     19 N          -0.4170   -2.4460    0.0000 N.pl3   1  LIG1       -0.2781
     20 C          -0.4170   -3.4420    0.0000 C.3     1  LIG1        0.0936
     21 C           0.4460   -3.9380    0.0000 C.3     1  LIG1        0.0219
     22 C           1.3080   -3.4290    0.0000 C.3     1  LIG1        0.0078
     23 C           2.1710   -3.9290    0.0000 C.3     1  LIG1        0.0265
     24 C           3.0330   -3.4290    0.0000 C.ar    1  LIG1       -0.0222
     25 C           3.8880   -3.9290    0.0000 C.ar    1  LIG1       -0.0043
     26 C           4.7500   -3.4290    0.0000 C.ar    1  LIG1       -0.0003
     27 C           4.7500   -2.4290    0.0000 C.ar    1  LIG1       -0.0000
     28 C           3.8710   -1.9290    0.0000 C.ar    1  LIG1       -0.0003
     29 C           3.0250   -2.4420    0.0000 C.ar    1  LIG1       -0.0043
     30 C           1.3080   -2.4290    0.0000 C.3     1  LIG1        0.0219
     31 C           0.4380   -1.9290    0.0000 C.3     1  LIG1        0.0936
     32 C          -3.8920   -2.4460    0.0000 C.ar    1  LIG1        0.0193
     33 C          -4.7540   -1.9460    0.0000 C.ar    1  LIG1        0.0015
     34 C          -4.7540   -0.9460    0.0000 C.ar    1  LIG1        0.0002
     35 C          -3.8920   -0.4330    0.0000 C.ar    1  LIG1        0.0046
@<TRIPOS>BOND
     1     1     2   ar
     2     1     5   ar
     3     1    18   ar
     4     2     3   ar
     5     2    15   ar
     6     3     4   ar
     7     4     5   ar
     8     4     6    1
     9     6     7    1
    10     7     8    1
    11     8     9   ar
    12     8    12   ar
    13     9    10   ar
    14    10    11   ar
    15    10    14    1
    16    11    12   ar
    17    12    13    1
    18    15    16   ar
    19    15    35   ar
    20    16    17   ar
    21    16    32   ar
    22    17    18   ar
    23    18    19    1
    24    19    20    1
    25    19    31    1
    26    20    21    1
    27    21    22    1
    28    22    23    1
    29    22    30    1
    30    23    24    1
    31    24    25   ar
    32    24    29   ar
    33    25    26   ar
    34    26    27   ar
    35    27    28   ar
    36    28    29   ar
    37    30    31    1
    38    32    33   ar
    39    33    34   ar
    40    34    35   ar
