@<TRIPOS>MOLECULE
33027_ChemDiv_6877-0681
 25 28 0 0 0
SMALL
GASTEIGER
Energy = 0

@<TRIPOS>ATOM
      1 C          -0.0080   -0.2460    0.0000 C.ar    1  LIG1        0.1091
      2 C           0.0000   -1.2460    0.0000 C.ar    1  LIG1        0.3486
      3 O          -0.8710   -1.7500    0.0000 O.2     1  LIG1       -0.4179
      4 C          -1.7380   -1.2460    0.0000 C.ar    1  LIG1        0.1823
      5 C          -1.7380   -0.2460    0.0000 C.ar    1  LIG1        0.0378
      6 C          -0.8710    0.2580    0.0000 C.ar    1  LIG1        0.0092
      7 C          -0.8630    1.2540    0.0000 C.ar    1  LIG1       -0.0082
      8 C           0.0080    1.7540    0.0000 C.ar    1  LIG1        0.0565
      9 N           0.8670    1.2420    0.0000 N.ar    1  LIG1       -0.2332
     10 C           0.8670    0.2460    0.0000 C.ar    1  LIG1        0.1602
     11 N           1.7290   -0.2630    0.0000 N.am    1  LIG1       -0.1602
     12 C           2.5880    0.2380    0.0000 C.2     1  LIG1        0.2474
     13 O           3.4630   -0.2460    0.0000 O.2     1  LIG1       -0.2729
     14 C           2.5790    1.2420    0.0000 C.3     1  LIG1        0.0968
     15 C           0.0170    2.7420    0.0000 C.3     1  LIG1        0.0455
     16 C          -0.8460    3.2580    0.0000 C.3     1  LIG1        0.0066
     17 C          -1.7130    2.7670    0.0000 C.3     1  LIG1        0.0051
     18 C          -1.7290    1.7670    0.0000 C.3     1  LIG1        0.0276
     19 C          -2.6000    0.2500    0.0000 C.ar    1  LIG1        0.0032
     20 C          -3.4670   -0.2460    0.0000 C.ar    1  LIG1        0.0033
     21 C          -3.4670   -1.2460    0.0000 C.ar    1  LIG1        0.0401
     22 C          -2.6000   -1.7500    0.0000 C.ar    1  LIG1        0.1731
     23 O          -2.6000   -2.7460    0.0000 O.3     1  LIG1       -0.4683
     24 C          -3.4670   -3.2540    0.0000 C.3     1  LIG1        0.2526
     25 O           0.8670   -1.7500    0.0000 O.2     1  LIG1       -0.2444
@<TRIPOS>BOND
     1     1     2   ar
     2     1     6   ar
     3     1    10   ar
     4     2     3   ar
     5     2    25    2
     6     3     4   ar
     7     4     5   ar
     8     4    22   ar
     9     5     6   ar
    10     5    19   ar
    11     6     7   ar
    12     7     8   ar
    13     7    18    1
    14     8     9   ar
    15     8    15    1
    16     9    10   ar
    17    10    11    1
    18    11    12   am
    19    12    13    2
    20    12    14    1
    21    15    16    1
    22    16    17    1
    23    17    18    1
    24    19    20   ar
    25    20    21   ar
    26    21    22   ar
    27    22    23    1
    28    23    24    1
