@<TRIPOS>MOLECULE
33024_ChemDiv_6583-0007
 29 31 0 0 0
SMALL
GASTEIGER
Energy = 0

@<TRIPOS>ATOM
      1 N           0.5170    1.8960    0.0000 N.am    1  LIG1       -0.2725
      2 C           1.3920    1.4080    0.0000 C.2     1  LIG1        0.2260
      3 O           2.2540    1.9040    0.0000 O.2     1  LIG1       -0.2749
      4 C           1.3880    0.4170    0.0000 C.3     1  LIG1        0.0853
      5 C           0.5170   -0.0790    0.0000 C.3     1  LIG1        0.0101
      6 C           0.5130    2.8960    0.0000 C.3     1  LIG1        0.1582
      7 C           1.3710    3.4080    0.0000 C.ar    1  LIG1        0.1430
      8 O           1.4630    4.4000    0.0000 O.2     1  LIG1       -0.4530
      9 C           2.4420    4.6170    0.0000 C.ar    1  LIG1        0.1792
     10 C           2.9500    3.7580    0.0000 C.ar    1  LIG1        0.0435
     11 C           2.2880    3.0130    0.0000 C.ar    1  LIG1        0.0379
     12 C          -0.3380    1.3920    0.0000 C.3     1  LIG1        0.0942
     13 C          -0.3250    0.3920    0.0000 C.3     1  LIG1        0.0262
     14 C          -1.1830   -0.1170    0.0000 C.3     1  LIG1        0.0284
     15 C          -1.1830   -1.1210    0.0000 C.ar    1  LIG1       -0.0219
     16 C          -2.0460   -1.6210    0.0000 C.ar    1  LIG1       -0.0012
     17 C          -2.0380   -2.6210    0.0000 C.ar    1  LIG1        0.0366
     18 C          -1.1580   -3.1130    0.0000 C.ar    1  LIG1        0.1387
     19 C          -0.2960   -2.6040    0.0000 C.ar    1  LIG1        0.0366
     20 C          -0.3130   -1.6000    0.0000 C.ar    1  LIG1       -0.0012
     21 O          -1.1500   -4.1130    0.0000 O.3     1  LIG1       -0.4714
     22 C          -2.0130   -4.6170    0.0000 C.3     1  LIG1        0.2525
     23 C          -2.0580    0.3790    0.0000 C.3     1  LIG1        0.0307
     24 C          -2.0710    1.3790    0.0000 C.ar    1  LIG1       -0.0219
     25 C          -1.2080    1.8790    0.0000 C.ar    1  LIG1       -0.0043
     26 C          -1.2170    2.8790    0.0000 C.ar    1  LIG1       -0.0003
     27 C          -2.0920    3.3710    0.0000 C.ar    1  LIG1       -0.0000
     28 C          -2.9540    2.8580    0.0000 C.ar    1  LIG1       -0.0003
     29 C          -2.9420    1.8580    0.0000 C.ar    1  LIG1       -0.0043
@<TRIPOS>BOND
     1     1     2   am
     2     1     6    1
     3     1    12    1
     4     2     3    2
     5     2     4    1
     6     4     5    1
     7     6     7    1
     8     7     8   ar
     9     7    11   ar
    10     8     9   ar
    11     9    10   ar
    12    10    11   ar
    13    12    13    1
    14    13    14    1
    15    14    15    1
    16    14    23    1
    17    15    16   ar
    18    15    20   ar
    19    16    17   ar
    20    17    18   ar
    21    18    19   ar
    22    18    21    1
    23    19    20   ar
    24    21    22    1
    25    23    24    1
    26    24    25   ar
    27    24    29   ar
    28    25    26   ar
    29    26    27   ar
    30    27    28   ar
    31    28    29   ar
