@<TRIPOS>MOLECULE
33039_ChemDiv_6882-0108
 23 26 0 0 0
SMALL
GASTEIGER
Energy = 0

@<TRIPOS>ATOM
      1 C          -0.7210   -2.3040    0.0000 C.ar    1  LIG1        0.3940
      2 N          -1.3000   -3.1210    0.0000 N.ar    1  LIG1       -0.1773
      3 C          -2.2460   -2.8080    0.0000 C.ar    1  LIG1        0.1217
      4 C          -2.2460   -1.8040    0.0000 C.ar    1  LIG1        0.1675
      5 O          -1.3000   -1.5040    0.0000 O.2     1  LIG1       -0.4102
      6 C          -3.1130   -1.3040    0.0000 C.ar    1  LIG1        0.0392
      7 C          -3.9790   -1.8040    0.0000 C.ar    1  LIG1        0.0032
      8 C          -3.9790   -2.8080    0.0000 C.ar    1  LIG1        0.0018
      9 C          -3.1130   -3.3080    0.0000 C.ar    1  LIG1        0.0224
     10 N           0.2790   -2.3040    0.0000 N.pl3   1  LIG1        0.0192
     11 C           0.7790   -1.4380    0.0000 C.cat   1  LIG1        0.4531
     12 N           0.2790   -0.5670    0.0000 N.2     1  LIG1       -0.0343
     13 C           0.7790    0.3000    0.0000 C.3     1  LIG1        0.3715
     14 N           1.7880    0.3000    0.0000 N.4     1  LIG1        0.4381
     15 C           2.2920   -0.5750    0.0000 C.3     1  LIG1        0.3594
     16 N           1.7880   -1.4380    0.0000 N.pl3   1  LIG1       -0.0022
     17 C           2.2920    1.1580    0.0000 C.3     1  LIG1        0.0966
     18 C           1.7330    1.9880    0.0000 C.3     1  LIG1        0.0570
     19 C           2.0330    2.9380    0.0000 C.3     1  LIG1        0.0059
     20 C           2.9540    3.3130    0.0000 C.3     1  LIG1        0.0002
     21 C           3.8210    2.8040    0.0000 C.3     1  LIG1        0.0002
     22 C           3.9750    1.8170    0.0000 C.3     1  LIG1        0.0059
     23 C           3.2880    1.0880    0.0000 C.3     1  LIG1        0.0570
@<TRIPOS>BOND
     1     1     2   ar
     2     1     5   ar
     3     1    10    1
     4     2     3   ar
     5     3     4   ar
     6     3     9   ar
     7     4     5   ar
     8     4     6   ar
     9     6     7   ar
    10     7     8   ar
    11     8     9   ar
    12    10    11    1
    13    11    12    2
    14    11    16    1
    15    12    13    1
    16    13    14    1
    17    14    15    1
    18    14    17    1
    19    15    16    1
    20    17    18    1
    21    17    23    1
    22    18    19    1
    23    19    20    1
    24    20    21    1
    25    21    22    1
    26    22    23    1
