@<TRIPOS>MOLECULE
33033_ChemDiv_6881-0969
 15 16 0 0 0
SMALL
GASTEIGER
Energy = 0

@<TRIPOS>ATOM
      1 C          -1.2670   -1.2540    0.0000 C.ar    1  LIG1        0.1448
      2 C          -0.7080   -0.4290    0.0000 C.2     1  LIG1        0.2874
      3 N           0.2880   -0.5000    0.0000 N.am    1  LIG1       -0.1741
      4 C           0.8500    0.3250    0.0000 C.ar    1  LIG1        0.0738
      5 C           0.4080    1.2290    0.0000 C.ar    1  LIG1        0.0175
      6 C           0.9670    2.0580    0.0000 C.ar    1  LIG1        0.0127
      7 C           1.9670    1.9830    0.0000 C.ar    1  LIG1        0.0578
      8 CL          2.5250    2.8130    0.0000 Cl      1  LIG1       -0.0822
      9 C           2.4040    1.0830    0.0000 C.ar    1  LIG1        0.0127
     10 C           1.8460    0.2580    0.0000 C.ar    1  LIG1        0.0175
     11 O          -1.1420    0.4670    0.0000 O.2     1  LIG1       -0.2663
     12 N          -0.9130   -2.1960    0.0000 N.ar    1  LIG1       -0.2045
     13 S          -1.6960   -2.8080    0.0000 S.2     1  LIG1        0.0137
     14 C          -2.5290   -2.2580    0.0000 C.ar    1  LIG1        0.0565
     15 C          -2.2670   -1.2790    0.0000 C.ar    1  LIG1        0.0329
@<TRIPOS>BOND
     1     1     2    1
     2     1    12   ar
     3     1    15   ar
     4     2     3   am
     5     2    11    2
     6     3     4    1
     7     4     5   ar
     8     4    10   ar
     9     5     6   ar
    10     6     7   ar
    11     7     8    1
    12     7     9   ar
    13     9    10   ar
    14    12    13   ar
    15    13    14   ar
    16    14    15   ar
