@<TRIPOS>MOLECULE
33034_ChemDiv_C736-0642
 24 27 0 0 0
SMALL
GASTEIGER
Energy = 0

@<TRIPOS>ATOM
      1 N           0.0170    0.5790    0.0000 N.ar    1  LIG1       -0.1798
      2 C          -0.8460    1.0920    0.0000 C.ar    1  LIG1        0.1694
      3 N          -0.6330    2.0750    0.0000 N.ar    1  LIG1       -0.2100
      4 C           0.3670    2.1790    0.0000 C.ar    1  LIG1        0.1608
      5 N           0.7630    1.2580    0.0000 N.ar    1  LIG1       -0.1465
      6 C           0.8670    3.0420    0.0000 C.3     1  LIG1        0.0676
      7 C           1.8670    3.0290    0.0000 C.3     1  LIG1        0.0080
      8 C           2.3750    3.8920    0.0000 C.3     1  LIG1        0.0005
      9 C          -1.7210    0.5790    0.0000 C.ar    1  LIG1        0.0537
     10 C          -1.7210   -0.4210    0.0000 C.ar    1  LIG1        0.0872
     11 N          -0.8460   -0.9210    0.0000 N.ar    1  LIG1       -0.2123
     12 C           0.0170   -0.4210    0.0000 C.ar    1  LIG1        0.2393
     13 N           0.8790   -0.9210    0.0000 N.pl3   1  LIG1       -0.1989
     14 C           0.8790   -1.9210    0.0000 C.3     1  LIG1        0.1417
     15 C           1.7420   -2.4040    0.0000 C.ar    1  LIG1       -0.0006
     16 C           1.7460   -3.4040    0.0000 C.ar    1  LIG1       -0.0026
     17 C           2.6040   -3.8880    0.0000 C.ar    1  LIG1       -0.0003
     18 C           3.4540   -3.3880    0.0000 C.ar    1  LIG1       -0.0000
     19 C           3.4540   -2.3880    0.0000 C.ar    1  LIG1       -0.0003
     20 C           2.5920   -1.9040    0.0000 C.ar    1  LIG1       -0.0026
     21 C          -2.5880   -0.9210    0.0000 C.ar    1  LIG1        0.0193
     22 C          -3.4580   -0.4210    0.0000 C.ar    1  LIG1        0.0015
     23 C          -3.4580    0.5790    0.0000 C.ar    1  LIG1        0.0002
     24 C          -2.5880    1.0920    0.0000 C.ar    1  LIG1        0.0046
@<TRIPOS>BOND
     1     1     2   ar
     2     1     5   ar
     3     1    12   ar
     4     2     3   ar
     5     2     9   ar
     6     3     4   ar
     7     4     5   ar
     8     4     6    1
     9     6     7    1
    10     7     8    1
    11     9    10   ar
    12     9    24   ar
    13    10    11   ar
    14    10    21   ar
    15    11    12   ar
    16    12    13    1
    17    13    14    1
    18    14    15    1
    19    15    16   ar
    20    15    20   ar
    21    16    17   ar
    22    17    18   ar
    23    18    19   ar
    24    19    20   ar
    25    21    22   ar
    26    22    23   ar
    27    23    24   ar
