@<TRIPOS>MOLECULE
33038_ChemDiv_7646-1286
 21 24 0 0 0
SMALL
GASTEIGER
Energy = 0

@<TRIPOS>ATOM
      1 N           0.4080    0.7920    0.0000 N.am    1  LIG1       -0.2172
      2 C           0.9710    1.6080    0.0000 C.2     1  LIG1        0.2569
      3 C           1.9290    1.3040    0.0000 C.ar    1  LIG1        0.0761
      4 C           1.9290    0.3130    0.0000 C.ar    1  LIG1        0.1394
      5 C           0.9710    0.0170    0.0000 C.2     1  LIG1        0.2731
      6 O           0.6540   -0.9420    0.0000 O.2     1  LIG1       -0.2678
      7 N           2.7920   -0.1960    0.0000 N.ar    1  LIG1       -0.2391
      8 C           3.6670    0.3130    0.0000 C.ar    1  LIG1        0.0990
      9 C           3.6670    1.3040    0.0000 C.ar    1  LIG1        0.0208
     10 C           2.7920    1.8080    0.0000 C.ar    1  LIG1        0.0078
     11 O           0.6670    2.5710    0.0000 O.2     1  LIG1       -0.2694
     12 C          -0.5880    0.7830    0.0000 C.3     1  LIG1        0.1282
     13 C          -1.0790   -0.0790    0.0000 C.ar    1  LIG1        0.0013
     14 C          -2.0790   -0.0790    0.0000 C.ar    1  LIG1        0.0376
     15 C          -2.5750   -0.9420    0.0000 C.ar    1  LIG1        0.1762
     16 C          -2.0750   -1.8000    0.0000 C.ar    1  LIG1        0.1764
     17 O          -2.7540   -2.5670    0.0000 O.3     1  LIG1       -0.4346
     18 C          -3.6710   -2.1630    0.0000 C.3     1  LIG1        0.4294
     19 O          -3.5670   -1.1500    0.0000 O.3     1  LIG1       -0.4346
     20 C          -1.0710   -1.7920    0.0000 C.ar    1  LIG1        0.0399
     21 C          -0.5830   -0.9250    0.0000 C.ar    1  LIG1        0.0007
@<TRIPOS>BOND
     1     1     2   am
     2     1     5   am
     3     1    12    1
     4     2     3    1
     5     2    11    2
     6     3     4   ar
     7     3    10   ar
     8     4     5    1
     9     4     7   ar
    10     5     6    2
    11     7     8   ar
    12     8     9   ar
    13     9    10   ar
    14    12    13    1
    15    13    14   ar
    16    13    21   ar
    17    14    15   ar
    18    15    16   ar
    19    15    19    1
    20    16    17    1
    21    16    20   ar
    22    17    18    1
    23    18    19    1
    24    20    21   ar
