@<TRIPOS>MOLECULE
33040_ChemDiv_7653-3871
 24 27 0 0 0
SMALL
GASTEIGER
Energy = 0

@<TRIPOS>ATOM
      1 C          -0.8790    1.5130    0.0000 C.ar    1  LIG1        0.1157
      2 S          -1.4630    0.6920    0.0000 S.2     1  LIG1       -0.0797
      3 C          -2.4170    1.0000    0.0000 C.ar    1  LIG1        0.0305
      4 C          -2.4170    2.0130    0.0000 C.ar    1  LIG1        0.0173
      5 C          -1.4750    2.3210    0.0000 C.ar    1  LIG1        0.0704
      6 CL         -1.1710    3.2880    0.0000 Cl      1  LIG1       -0.0815
      7 C          -3.2920    2.5130    0.0000 C.ar    1  LIG1        0.0014
      8 C          -4.1540    2.0130    0.0000 C.ar    1  LIG1        0.0001
      9 C          -4.1540    1.0000    0.0000 C.ar    1  LIG1        0.0005
     10 C          -3.2830    0.5080    0.0000 C.ar    1  LIG1        0.0065
     11 C           0.1210    1.5130    0.0000 C.2     1  LIG1        0.3486
     12 O           0.6210    0.6460    0.0000 O.3     1  LIG1       -0.4367
     13 C           1.6250    0.6460    0.0000 C.3     1  LIG1        0.2718
     14 C           2.1210   -0.2170    0.0000 C.ar    1  LIG1        0.1651
     15 N           1.7000   -1.1420    0.0000 N.ar    1  LIG1       -0.2271
     16 C           2.4380   -1.7960    0.0000 C.ar    1  LIG1        0.0985
     17 C           3.2920   -1.3040    0.0000 C.ar    1  LIG1        0.0787
     18 N           3.1040   -0.3250    0.0000 N.ar    1  LIG1       -0.3099
     19 C           3.7790    0.4210    0.0000 C.3     1  LIG1        0.1317
     20 C           4.1500   -1.8040    0.0000 C.ar    1  LIG1        0.0188
     21 C           4.1500   -2.7920    0.0000 C.ar    1  LIG1        0.0016
     22 C           3.2880   -3.2830    0.0000 C.ar    1  LIG1        0.0016
     23 C           2.4290   -2.7830    0.0000 C.ar    1  LIG1        0.0206
     24 O           0.6210    2.4080    0.0000 O.2     1  LIG1       -0.2443
@<TRIPOS>BOND
     1     1     2   ar
     2     1     5   ar
     3     1    11    1
     4     2     3   ar
     5     3     4   ar
     6     3    10   ar
     7     4     5   ar
     8     4     7   ar
     9     5     6    1
    10     7     8   ar
    11     8     9   ar
    12     9    10   ar
    13    11    12    1
    14    11    24    2
    15    12    13    1
    16    13    14    1
    17    14    15   ar
    18    14    18   ar
    19    15    16   ar
    20    16    17   ar
    21    16    23   ar
    22    17    18   ar
    23    17    20   ar
    24    18    19    1
    25    20    21   ar
    26    21    22   ar
    27    22    23   ar
