@<TRIPOS>MOLECULE
33044_ChemDiv_8017-1112
 26 29 0 0 0
SMALL
GASTEIGER
Energy = 0

@<TRIPOS>ATOM
      1 C          -0.8630    0.9710    0.0000 C.ar    1  LIG1        0.1415
      2 N          -1.7330    0.4960    0.0000 N.ar    1  LIG1       -0.2941
      3 C          -2.6080    0.9710    0.0000 C.ar    1  LIG1        0.1854
      4 N          -2.6080    1.9960    0.0000 N.ar    1  LIG1       -0.1836
      5 C          -1.7330    2.4710    0.0000 C.ar    1  LIG1        0.2852
      6 C          -0.8630    1.9960    0.0000 C.ar    1  LIG1        0.1236
      7 C           0.0040    2.4830    0.0000 C.3     1  LIG1        0.1761
      8 N           0.8750    1.9830    0.0000 N.4     1  LIG1        0.3940
      9 C           0.8750    0.9830    0.0000 C.3     1  LIG1        0.2620
     10 N           0.0040    0.4830    0.0000 N.pl3   1  LIG1       -0.1652
     11 C           1.7420    2.4830    0.0000 C.3     1  LIG1        0.0898
     12 C           1.7420    3.4830    0.0000 C.3     1  LIG1        0.0568
     13 C           2.6040    3.9830    0.0000 C.3     1  LIG1        0.0059
     14 C           3.4750    3.4830    0.0000 C.3     1  LIG1        0.0004
     15 C           3.4750    2.4830    0.0000 C.3     1  LIG1        0.0059
     16 C           2.6040    1.9830    0.0000 C.3     1  LIG1        0.0568
     17 O          -1.7330    3.5080    0.0000 O.2     1  LIG1       -0.2652
     18 S          -3.4790    0.4960    0.0000 S.2     1  LIG1       -0.0108
     19 C          -1.7330   -0.5040    0.0000 C.3     1  LIG1        0.1138
     20 C          -0.8710   -1.0000    0.0000 C.3     1  LIG1        0.0509
     21 C          -0.8710   -1.9920    0.0000 C.ar    1  LIG1       -0.0202
     22 C          -1.7330   -2.4920    0.0000 C.ar    1  LIG1       -0.0042
     23 C          -1.7330   -3.4790    0.0000 C.ar    1  LIG1       -0.0003
     24 C          -0.8710   -3.9790    0.0000 C.ar    1  LIG1       -0.0000
     25 C          -0.0080   -3.4790    0.0000 C.ar    1  LIG1       -0.0003
     26 C          -0.0080   -2.4920    0.0000 C.ar    1  LIG1       -0.0042
@<TRIPOS>BOND
     1     1     2   ar
     2     1     6   ar
     3     1    10    1
     4     2     3   ar
     5     2    19    1
     6     3     4   ar
     7     3    18    2
     8     4     5   ar
     9     5     6   ar
    10     5    17    2
    11     6     7    1
    12     7     8    1
    13     8     9    1
    14     8    11    1
    15     9    10    1
    16    11    12    1
    17    11    16    1
    18    12    13    1
    19    13    14    1
    20    14    15    1
    21    15    16    1
    22    19    20    1
    23    20    21    1
    24    21    22   ar
    25    21    26   ar
    26    22    23   ar
    27    23    24   ar
    28    24    25   ar
    29    25    26   ar
