@<TRIPOS>MOLECULE
33043_ChemDiv_8013-1369
 30 35 0 0 0
SMALL
GASTEIGER
Energy = 0

@<TRIPOS>ATOM
      1 N           0.0460    1.0880    0.0000 N.am    1  LIG1       -0.2078
      2 C          -0.2960    0.1290    0.0000 C.2     1  LIG1        0.2419
      3 C           0.5130   -0.4670    0.0000 C.3     1  LIG1        0.1557
      4 C           0.8330   -1.4210    0.0000 C.3     1  LIG1        0.1972
      5 C           1.4040   -2.2330    0.0000 C.2     1  LIG1        0.3011
      6 N           0.8330   -3.0420    0.0000 N.am    1  LIG1       -0.1742
      7 C          -0.1250   -2.7210    0.0000 C.ar    1  LIG1        0.0754
      8 C          -0.1250   -1.7210    0.0000 C.ar    1  LIG1        0.0524
      9 C          -0.9960   -1.2330    0.0000 C.ar    1  LIG1        0.0030
     10 C          -1.8710   -1.7210    0.0000 C.ar    1  LIG1       -0.0000
     11 C          -1.8710   -2.7210    0.0000 C.ar    1  LIG1        0.0013
     12 C          -0.9960   -3.2330    0.0000 C.ar    1  LIG1        0.0165
     13 O           2.4080   -2.2330    0.0000 O.2     1  LIG1       -0.2664
     14 N           1.8130   -1.4210    0.0000 N.4     1  LIG1        0.4450
     15 C           2.1080   -0.4670    0.0000 C.3     1  LIG1        0.1535
     16 C           1.3210    0.1130    0.0000 C.3     1  LIG1        0.1490
     17 C           1.0250    1.0670    0.0000 C.2     1  LIG1        0.2412
     18 O           1.6000    1.9000    0.0000 O.2     1  LIG1       -0.2739
     19 C           3.0670   -0.1460    0.0000 C.3     1  LIG1        0.0692
     20 O          -1.2710   -0.1460    0.0000 O.2     1  LIG1       -0.2739
     21 C          -0.5710    1.8750    0.0000 C.ar    1  LIG1        0.0606
     22 C          -1.3580    1.2580    0.0000 C.ar    1  LIG1        0.0141
     23 C          -2.2960    1.6210    0.0000 C.ar    1  LIG1        0.0012
     24 C          -2.4210    2.6000    0.0000 C.ar    1  LIG1        0.0001
     25 C          -1.6380    3.2380    0.0000 C.ar    1  LIG1        0.0013
     26 C          -0.7000    2.8540    0.0000 C.ar    1  LIG1        0.0153
     27 C          -3.0710    1.0040    0.0000 C.ar    1  LIG1        0.0000
     28 C          -2.9130    0.0130    0.0000 C.ar    1  LIG1        0.0000
     29 C          -1.9880   -0.3500    0.0000 C.ar    1  LIG1        0.0000
     30 C          -1.2080    0.2790    0.0000 C.ar    1  LIG1        0.0012
@<TRIPOS>BOND
     1     1     2   am
     2     1    17   am
     3     1    21    1
     4     2     3    1
     5     2    20    2
     6     3     4    1
     7     3    16    1
     8     4     5    1
     9     4     8    1
    10     4    14    1
    11     5     6   am
    12     5    13    2
    13     6     7    1
    14     7     8   ar
    15     7    12   ar
    16     8     9   ar
    17     9    10   ar
    18    10    11   ar
    19    11    12   ar
    20    14    15    1
    21    15    16    1
    22    15    19    1
    23    16    17    1
    24    17    18    2
    25    21    22   ar
    26    21    26   ar
    27    22    23   ar
    28    22    30   ar
    29    23    24   ar
    30    23    27   ar
    31    24    25   ar
    32    25    26   ar
    33    27    28   ar
    34    28    29   ar
    35    29    30   ar
