@<TRIPOS>MOLECULE
33046_ChemDiv_8017-1113
 25 28 0 0 0
SMALL
GASTEIGER
Energy = 0

@<TRIPOS>ATOM
      1 C          -0.8630    0.2170    0.0000 C.ar    1  LIG1        0.1453
      2 N          -1.7330   -0.2540    0.0000 N.ar    1  LIG1       -0.2722
      3 C          -2.6080    0.2170    0.0000 C.ar    1  LIG1        0.1893
      4 N          -2.6080    1.2460    0.0000 N.ar    1  LIG1       -0.1833
      5 C          -1.7330    1.7210    0.0000 C.ar    1  LIG1        0.2852
      6 C          -0.8630    1.2460    0.0000 C.ar    1  LIG1        0.1239
      7 C           0.0040    1.7330    0.0000 C.3     1  LIG1        0.1762
      8 N           0.8710    1.2330    0.0000 N.4     1  LIG1        0.3940
      9 C           0.8710    0.2330    0.0000 C.3     1  LIG1        0.2620
     10 N           0.0040   -0.2630    0.0000 N.pl3   1  LIG1       -0.1649
     11 C           1.7380    1.7330    0.0000 C.3     1  LIG1        0.0898
     12 C           2.6000    1.2330    0.0000 C.3     1  LIG1        0.0568
     13 C           3.4710    1.7330    0.0000 C.3     1  LIG1        0.0059
     14 C           3.4710    2.7330    0.0000 C.3     1  LIG1        0.0004
     15 C           2.6000    3.2330    0.0000 C.3     1  LIG1        0.0059
     16 C           1.7380    2.7330    0.0000 C.3     1  LIG1        0.0568
     17 O          -1.7330    2.7540    0.0000 O.2     1  LIG1       -0.2652
     18 S          -3.4750   -0.2540    0.0000 S.2     1  LIG1       -0.0105
     19 C          -1.7330   -1.2420    0.0000 C.ar    1  LIG1        0.0775
     20 C          -0.8710   -1.7420    0.0000 C.ar    1  LIG1        0.0738
     21 CL         -0.0130   -1.2420    0.0000 Cl      1  LIG1       -0.0807
     22 C          -0.8710   -2.7380    0.0000 C.ar    1  LIG1        0.0129
     23 C          -1.7330   -3.2290    0.0000 C.ar    1  LIG1        0.0010
     24 C          -2.5960   -2.7380    0.0000 C.ar    1  LIG1        0.0015
     25 C          -2.5960   -1.7420    0.0000 C.ar    1  LIG1        0.0185
@<TRIPOS>BOND
     1     1     2   ar
     2     1     6   ar
     3     1    10    1
     4     2     3   ar
     5     2    19    1
     6     3     4   ar
     7     3    18    2
     8     4     5   ar
     9     5     6   ar
    10     5    17    2
    11     6     7    1
    12     7     8    1
    13     8     9    1
    14     8    11    1
    15     9    10    1
    16    11    12    1
    17    11    16    1
    18    12    13    1
    19    13    14    1
    20    14    15    1
    21    15    16    1
    22    19    20   ar
    23    19    25   ar
    24    20    21    1
    25    20    22   ar
    26    22    23   ar
    27    23    24   ar
    28    24    25   ar
