@<TRIPOS>MOLECULE
33048_ChemDiv_8017-1117
 22 25 0 0 0
SMALL
GASTEIGER
Energy = 0

@<TRIPOS>ATOM
      1 N          -1.5790   -0.6790    0.0000 N.ar    1  LIG1       -0.2943
      2 C          -2.4420   -0.2040    0.0000 C.ar    1  LIG1        0.1752
      3 N          -2.4420    0.8170    0.0000 N.ar    1  LIG1       -0.1845
      4 C          -1.5790    1.2920    0.0000 C.ar    1  LIG1        0.2852
      5 C          -0.7040    0.8170    0.0000 C.ar    1  LIG1        0.1236
      6 C          -0.7040   -0.2040    0.0000 C.ar    1  LIG1        0.1415
      7 N           0.1540   -0.6920    0.0000 N.pl3   1  LIG1       -0.1652
      8 C           1.0170   -0.1920    0.0000 C.3     1  LIG1        0.2620
      9 N           1.0170    0.8040    0.0000 N.4     1  LIG1        0.3940
     10 C           0.1540    1.3040    0.0000 C.3     1  LIG1        0.1761
     11 C           1.8790    1.3040    0.0000 C.3     1  LIG1        0.0898
     12 C           1.8790    2.2960    0.0000 C.3     1  LIG1        0.0568
     13 C           2.7420    2.7960    0.0000 C.3     1  LIG1        0.0059
     14 C           3.6130    2.2960    0.0000 C.3     1  LIG1        0.0004
     15 C           3.6130    1.3040    0.0000 C.3     1  LIG1        0.0059
     16 C           2.7420    0.8040    0.0000 C.3     1  LIG1        0.0568
     17 O          -1.5790    2.3170    0.0000 O.2     1  LIG1       -0.2652
     18 S          -3.1790   -0.8920    0.0000 S.3     1  LIG1       -0.0770
     19 C          -2.7460   -1.7920    0.0000 C.3     1  LIG1        0.0670
     20 C          -1.7540   -1.6670    0.0000 C.3     1  LIG1        0.1194
     21 C          -3.6170   -2.2920    0.0000 C.3     1  LIG1        0.0132
     22 C          -2.7460   -2.7920    0.0000 C.3     1  LIG1        0.0132
@<TRIPOS>BOND
     1     1     2   ar
     2     1     6   ar
     3     1    20    1
     4     2     3   ar
     5     2    18    1
     6     3     4   ar
     7     4     5   ar
     8     4    17    2
     9     5     6   ar
    10     5    10    1
    11     6     7    1
    12     7     8    1
    13     8     9    1
    14     9    10    1
    15     9    11    1
    16    11    12    1
    17    11    16    1
    18    12    13    1
    19    13    14    1
    20    14    15    1
    21    15    16    1
    22    18    19    1
    23    19    20    1
    24    19    21    1
    25    19    22    1
