@<TRIPOS>MOLECULE
33042_ChemDiv_7377-5286
 20 22 0 0 0
SMALL
GASTEIGER
Energy = 0

@<TRIPOS>ATOM
      1 C          -1.2290   -0.5040    0.0000 C.ar    1  LIG1        0.1434
      2 C          -1.2290    0.4920    0.0000 C.ar    1  LIG1        0.1221
      3 C          -2.0920    1.0040    0.0000 C.ar    1  LIG1        0.2686
      4 N          -2.9500    0.4920    0.0000 N.ar    1  LIG1       -0.2467
      5 C          -2.9500   -0.5040    0.0000 C.ar    1  LIG1        0.3348
      6 N          -2.0920   -1.0000    0.0000 N.ar    1  LIG1       -0.2662
      7 C          -2.0920   -1.9960    0.0000 C.3     1  LIG1        0.1364
      8 O          -3.8250   -1.0000    0.0000 O.2     1  LIG1       -0.2462
      9 C          -3.8250    0.9960    0.0000 C.3     1  LIG1        0.1382
     10 O          -2.0920    2.0000    0.0000 O.2     1  LIG1       -0.2669
     11 C          -0.3630    0.9960    0.0000 C.3     1  LIG1        0.1765
     12 N           0.5000    0.4920    0.0000 N.4     1  LIG1        0.4002
     13 C           0.5000   -0.5130    0.0000 C.3     1  LIG1        0.2625
     14 N          -0.3710   -1.0000    0.0000 N.pl3   1  LIG1       -0.1651
     15 C           1.3630    0.9920    0.0000 C.3     1  LIG1        0.1714
     16 C           2.2330    0.4750    0.0000 C.3     1  LIG1        0.1718
     17 O           2.3290   -0.5130    0.0000 O.3     1  LIG1       -0.3502
     18 C           3.3080   -0.7290    0.0000 C.3     1  LIG1        0.1424
     19 C           3.8210    0.1330    0.0000 C.3     1  LIG1        0.0348
     20 C           3.1500    0.8830    0.0000 C.3     1  LIG1        0.0383
@<TRIPOS>BOND
     1     1     2   ar
     2     1     6   ar
     3     1    14    1
     4     2     3   ar
     5     2    11    1
     6     3     4   ar
     7     3    10    2
     8     4     5   ar
     9     4     9    1
    10     5     6   ar
    11     5     8    2
    12     6     7    1
    13    11    12    1
    14    12    13    1
    15    12    15    1
    16    13    14    1
    17    15    16    1
    18    16    17    1
    19    16    20    1
    20    17    18    1
    21    18    19    1
    22    19    20    1
