@<TRIPOS>MOLECULE
33054_ChemDiv_8017-7638
 18 20 0 0 0
SMALL
GASTEIGER
Energy = 0

@<TRIPOS>ATOM
      1 N           0.8880   -0.7290    0.0000 N.ar    1  LIG1       -0.2942
      2 C           0.9170   -1.7040    0.0000 C.ar    1  LIG1        0.1753
      3 N           0.0040   -2.2290    0.0000 N.ar    1  LIG1       -0.1845
      4 C          -0.8210   -1.7170    0.0000 C.ar    1  LIG1        0.2852
      5 C          -0.8830   -0.6920    0.0000 C.ar    1  LIG1        0.1236
      6 C           0.0250   -0.1580    0.0000 C.ar    1  LIG1        0.1415
      7 N          -0.0040    0.8040    0.0000 N.pl3   1  LIG1       -0.1652
      8 C          -0.8290    1.3170    0.0000 C.3     1  LIG1        0.2620
      9 N          -1.7420    0.7920    0.0000 N.4     1  LIG1        0.3940
     10 C          -1.7080   -0.1790    0.0000 C.3     1  LIG1        0.1761
     11 C          -2.5790    1.2790    0.0000 C.3     1  LIG1        0.0902
     12 C          -2.5790    2.2540    0.0000 C.3     1  LIG1        0.0627
     13 C          -3.4290    0.7920    0.0000 C.3     1  LIG1        0.0627
     14 O          -1.7330   -2.2500    0.0000 O.2     1  LIG1       -0.2652
     15 S           1.8500   -2.0040    0.0000 S.3     1  LIG1       -0.0761
     16 C           2.4460   -1.2000    0.0000 C.3     1  LIG1        0.0774
     17 C           1.8420   -0.4040    0.0000 C.3     1  LIG1        0.1203
     18 C           3.4250   -1.1670    0.0000 C.3     1  LIG1        0.0141
@<TRIPOS>BOND
     1     1     2   ar
     2     1     6   ar
     3     1    17    1
     4     2     3   ar
     5     2    15    1
     6     3     4   ar
     7     4     5   ar
     8     4    14    2
     9     5     6   ar
    10     5    10    1
    11     6     7    1
    12     7     8    1
    13     8     9    1
    14     9    10    1
    15     9    11    1
    16    11    12    1
    17    11    13    1
    18    15    16    1
    19    16    17    1
    20    16    18    1
