@<TRIPOS>MOLECULE
33058_ChemDiv_7656-0871
 28 31 0 0 0
SMALL
GASTEIGER
Energy = 0

@<TRIPOS>ATOM
      1 C           1.1960    0.9040    0.0000 C.ar    1  LIG1        0.1856
      2 N           0.3290    0.4040    0.0000 N.am    1  LIG1       -0.1513
      3 C          -0.5330    0.9040    0.0000 C.2     1  LIG1        0.2879
      4 C          -1.4080    0.4170    0.0000 C.3     1  LIG1        0.2507
      5 O          -1.4080   -0.6000    0.0000 O.3     1  LIG1       -0.4393
      6 C          -2.2830   -1.1000    0.0000 C.2     1  LIG1        0.3412
      7 C          -3.1460   -0.6000    0.0000 C.ar    1  LIG1        0.0715
      8 C          -3.1460    0.4170    0.0000 C.ar    1  LIG1       -0.0118
      9 C          -2.2750    0.9210    0.0000 C.3     1  LIG1        0.0799
     10 C          -4.0080    0.9170    0.0000 C.ar    1  LIG1       -0.0043
     11 C          -4.8710    0.4040    0.0000 C.ar    1  LIG1       -0.0046
     12 C          -4.8710   -0.5920    0.0000 C.ar    1  LIG1       -0.0217
     13 C          -4.0080   -1.0920    0.0000 C.ar    1  LIG1        0.0019
     14 C          -5.7420   -1.0920    0.0000 C.3     1  LIG1        0.0310
     15 O          -2.2830   -2.0960    0.0000 O.2     1  LIG1       -0.2449
     16 O          -0.5330    1.9040    0.0000 O.2     1  LIG1       -0.2690
     17 N           1.2960    1.9000    0.0000 N.ar    1  LIG1       -0.2213
     18 C           2.2710    2.1000    0.0000 C.ar    1  LIG1        0.1034
     19 C           2.7710    1.2330    0.0000 C.ar    1  LIG1        0.0335
     20 S           2.1040    0.4920    0.0000 S.2     1  LIG1       -0.0537
     21 C           3.7540    1.1170    0.0000 C.3     1  LIG1        0.0617
     22 C           4.1630    0.2040    0.0000 C.ar    1  LIG1       -0.0066
     23 C           5.1540    0.1040    0.0000 C.ar    1  LIG1        0.0540
     24 CL          5.7380    0.9170    0.0000 Cl      1  LIG1       -0.0826
     25 C           5.5540   -0.8080    0.0000 C.ar    1  LIG1        0.0111
     26 C           4.9630   -1.6210    0.0000 C.ar    1  LIG1        0.0008
     27 C           3.9670   -1.5080    0.0000 C.ar    1  LIG1       -0.0003
     28 C           3.5710   -0.6000    0.0000 C.ar    1  LIG1       -0.0031
@<TRIPOS>BOND
     1     1     2    1
     2     1    17   ar
     3     1    20   ar
     4     2     3   am
     5     3     4    1
     6     3    16    2
     7     4     5    1
     8     4     9    1
     9     5     6    1
    10     6     7    1
    11     6    15    2
    12     7     8   ar
    13     7    13   ar
    14     8     9    1
    15     8    10   ar
    16    10    11   ar
    17    11    12   ar
    18    12    13   ar
    19    12    14    1
    20    17    18   ar
    21    18    19   ar
    22    19    20   ar
    23    19    21    1
    24    21    22    1
    25    22    23   ar
    26    22    28   ar
    27    23    24    1
    28    23    25   ar
    29    25    26   ar
    30    26    27   ar
    31    27    28   ar
