@<TRIPOS>MOLECULE
33059_ChemDiv_6882-0127
 21 24 0 0 0
SMALL
GASTEIGER
Energy = 0

@<TRIPOS>ATOM
      1 N          -0.8710   -0.9290    0.0000 N.ar    1  LIG1       -0.2494
      2 C          -0.3750   -1.7880    0.0000 C.ar    1  LIG1        0.2264
      3 N          -1.0420   -2.5380    0.0000 N.ar    1  LIG1       -0.2121
      4 C          -1.9420   -2.1330    0.0000 C.ar    1  LIG1        0.1001
      5 C          -1.8420   -1.1420    0.0000 C.ar    1  LIG1        0.0851
      6 C          -2.6540   -0.5630    0.0000 C.ar    1  LIG1        0.0190
      7 C          -3.5580   -0.9830    0.0000 C.ar    1  LIG1        0.0016
      8 C          -3.6540   -1.9710    0.0000 C.ar    1  LIG1        0.0016
      9 C          -2.8500   -2.5540    0.0000 C.ar    1  LIG1        0.0207
     10 N           0.6330   -1.7880    0.0000 N.pl3   1  LIG1       -0.1476
     11 C           1.1290   -0.9290    0.0000 C.3     1  LIG1        0.2657
     12 N           0.6330   -0.0670    0.0000 N.4     1  LIG1        0.4086
     13 C          -0.3750   -0.0670    0.0000 C.3     1  LIG1        0.2623
     14 C           1.1380    0.8040    0.0000 C.3     1  LIG1        0.0919
     15 C           2.1460    0.8040    0.0000 C.3     1  LIG1        0.0514
     16 C           2.6500    1.6670    0.0000 C.3     1  LIG1        0.0055
     17 C           2.1580    2.5420    0.0000 C.3     1  LIG1        0.0004
     18 C           1.1460    2.5580    0.0000 C.3     1  LIG1        0.0059
     19 C           0.6330    1.6790    0.0000 C.3     1  LIG1        0.0569
     20 C           3.6500    1.6670    0.0000 C.3     1  LIG1        0.0002
     21 C           2.6420   -0.0630    0.0000 C.3     1  LIG1        0.0059
@<TRIPOS>BOND
     1     1     2   ar
     2     1     5   ar
     3     1    13    1
     4     2     3   ar
     5     2    10    1
     6     3     4   ar
     7     4     5   ar
     8     4     9   ar
     9     5     6   ar
    10     6     7   ar
    11     7     8   ar
    12     8     9   ar
    13    10    11    1
    14    11    12    1
    15    12    13    1
    16    12    14    1
    17    14    15    1
    18    14    19    1
    19    15    16    1
    20    15    21    1
    21    16    17    1
    22    16    20    1
    23    17    18    1
    24    18    19    1
