@<TRIPOS>MOLECULE
33050_ChemDiv_8017-1124
 27 29 0 0 0
SMALL
GASTEIGER
Energy = 0

@<TRIPOS>ATOM
      1 C           0.4250   -1.7040    0.0000 C.ar    1  LIG1        0.1415
      2 N           1.2920   -1.2290    0.0000 N.ar    1  LIG1       -0.2941
      3 C           2.1710   -1.7040    0.0000 C.ar    1  LIG1        0.1854
      4 N           2.1710   -2.7420    0.0000 N.ar    1  LIG1       -0.1836
      5 C           1.2920   -3.2210    0.0000 C.ar    1  LIG1        0.2852
      6 C           0.4250   -2.7420    0.0000 C.ar    1  LIG1        0.1236
      7 C          -0.4460   -3.2330    0.0000 C.3     1  LIG1        0.1764
      8 N          -1.3130   -2.7250    0.0000 N.4     1  LIG1        0.3982
      9 C          -1.3130   -1.7250    0.0000 C.3     1  LIG1        0.2623
     10 N          -0.4460   -1.2250    0.0000 N.pl3   1  LIG1       -0.1652
     11 C          -2.1880   -3.2330    0.0000 C.3     1  LIG1        0.1416
     12 C          -2.1880   -4.2330    0.0000 C.3     1  LIG1        0.0628
     13 C          -3.0500   -4.7330    0.0000 C.3     1  LIG1        0.0063
     14 O           1.2920   -4.2540    0.0000 O.2     1  LIG1       -0.2652
     15 S           3.0460   -1.2290    0.0000 S.2     1  LIG1       -0.0108
     16 C           1.2920   -0.2420    0.0000 C.3     1  LIG1        0.1138
     17 C           0.4380    0.2630    0.0000 C.3     1  LIG1        0.0510
     18 C           0.4380    1.2630    0.0000 C.ar    1  LIG1       -0.0170
     19 C          -0.4250    1.7540    0.0000 C.ar    1  LIG1        0.0358
     20 C          -0.4250    2.7500    0.0000 C.ar    1  LIG1        0.1721
     21 C           0.4290    3.2540    0.0000 C.ar    1  LIG1        0.1724
     22 C           1.2920    2.7500    0.0000 C.ar    1  LIG1        0.0397
     23 C           1.2920    1.7540    0.0000 C.ar    1  LIG1       -0.0009
     24 O           0.4290    4.2330    0.0000 O.3     1  LIG1       -0.4684
     25 C          -0.4250    4.7330    0.0000 C.3     1  LIG1        0.2526
     26 O          -1.2880    3.2540    0.0000 O.3     1  LIG1       -0.4684
     27 C          -1.2880    4.2330    0.0000 C.3     1  LIG1        0.2526
@<TRIPOS>BOND
     1     1     2   ar
     2     1     6   ar
     3     1    10    1
     4     2     3   ar
     5     2    16    1
     6     3     4   ar
     7     3    15    2
     8     4     5   ar
     9     5     6   ar
    10     5    14    2
    11     6     7    1
    12     7     8    1
    13     8     9    1
    14     8    11    1
    15     9    10    1
    16    11    12    1
    17    12    13    1
    18    16    17    1
    19    17    18    1
    20    18    19   ar
    21    18    23   ar
    22    19    20   ar
    23    20    21   ar
    24    20    26    1
    25    21    22   ar
    26    21    24    1
    27    22    23   ar
    28    24    25    1
    29    26    27    1
