@<TRIPOS>MOLECULE
33057_ChemDiv_6882-0117
 20 23 0 0 0
SMALL
GASTEIGER
Energy = 0

@<TRIPOS>ATOM
      1 N          -0.4670   -1.1500    0.0000 N.ar    1  LIG1       -0.2494
      2 C           0.0330   -2.0080    0.0000 C.ar    1  LIG1        0.2264
      3 N          -0.6460   -2.7580    0.0000 N.ar    1  LIG1       -0.2121
      4 C          -1.5460   -2.3540    0.0000 C.ar    1  LIG1        0.1001
      5 C          -1.4460   -1.3670    0.0000 C.ar    1  LIG1        0.0851
      6 C          -2.2500   -0.7920    0.0000 C.ar    1  LIG1        0.0190
      7 C          -3.1540   -1.2040    0.0000 C.ar    1  LIG1        0.0016
      8 C          -3.2460   -2.1880    0.0000 C.ar    1  LIG1        0.0016
      9 C          -2.4420   -2.7580    0.0000 C.ar    1  LIG1        0.0207
     10 N           1.0330   -2.0080    0.0000 N.pl3   1  LIG1       -0.1476
     11 C           1.5330   -1.1500    0.0000 C.3     1  LIG1        0.2657
     12 N           1.0330   -0.2880    0.0000 N.4     1  LIG1        0.4086
     13 C           0.0330   -0.2880    0.0000 C.3     1  LIG1        0.2623
     14 C           1.5420    0.5920    0.0000 C.3     1  LIG1        0.0921
     15 C           0.9750    1.4170    0.0000 C.3     1  LIG1        0.0569
     16 C           1.2750    2.3830    0.0000 C.3     1  LIG1        0.0059
     17 C           2.2040    2.7630    0.0000 C.3     1  LIG1        0.0002
     18 C           3.0830    2.2540    0.0000 C.3     1  LIG1        0.0002
     19 C           3.2420    1.2630    0.0000 C.3     1  LIG1        0.0059
     20 C           2.5500    0.5170    0.0000 C.3     1  LIG1        0.0569
@<TRIPOS>BOND
     1     1     2   ar
     2     1     5   ar
     3     1    13    1
     4     2     3   ar
     5     2    10    1
     6     3     4   ar
     7     4     5   ar
     8     4     9   ar
     9     5     6   ar
    10     6     7   ar
    11     7     8   ar
    12     8     9   ar
    13    10    11    1
    14    11    12    1
    15    12    13    1
    16    12    14    1
    17    14    15    1
    18    14    20    1
    19    15    16    1
    20    16    17    1
    21    17    18    1
    22    18    19    1
    23    19    20    1
