@<TRIPOS>MOLECULE
33052_ChemDiv_8017-2160
 26 29 0 0 0
SMALL
GASTEIGER
Energy = 0

@<TRIPOS>ATOM
      1 C          -1.1460    1.2080    0.0000 C.ar    1  LIG1        0.1415
      2 N          -2.0580    0.7080    0.0000 N.ar    1  LIG1       -0.2941
      3 C          -2.8830    1.2080    0.0000 C.ar    1  LIG1        0.1854
      4 N          -2.8830    2.2830    0.0000 N.ar    1  LIG1       -0.1836
      5 C          -2.0580    2.6960    0.0000 C.ar    1  LIG1        0.2852
      6 C          -1.1460    2.2830    0.0000 C.ar    1  LIG1        0.1236
      7 C          -0.3210    2.7830    0.0000 C.3     1  LIG1        0.1766
      8 N           0.5920    2.2830    0.0000 N.4     1  LIG1        0.4002
      9 C           0.5920    1.2080    0.0000 C.3     1  LIG1        0.2625
     10 N          -0.3210    0.7080    0.0000 N.pl3   1  LIG1       -0.1652
     11 C           1.4250    2.7830    0.0000 C.3     1  LIG1        0.1714
     12 C           2.2580    2.2960    0.0000 C.3     1  LIG1        0.1718
     13 O           2.3630    1.3330    0.0000 O.3     1  LIG1       -0.3502
     14 C           3.3040    1.1330    0.0000 C.3     1  LIG1        0.1424
     15 C           3.7920    1.9710    0.0000 C.3     1  LIG1        0.0348
     16 C           3.1420    2.6880    0.0000 C.3     1  LIG1        0.0383
     17 O          -2.0580    3.7710    0.0000 O.2     1  LIG1       -0.2652
     18 S          -3.7960    0.7080    0.0000 S.2     1  LIG1       -0.0108
     19 C          -2.0580   -0.2880    0.0000 C.3     1  LIG1        0.1138
     20 C          -1.1960   -0.7790    0.0000 C.3     1  LIG1        0.0509
     21 C          -1.1960   -1.7790    0.0000 C.ar    1  LIG1       -0.0202
     22 C          -2.0580   -2.2750    0.0000 C.ar    1  LIG1       -0.0042
     23 C          -2.0580   -3.2670    0.0000 C.ar    1  LIG1       -0.0003
     24 C          -1.1960   -3.7670    0.0000 C.ar    1  LIG1       -0.0000
     25 C          -0.3330   -3.2670    0.0000 C.ar    1  LIG1       -0.0003
     26 C          -0.3330   -2.2750    0.0000 C.ar    1  LIG1       -0.0042
@<TRIPOS>BOND
     1     1     2   ar
     2     1     6   ar
     3     1    10    1
     4     2     3   ar
     5     2    19    1
     6     3     4   ar
     7     3    18    2
     8     4     5   ar
     9     5     6   ar
    10     5    17    2
    11     6     7    1
    12     7     8    1
    13     8     9    1
    14     8    11    1
    15     9    10    1
    16    11    12    1
    17    12    13    1
    18    12    16    1
    19    13    14    1
    20    14    15    1
    21    15    16    1
    22    19    20    1
    23    20    21    1
    24    21    22   ar
    25    21    26   ar
    26    22    23   ar
    27    23    24   ar
    28    24    25   ar
    29    25    26   ar
