@<TRIPOS>MOLECULE
33051_ChemDiv_8014-1720
 27 30 0 0 0
SMALL
GASTEIGER
Energy = 0

@<TRIPOS>ATOM
      1 C          -0.7830   -0.9040    0.0000 C.3     1  LIG1        0.1956
      2 C          -0.7830    0.0460    0.0000 C.3     1  LIG1        0.1553
      3 C           0.8670    0.0460    0.0000 C.3     1  LIG1        0.1486
      4 C           0.8670    0.9960    0.0000 C.2     1  LIG1        0.2374
      5 N           0.0630    1.4830    0.0000 N.am    1  LIG1       -0.2312
      6 C          -0.7830    0.9960    0.0000 C.2     1  LIG1        0.2380
      7 O          -1.6170    1.4830    0.0000 O.2     1  LIG1       -0.2742
      8 C           0.0630    2.4130    0.0000 C.3     1  LIG1        0.0825
      9 C          -0.7540    2.8920    0.0000 C.3     1  LIG1        0.0220
     10 C           0.8670    2.8920    0.0000 C.3     1  LIG1        0.0220
     11 O           1.7000    1.4830    0.0000 O.2     1  LIG1       -0.2742
     12 C           0.8670   -0.9040    0.0000 C.3     1  LIG1        0.1542
     13 N           0.0330   -1.3830    0.0000 N.4     1  LIG1        0.4449
     14 C           1.7000   -1.3830    0.0000 C.3     1  LIG1        0.0747
     15 C           2.5330   -0.9040    0.0000 C.3     1  LIG1        0.0637
     16 S           3.3580   -1.3830    0.0000 S.3     1  LIG1       -0.1391
     17 C           4.2130   -0.9040    0.0000 C.3     1  LIG1        0.0692
     18 C          -1.0330   -1.8250    0.0000 C.2     1  LIG1        0.2849
     19 N          -1.9540   -2.0750    0.0000 N.am    1  LIG1       -0.2521
     20 C          -2.6290   -1.3960    0.0000 C.ar    1  LIG1        0.0558
     21 C          -2.3790   -0.4790    0.0000 C.ar    1  LIG1        0.0507
     22 C          -3.0500    0.1920    0.0000 C.ar    1  LIG1        0.0030
     23 C          -3.9710   -0.0540    0.0000 C.ar    1  LIG1       -0.0000
     24 C          -4.2170   -0.9790    0.0000 C.ar    1  LIG1        0.0013
     25 C          -3.5460   -1.6460    0.0000 C.ar    1  LIG1        0.0148
     26 C          -2.4210   -2.8880    0.0000 C.3     1  LIG1        0.1202
     27 O          -0.5540   -2.6580    0.0000 O.2     1  LIG1       -0.2680
@<TRIPOS>BOND
     1     1     2    1
     2     1    13    1
     3     1    18    1
     4     1    21    1
     5     2     3    1
     6     2     6    1
     7     3     4    1
     8     3    12    1
     9     4     5   am
    10     4    11    2
    11     5     6   am
    12     5     8    1
    13     6     7    2
    14     8     9    1
    15     8    10    1
    16    12    13    1
    17    12    14    1
    18    14    15    1
    19    15    16    1
    20    16    17    1
    21    18    19   am
    22    18    27    2
    23    19    20    1
    24    19    26    1
    25    20    21   ar
    26    20    25   ar
    27    21    22   ar
    28    22    23   ar
    29    23    24   ar
    30    24    25   ar
