@<TRIPOS>MOLECULE
33056_ChemDiv_8213-0024
 26 29 0 0 0
SMALL
GASTEIGER
Energy = 0

@<TRIPOS>ATOM
      1 C          -1.3290    0.4170    0.0000 C.ar    1  LIG1        0.1453
      2 N          -2.2330   -0.0750    0.0000 N.ar    1  LIG1       -0.2734
      3 C          -3.0540    0.4170    0.0000 C.ar    1  LIG1        0.1893
      4 N          -3.0540    1.4790    0.0000 N.ar    1  LIG1       -0.1833
      5 C          -2.2330    1.8920    0.0000 C.ar    1  LIG1        0.2852
      6 C          -1.3290    1.4790    0.0000 C.ar    1  LIG1        0.1240
      7 C          -0.5170    1.9790    0.0000 C.3     1  LIG1        0.1769
      8 N           0.3960    1.4790    0.0000 N.4     1  LIG1        0.4017
      9 C           0.3960    0.4170    0.0000 C.3     1  LIG1        0.2628
     10 N          -0.5170   -0.0750    0.0000 N.pl3   1  LIG1       -0.1648
     11 C           1.2830    1.9920    0.0000 C.3     1  LIG1        0.1692
     12 C           2.1750    1.4790    0.0000 C.ar    1  LIG1        0.0345
     13 C           3.0630    1.9920    0.0000 C.ar    1  LIG1        0.0014
     14 C           3.9500    1.4790    0.0000 C.ar    1  LIG1       -0.0001
     15 C           3.9500    0.4540    0.0000 C.ar    1  LIG1       -0.0000
     16 C           3.0630   -0.0630    0.0000 C.ar    1  LIG1       -0.0001
     17 C           2.1750    0.4540    0.0000 C.ar    1  LIG1        0.0014
     18 O          -2.2330    2.9540    0.0000 O.2     1  LIG1       -0.2652
     19 S          -3.9540   -0.0750    0.0000 S.2     1  LIG1       -0.0105
     20 C          -2.2330   -1.0380    0.0000 C.ar    1  LIG1        0.0630
     21 C          -1.4040   -1.5130    0.0000 C.ar    1  LIG1       -0.0056
     22 C          -0.5790   -1.0380    0.0000 C.3     1  LIG1        0.0326
     23 C          -1.4040   -2.4710    0.0000 C.ar    1  LIG1       -0.0028
     24 C          -2.2330   -2.9500    0.0000 C.ar    1  LIG1       -0.0002
     25 C          -3.0580   -2.4710    0.0000 C.ar    1  LIG1        0.0015
     26 C          -3.0580   -1.5130    0.0000 C.ar    1  LIG1        0.0173
@<TRIPOS>BOND
     1     1     2   ar
     2     1     6   ar
     3     1    10    1
     4     2     3   ar
     5     2    20    1
     6     3     4   ar
     7     3    19    2
     8     4     5   ar
     9     5     6   ar
    10     5    18    2
    11     6     7    1
    12     7     8    1
    13     8     9    1
    14     8    11    1
    15     9    10    1
    16    11    12    1
    17    12    13   ar
    18    12    17   ar
    19    13    14   ar
    20    14    15   ar
    21    15    16   ar
    22    16    17   ar
    23    20    21   ar
    24    20    26   ar
    25    21    22    1
    26    21    23   ar
    27    23    24   ar
    28    24    25   ar
    29    25    26   ar
