@<TRIPOS>MOLECULE
33066_ChemDiv_D001-0041
 20 22 0 0 0
SMALL
GASTEIGER
Energy = 0

@<TRIPOS>ATOM
      1 C          -0.3460    0.8170    0.0000 C.3     1  LIG1        0.2097
      2 O          -0.3460   -0.1830    0.0000 O.3     1  LIG1       -0.4434
      3 C          -1.2250   -0.6880    0.0000 C.2     1  LIG1        0.3411
      4 C          -2.0880   -0.1830    0.0000 C.ar    1  LIG1        0.0718
      5 C          -2.0830    0.8170    0.0000 C.ar    1  LIG1       -0.0119
      6 C          -1.2210    1.3290    0.0000 C.3     1  LIG1        0.0757
      7 C          -2.9540    1.3170    0.0000 C.ar    1  LIG1       -0.0039
      8 C          -3.8170    0.8170    0.0000 C.ar    1  LIG1       -0.0003
      9 C          -3.8170   -0.1830    0.0000 C.ar    1  LIG1        0.0002
     10 C          -2.9540   -0.6830    0.0000 C.ar    1  LIG1        0.0061
     11 O          -1.2250   -1.6830    0.0000 O.2     1  LIG1       -0.2449
     12 C           0.5130    0.3210    0.0000 C.2     1  LIG1        0.2839
     13 N           1.3750    0.8170    0.0000 N.am    1  LIG1       -0.1514
     14 C           2.2380    0.3210    0.0000 C.ar    1  LIG1        0.1859
     15 N           2.3420   -0.6880    0.0000 N.ar    1  LIG1       -0.2209
     16 C           3.3080   -0.8920    0.0000 C.ar    1  LIG1        0.1079
     17 C           3.8130   -0.0250    0.0000 C.ar    1  LIG1        0.0588
     18 S           3.1420    0.7250    0.0000 S.2     1  LIG1       -0.0491
     19 O           0.5080   -0.6790    0.0000 O.2     1  LIG1       -0.2692
     20 C           0.1460    1.6880    0.0000 C.3     1  LIG1        0.0537
@<TRIPOS>BOND
     1     1     2    1
     2     1     6    1
     3     1    12    1
     4     1    20    1
     5     2     3    1
     6     3     4    1
     7     3    11    2
     8     4     5   ar
     9     4    10   ar
    10     5     6    1
    11     5     7   ar
    12     7     8   ar
    13     8     9   ar
    14     9    10   ar
    15    12    13   am
    16    12    19    2
    17    13    14    1
    18    14    15   ar
    19    14    18   ar
    20    15    16   ar
    21    16    17   ar
    22    17    18   ar
