@<TRIPOS>MOLECULE
33065_ChemDiv_6882-0131
 20 23 0 0 0
SMALL
GASTEIGER
Energy = 0

@<TRIPOS>ATOM
      1 N          -0.1040   -0.9130    0.0000 N.ar    1  LIG1       -0.2478
      2 C           0.3960   -1.7790    0.0000 C.ar    1  LIG1        0.3043
      3 N           1.3960   -1.7790    0.0000 N.pl3   1  LIG1        0.0028
      4 C           1.8960   -0.9130    0.0000 C.cat   1  LIG1        0.4821
      5 N           1.3960   -0.0460    0.0000 N.2     1  LIG1       -0.0674
      6 C           0.3960   -0.0460    0.0000 C.3     1  LIG1        0.2953
      7 C          -0.1040    0.8210    0.0000 C.ar    1  LIG1        0.0396
      8 C           0.3960    1.6830    0.0000 C.ar    1  LIG1        0.0010
      9 C          -0.1040    2.5460    0.0000 C.ar    1  LIG1       -0.0001
     10 C          -1.1040    2.5460    0.0000 C.ar    1  LIG1       -0.0000
     11 C          -1.6040    1.6830    0.0000 C.ar    1  LIG1       -0.0001
     12 C          -1.0960    0.8210    0.0000 C.ar    1  LIG1        0.0010
     13 N           2.9000   -0.9130    0.0000 N.pl3   1  LIG1        0.1473
     14 N          -0.2830   -2.5250    0.0000 N.ar    1  LIG1       -0.1968
     15 C          -1.1790   -2.1250    0.0000 C.ar    1  LIG1        0.1015
     16 C          -1.0880   -1.1250    0.0000 C.ar    1  LIG1        0.0846
     17 C          -1.9040   -0.5460    0.0000 C.ar    1  LIG1        0.0189
     18 C          -2.8210   -0.9630    0.0000 C.ar    1  LIG1        0.0016
     19 C          -2.9040   -1.9580    0.0000 C.ar    1  LIG1        0.0016
     20 C          -2.0880   -2.5420    0.0000 C.ar    1  LIG1        0.0207
@<TRIPOS>BOND
     1     1     2   ar
     2     1     6    1
     3     1    16   ar
     4     2     3    1
     5     2    14   ar
     6     3     4    1
     7     4     5    2
     8     4    13    1
     9     5     6    1
    10     6     7    1
    11     7     8   ar
    12     7    12   ar
    13     8     9   ar
    14     9    10   ar
    15    10    11   ar
    16    11    12   ar
    17    14    15   ar
    18    15    16   ar
    19    15    20   ar
    20    16    17   ar
    21    17    18   ar
    22    18    19   ar
    23    19    20   ar
