@<TRIPOS>MOLECULE
33069_ChemDiv_7567-0297
 21 24 0 0 0
SMALL
GASTEIGER
Energy = 0

@<TRIPOS>ATOM
      1 N          -0.1460   -1.1290    0.0000 N.ar    1  LIG1       -0.2478
      2 C           0.5630   -1.8420    0.0000 C.ar    1  LIG1        0.3043
      3 N           1.5250   -1.5830    0.0000 N.pl3   1  LIG1        0.0028
      4 C           1.7830   -0.6080    0.0000 C.cat   1  LIG1        0.4821
      5 N           1.0920    0.0830    0.0000 N.2     1  LIG1       -0.0674
      6 C           0.1130   -0.1710    0.0000 C.3     1  LIG1        0.2953
      7 C          -0.5920    0.5420    0.0000 C.ar    1  LIG1        0.0404
      8 C          -0.3290    1.5130    0.0000 C.ar    1  LIG1        0.0124
      9 C          -1.0250    2.2170    0.0000 C.ar    1  LIG1        0.0575
     10 CL         -0.7670    3.1830    0.0000 Cl      1  LIG1       -0.0823
     11 C          -1.9960    1.9580    0.0000 C.ar    1  LIG1        0.0114
     12 C          -2.2630    0.9880    0.0000 C.ar    1  LIG1        0.0007
     13 C          -1.5580    0.2830    0.0000 C.ar    1  LIG1        0.0011
     14 N           2.7540   -0.3210    0.0000 N.pl3   1  LIG1        0.1473
     15 N           0.1080   -2.7210    0.0000 N.ar    1  LIG1       -0.1968
     16 C          -0.8920   -2.5670    0.0000 C.ar    1  LIG1        0.1015
     17 C          -1.0250   -1.5960    0.0000 C.ar    1  LIG1        0.0846
     18 C          -1.9500   -1.2040    0.0000 C.ar    1  LIG1        0.0189
     19 C          -2.7580   -1.8250    0.0000 C.ar    1  LIG1        0.0016
     20 C          -2.6210   -2.8000    0.0000 C.ar    1  LIG1        0.0016
     21 C          -1.6830   -3.1790    0.0000 C.ar    1  LIG1        0.0207
@<TRIPOS>BOND
     1     1     2   ar
     2     1     6    1
     3     1    17   ar
     4     2     3    1
     5     2    15   ar
     6     3     4    1
     7     4     5    2
     8     4    14    1
     9     5     6    1
    10     6     7    1
    11     7     8   ar
    12     7    13   ar
    13     8     9   ar
    14     9    10    1
    15     9    11   ar
    16    11    12   ar
    17    12    13   ar
    18    15    16   ar
    19    16    17   ar
    20    16    21   ar
    21    17    18   ar
    22    18    19   ar
    23    19    20   ar
    24    20    21   ar
