@<TRIPOS>MOLECULE
33063_ChemDiv_8016-4808
 21 24 0 0 0
SMALL
GASTEIGER
Energy = 0

@<TRIPOS>ATOM
      1 N          -0.6790   -1.6290    0.0000 N.ar    1  LIG1       -0.2494
      2 C           0.0170   -2.3420    0.0000 C.ar    1  LIG1        0.2264
      3 N          -0.4290   -3.2290    0.0000 N.ar    1  LIG1       -0.2121
      4 C          -1.4290   -3.0670    0.0000 C.ar    1  LIG1        0.1001
      5 C          -1.5670   -2.0920    0.0000 C.ar    1  LIG1        0.0851
      6 C          -2.4920   -1.7000    0.0000 C.ar    1  LIG1        0.0190
      7 C          -3.2920   -2.3170    0.0000 C.ar    1  LIG1        0.0016
      8 C          -3.1580   -3.3040    0.0000 C.ar    1  LIG1        0.0016
      9 C          -2.2290   -3.6790    0.0000 C.ar    1  LIG1        0.0207
     10 N           0.9920   -2.0790    0.0000 N.pl3   1  LIG1       -0.1476
     11 C           1.2500   -1.1000    0.0000 C.3     1  LIG1        0.2660
     12 N           0.5540   -0.4040    0.0000 N.4     1  LIG1        0.4132
     13 C          -0.4170   -0.6670    0.0000 C.3     1  LIG1        0.2626
     14 C           0.8170    0.5500    0.0000 C.3     1  LIG1        0.1487
     15 C           1.7920    0.8080    0.0000 C.3     1  LIG1        0.0892
     16 C           2.0540    1.7710    0.0000 C.ar    1  LIG1       -0.0162
     17 C           3.0170    2.0210    0.0000 C.ar    1  LIG1       -0.0041
     18 C           3.2880    2.9830    0.0000 C.ar    1  LIG1       -0.0003
     19 C           2.5790    3.6830    0.0000 C.ar    1  LIG1       -0.0000
     20 C           1.6040    3.4330    0.0000 C.ar    1  LIG1       -0.0003
     21 C           1.3500    2.4710    0.0000 C.ar    1  LIG1       -0.0041
@<TRIPOS>BOND
     1     1     2   ar
     2     1     5   ar
     3     1    13    1
     4     2     3   ar
     5     2    10    1
     6     3     4   ar
     7     4     5   ar
     8     4     9   ar
     9     5     6   ar
    10     6     7   ar
    11     7     8   ar
    12     8     9   ar
    13    10    11    1
    14    11    12    1
    15    12    13    1
    16    12    14    1
    17    14    15    1
    18    15    16    1
    19    16    17   ar
    20    16    21   ar
    21    17    18   ar
    22    18    19   ar
    23    19    20   ar
    24    20    21   ar
