@<TRIPOS>MOLECULE
33061_ChemDiv_6882-0128
 16 18 0 0 0
SMALL
GASTEIGER
Energy = 0

@<TRIPOS>ATOM
      1 N          -0.1210   -0.4880    0.0000 N.ar    1  LIG1       -0.2494
      2 C           0.3790   -1.3500    0.0000 C.ar    1  LIG1        0.2264
      3 N          -0.2920   -2.1040    0.0000 N.ar    1  LIG1       -0.2121
      4 C          -1.1920   -1.7000    0.0000 C.ar    1  LIG1        0.1001
      5 C          -1.0960   -0.7040    0.0000 C.ar    1  LIG1        0.0851
      6 C          -1.9080   -0.1290    0.0000 C.ar    1  LIG1        0.0190
      7 C          -2.8170   -0.5460    0.0000 C.ar    1  LIG1        0.0016
      8 C          -2.9040   -1.5330    0.0000 C.ar    1  LIG1        0.0016
      9 C          -2.1000   -2.1210    0.0000 C.ar    1  LIG1        0.0207
     10 N           1.3830   -1.3500    0.0000 N.pl3   1  LIG1       -0.1476
     11 C           1.8830   -0.4880    0.0000 C.3     1  LIG1        0.2657
     12 N           1.3830    0.3710    0.0000 N.4     1  LIG1        0.4086
     13 C           0.3790    0.3710    0.0000 C.3     1  LIG1        0.2623
     14 C           1.8880    1.2460    0.0000 C.3     1  LIG1        0.0925
     15 C           2.9000    1.2460    0.0000 C.3     1  LIG1        0.0628
     16 C           1.3830    2.1250    0.0000 C.3     1  LIG1        0.0628
@<TRIPOS>BOND
     1     1     2   ar
     2     1     5   ar
     3     1    13    1
     4     2     3   ar
     5     2    10    1
     6     3     4   ar
     7     4     5   ar
     8     4     9   ar
     9     5     6   ar
    10     6     7   ar
    11     7     8   ar
    12     8     9   ar
    13    10    11    1
    14    11    12    1
    15    12    13    1
    16    12    14    1
    17    14    15    1
    18    14    16    1
