@<TRIPOS>MOLECULE
33068_ChemDiv_D001-0043
 28 31 0 0 0
SMALL
GASTEIGER
Energy = 0

@<TRIPOS>ATOM
      1 C           0.6670    0.7080    0.0000 C.ar    1  LIG1        0.1856
      2 N          -0.1960    1.2040    0.0000 N.am    1  LIG1       -0.1514
      3 C          -1.0580    0.7080    0.0000 C.2     1  LIG1        0.2839
      4 C          -1.9170    1.2040    0.0000 C.3     1  LIG1        0.2097
      5 O          -1.9170    0.1960    0.0000 O.3     1  LIG1       -0.4434
      6 C          -2.8000   -0.3040    0.0000 C.2     1  LIG1        0.3411
      7 C          -3.6670    0.1960    0.0000 C.ar    1  LIG1        0.0718
      8 C          -3.6630    1.2040    0.0000 C.ar    1  LIG1       -0.0119
      9 C          -2.7920    1.7130    0.0000 C.3     1  LIG1        0.0757
     10 C          -4.5290    1.7040    0.0000 C.ar    1  LIG1       -0.0039
     11 C          -5.3920    1.2040    0.0000 C.ar    1  LIG1       -0.0003
     12 C          -5.3920    0.2000    0.0000 C.ar    1  LIG1        0.0002
     13 C          -4.5290   -0.3000    0.0000 C.ar    1  LIG1        0.0061
     14 O          -2.8000   -1.3040    0.0000 O.2     1  LIG1       -0.2449
     15 C          -1.4250    2.0750    0.0000 C.3     1  LIG1        0.0537
     16 O          -1.0630   -0.2920    0.0000 O.2     1  LIG1       -0.2692
     17 N           0.7710   -0.3040    0.0000 N.ar    1  LIG1       -0.2213
     18 C           1.7380   -0.5040    0.0000 C.ar    1  LIG1        0.1034
     19 C           2.2420    0.3580    0.0000 C.ar    1  LIG1        0.0334
     20 S           1.5750    1.1080    0.0000 S.2     1  LIG1       -0.0537
     21 C           3.2330    0.4580    0.0000 C.3     1  LIG1        0.0606
     22 C           3.8130   -0.3540    0.0000 C.ar    1  LIG1       -0.0211
     23 C           4.8040   -0.2540    0.0000 C.ar    1  LIG1       -0.0255
     24 C           5.2080    0.6580    0.0000 C.3     1  LIG1        0.0307
     25 C           5.3880   -1.0580    0.0000 C.ar    1  LIG1       -0.0046
     26 C           4.9750   -1.9750    0.0000 C.ar    1  LIG1       -0.0003
     27 C           3.9830   -2.0710    0.0000 C.ar    1  LIG1       -0.0003
     28 C           3.4000   -1.2580    0.0000 C.ar    1  LIG1       -0.0042
@<TRIPOS>BOND
     1     1     2    1
     2     1    17   ar
     3     1    20   ar
     4     2     3   am
     5     3     4    1
     6     3    16    2
     7     4     5    1
     8     4     9    1
     9     4    15    1
    10     5     6    1
    11     6     7    1
    12     6    14    2
    13     7     8   ar
    14     7    13   ar
    15     8     9    1
    16     8    10   ar
    17    10    11   ar
    18    11    12   ar
    19    12    13   ar
    20    17    18   ar
    21    18    19   ar
    22    19    20   ar
    23    19    21    1
    24    21    22    1
    25    22    23   ar
    26    22    28   ar
    27    23    24    1
    28    23    25   ar
    29    25    26   ar
    30    26    27   ar
    31    27    28   ar
