@<TRIPOS>MOLECULE
33067_ChemDiv_7509-0051
 21 24 0 0 0
SMALL
GASTEIGER
Energy = 0

@<TRIPOS>ATOM
      1 N          -0.1580   -1.2130    0.0000 N.ar    1  LIG1       -0.2479
      2 C           0.4210   -2.0290    0.0000 C.ar    1  LIG1        0.3147
      3 N           1.4170   -1.9210    0.0000 N.2     1  LIG1       -0.0293
      4 C           1.8290   -1.0130    0.0000 C.cat   1  LIG1        0.4822
      5 N           1.2380   -0.1960    0.0000 N.pl3   1  LIG1       -0.0348
      6 C           0.2420   -0.3040    0.0000 C.3     1  LIG1        0.2850
      7 C          -0.2580    0.5670    0.0000 C.ar    1  LIG1        0.0380
      8 C           0.2420    1.4380    0.0000 C.ar    1  LIG1        0.0122
      9 C          -0.2630    2.3040    0.0000 C.ar    1  LIG1        0.0575
     10 CL          0.4380    3.0170    0.0000 Cl      1  LIG1       -0.0823
     11 C          -1.2750    2.3040    0.0000 C.ar    1  LIG1        0.0114
     12 C          -1.7710    1.4210    0.0000 C.ar    1  LIG1        0.0007
     13 C          -1.2630    0.5580    0.0000 C.ar    1  LIG1        0.0009
     14 N           2.8290   -1.0130    0.0000 N.pl3   1  LIG1        0.1473
     15 N          -0.1670   -2.8290    0.0000 N.ar    1  LIG1       -0.1947
     16 C          -1.1210   -2.5250    0.0000 C.ar    1  LIG1        0.1017
     17 C          -1.1130   -1.5250    0.0000 C.ar    1  LIG1        0.0846
     18 C          -1.9710   -1.0250    0.0000 C.ar    1  LIG1        0.0189
     19 C          -2.8330   -1.5130    0.0000 C.ar    1  LIG1        0.0016
     20 C          -2.8330   -2.5130    0.0000 C.ar    1  LIG1        0.0016
     21 C          -1.9750   -3.0130    0.0000 C.ar    1  LIG1        0.0207
@<TRIPOS>BOND
     1     1     2   ar
     2     1     6    1
     3     1    17   ar
     4     2     3    1
     5     2    15   ar
     6     3     4    2
     7     4     5    1
     8     4    14    1
     9     5     6    1
    10     6     7    1
    11     7     8   ar
    12     7    13   ar
    13     8     9   ar
    14     9    10    1
    15     9    11   ar
    16    11    12   ar
    17    12    13   ar
    18    15    16   ar
    19    16    17   ar
    20    16    21   ar
    21    17    18   ar
    22    18    19   ar
    23    19    20   ar
    24    20    21   ar
