@<TRIPOS>MOLECULE
33064_ChemDiv_7656-0898
 29 32 0 0 0
SMALL
GASTEIGER
Energy = 0

@<TRIPOS>ATOM
      1 C           1.2880    1.5250    0.0000 C.ar    1  LIG1        0.1856
      2 N           0.4210    1.0250    0.0000 N.am    1  LIG1       -0.1513
      3 C          -0.4460    1.5250    0.0000 C.2     1  LIG1        0.2879
      4 C          -1.3170    1.0380    0.0000 C.3     1  LIG1        0.2507
      5 O          -1.3170    0.0210    0.0000 O.3     1  LIG1       -0.4393
      6 C          -2.1960   -0.4790    0.0000 C.2     1  LIG1        0.3412
      7 C          -3.0580    0.0210    0.0000 C.ar    1  LIG1        0.0715
      8 C          -3.0580    1.0380    0.0000 C.ar    1  LIG1       -0.0118
      9 C          -2.1830    1.5420    0.0000 C.3     1  LIG1        0.0799
     10 C          -3.9210    1.5380    0.0000 C.ar    1  LIG1       -0.0043
     11 C          -4.7830    1.0250    0.0000 C.ar    1  LIG1       -0.0046
     12 C          -4.7830    0.0290    0.0000 C.ar    1  LIG1       -0.0217
     13 C          -3.9210   -0.4710    0.0000 C.ar    1  LIG1        0.0019
     14 C          -5.6500   -0.4710    0.0000 C.3     1  LIG1        0.0310
     15 O          -2.1960   -1.4750    0.0000 O.2     1  LIG1       -0.2449
     16 O          -0.4460    2.5250    0.0000 O.2     1  LIG1       -0.2690
     17 N           1.3880    2.5210    0.0000 N.ar    1  LIG1       -0.2213
     18 C           2.3630    2.7210    0.0000 C.ar    1  LIG1        0.1034
     19 C           2.8630    1.8540    0.0000 C.ar    1  LIG1        0.0334
     20 S           2.1960    1.1130    0.0000 S.2     1  LIG1       -0.0537
     21 C           3.8460    1.7380    0.0000 C.3     1  LIG1        0.0609
     22 C           4.2540    0.8250    0.0000 C.ar    1  LIG1       -0.0172
     23 C           3.6630    0.0210    0.0000 C.ar    1  LIG1       -0.0042
     24 C           4.0580   -0.8880    0.0000 C.ar    1  LIG1       -0.0046
     25 C           5.0540   -1.0040    0.0000 C.ar    1  LIG1       -0.0222
     26 C           5.6460   -0.1920    0.0000 C.ar    1  LIG1       -0.0046
     27 C           5.2460    0.7250    0.0000 C.ar    1  LIG1       -0.0042
     28 C           5.4580   -1.9170    0.0000 C.3     1  LIG1        0.0264
     29 C           4.8710   -2.7170    0.0000 C.3     1  LIG1        0.0050
@<TRIPOS>BOND
     1     1     2    1
     2     1    17   ar
     3     1    20   ar
     4     2     3   am
     5     3     4    1
     6     3    16    2
     7     4     5    1
     8     4     9    1
     9     5     6    1
    10     6     7    1
    11     6    15    2
    12     7     8   ar
    13     7    13   ar
    14     8     9    1
    15     8    10   ar
    16    10    11   ar
    17    11    12   ar
    18    12    13   ar
    19    12    14    1
    20    17    18   ar
    21    18    19   ar
    22    19    20   ar
    23    19    21    1
    24    21    22    1
    25    22    23   ar
    26    22    27   ar
    27    23    24   ar
    28    24    25   ar
    29    25    26   ar
    30    25    28    1
    31    26    27   ar
    32    28    29    1
