@<TRIPOS>MOLECULE
33071_ChemDiv_7567-0308
 23 26 0 0 0
SMALL
GASTEIGER
Energy = 0

@<TRIPOS>ATOM
      1 N           0.3130   -1.3630    0.0000 N.ar    1  LIG1       -0.2478
      2 C           1.0170   -2.0710    0.0000 C.ar    1  LIG1        0.3043
      3 N           1.9710   -1.8130    0.0000 N.pl3   1  LIG1        0.0028
      4 C           2.2420   -0.8290    0.0000 C.cat   1  LIG1        0.4821
      5 N           1.5500   -0.1420    0.0000 N.2     1  LIG1       -0.0674
      6 C           0.5710   -0.4000    0.0000 C.3     1  LIG1        0.2953
      7 C          -0.1380    0.3130    0.0000 C.ar    1  LIG1        0.0395
      8 C           0.1330    1.2790    0.0000 C.ar    1  LIG1        0.0007
      9 C          -0.5750    1.9920    0.0000 C.ar    1  LIG1       -0.0044
     10 C          -1.5460    1.7330    0.0000 C.ar    1  LIG1       -0.0225
     11 C          -1.8040    0.7630    0.0000 C.ar    1  LIG1       -0.0044
     12 C          -1.0960    0.0540    0.0000 C.ar    1  LIG1        0.0007
     13 C          -2.2500    2.4460    0.0000 C.3     1  LIG1        0.0224
     14 C          -1.9880    3.4080    0.0000 C.3     1  LIG1        0.0047
     15 C          -3.2170    2.1880    0.0000 C.3     1  LIG1        0.0047
     16 N           3.2130   -0.5420    0.0000 N.pl3   1  LIG1        0.1473
     17 N           0.5630   -2.9540    0.0000 N.ar    1  LIG1       -0.1968
     18 C          -0.4380   -2.7880    0.0000 C.ar    1  LIG1        0.1015
     19 C          -0.5750   -1.8170    0.0000 C.ar    1  LIG1        0.0846
     20 C          -1.5000   -1.4380    0.0000 C.ar    1  LIG1        0.0189
     21 C          -2.2960   -2.0540    0.0000 C.ar    1  LIG1        0.0016
     22 C          -2.1580   -3.0290    0.0000 C.ar    1  LIG1        0.0016
     23 C          -1.2290   -3.4040    0.0000 C.ar    1  LIG1        0.0207
@<TRIPOS>BOND
     1     1     2   ar
     2     1     6    1
     3     1    19   ar
     4     2     3    1
     5     2    17   ar
     6     3     4    1
     7     4     5    2
     8     4    16    1
     9     5     6    1
    10     6     7    1
    11     7     8   ar
    12     7    12   ar
    13     8     9   ar
    14     9    10   ar
    15    10    11   ar
    16    10    13    1
    17    11    12   ar
    18    13    14    1
    19    13    15    1
    20    17    18   ar
    21    18    19   ar
    22    18    23   ar
    23    19    20   ar
    24    20    21   ar
    25    21    22   ar
    26    22    23   ar
