@<TRIPOS>MOLECULE
33075_ChemDiv_8015-3049
 30 34 0 0 0
SMALL
GASTEIGER
Energy = 0

@<TRIPOS>ATOM
      1 C           3.1580    0.1380    0.0000 C.3     1  LIG1        0.1972
      2 C           2.2080    0.4460    0.0000 C.3     1  LIG1        0.1557
      3 C           2.2080    1.4500    0.0000 C.3     1  LIG1        0.1490
      4 C           1.2540    1.7540    0.0000 C.2     1  LIG1        0.2412
      5 N           0.6710    0.9460    0.0000 N.am    1  LIG1       -0.2078
      6 C           1.2540    0.1380    0.0000 C.2     1  LIG1        0.2419
      7 O           1.0500   -0.8380    0.0000 O.2     1  LIG1       -0.2739
      8 C          -0.3330    0.9460    0.0000 C.ar    1  LIG1        0.0607
      9 C          -0.8330    1.8130    0.0000 C.ar    1  LIG1        0.0167
     10 C          -1.8330    1.8130    0.0000 C.ar    1  LIG1        0.0179
     11 C          -2.3290    0.9460    0.0000 C.ar    1  LIG1        0.0734
     12 N          -3.3250    0.9460    0.0000 N.am    1  LIG1       -0.1792
     13 C          -3.8290    0.0790    0.0000 C.2     1  LIG1        0.2461
     14 O          -4.8250    0.0790    0.0000 O.2     1  LIG1       -0.2730
     15 C          -3.3250   -0.7830    0.0000 C.3     1  LIG1        0.0968
     16 C          -1.8330    0.0790    0.0000 C.ar    1  LIG1        0.0179
     17 C          -0.8330    0.0790    0.0000 C.ar    1  LIG1        0.0167
     18 O           0.9460    2.7080    0.0000 O.2     1  LIG1       -0.2739
     19 C           3.1580    1.7540    0.0000 C.3     1  LIG1        0.1535
     20 N           3.7460    0.9460    0.0000 N.4     1  LIG1        0.4450
     21 C           3.3630    2.7380    0.0000 C.3     1  LIG1        0.0692
     22 C           4.1500    0.0290    0.0000 C.2     1  LIG1        0.3011
     23 N           4.3630   -0.9460    0.0000 N.am    1  LIG1       -0.1742
     24 C           3.4920   -1.4460    0.0000 C.ar    1  LIG1        0.0754
     25 C           2.7500   -0.7750    0.0000 C.ar    1  LIG1        0.0524
     26 C           1.8000   -1.0830    0.0000 C.ar    1  LIG1        0.0030
     27 C           1.5920   -2.0630    0.0000 C.ar    1  LIG1       -0.0000
     28 C           2.3330   -2.7330    0.0000 C.ar    1  LIG1        0.0013
     29 C           3.2880   -2.4250    0.0000 C.ar    1  LIG1        0.0165
     30 O           4.8210    0.7790    0.0000 O.2     1  LIG1       -0.2664
@<TRIPOS>BOND
     1     1     2    1
     2     1    20    1
     3     1    22    1
     4     1    25    1
     5     2     3    1
     6     2     6    1
     7     3     4    1
     8     3    19    1
     9     4     5   am
    10     4    18    2
    11     5     6   am
    12     5     8    1
    13     6     7    2
    14     8     9   ar
    15     8    17   ar
    16     9    10   ar
    17    10    11   ar
    18    11    12    1
    19    11    16   ar
    20    12    13   am
    21    13    14    2
    22    13    15    1
    23    16    17   ar
    24    19    20    1
    25    19    21    1
    26    22    23   am
    27    22    30    2
    28    23    24    1
    29    24    25   ar
    30    24    29   ar
    31    25    26   ar
    32    26    27   ar
    33    27    28   ar
    34    28    29   ar
