@<TRIPOS>MOLECULE
33077_ChemDiv_8015-3068
 33 38 0 0 0
SMALL
GASTEIGER
Energy = 0

@<TRIPOS>ATOM
      1 C          -0.4130    0.1960    0.0000 C.3     1  LIG1        0.1957
      2 C           0.5380    0.5080    0.0000 C.3     1  LIG1        0.1556
      3 C           0.5380    1.5080    0.0000 C.3     1  LIG1        0.1490
      4 C           1.4920    1.8170    0.0000 C.2     1  LIG1        0.2412
      5 N           2.0790    1.0080    0.0000 N.am    1  LIG1       -0.2078
      6 C           1.4920    0.1960    0.0000 C.2     1  LIG1        0.2419
      7 O           1.9920   -0.6710    0.0000 O.2     1  LIG1       -0.2739
      8 C           3.0790    1.0080    0.0000 C.ar    1  LIG1        0.0606
      9 C           3.5830    0.1380    0.0000 C.ar    1  LIG1        0.0153
     10 C           4.5830    0.1380    0.0000 C.ar    1  LIG1        0.0013
     11 C           5.0880    1.0080    0.0000 C.ar    1  LIG1        0.0001
     12 C           4.5830    1.8710    0.0000 C.ar    1  LIG1        0.0013
     13 C           3.5830    1.8710    0.0000 C.ar    1  LIG1        0.0153
     14 O           1.9920    2.6790    0.0000 O.2     1  LIG1       -0.2739
     15 C          -0.4130    1.8170    0.0000 C.3     1  LIG1        0.1535
     16 N          -1.0000    1.0080    0.0000 N.4     1  LIG1        0.4449
     17 C          -0.9130    2.6790    0.0000 C.3     1  LIG1        0.0692
     18 C          -1.4080    0.0920    0.0000 C.2     1  LIG1        0.2852
     19 N          -1.6130   -0.8880    0.0000 N.am    1  LIG1       -0.2496
     20 C          -0.7500   -1.3880    0.0000 C.ar    1  LIG1        0.0561
     21 C          -0.0040   -0.7170    0.0000 C.ar    1  LIG1        0.0508
     22 C           0.9420   -1.0290    0.0000 C.ar    1  LIG1        0.0030
     23 C           1.1500   -2.0080    0.0000 C.ar    1  LIG1       -0.0000
     24 C           0.4130   -2.6750    0.0000 C.ar    1  LIG1        0.0013
     25 C          -0.5420   -2.3670    0.0000 C.ar    1  LIG1        0.0148
     26 C          -2.4830   -1.3880    0.0000 C.3     1  LIG1        0.1249
     27 C          -3.3540   -0.8880    0.0000 C.ar    1  LIG1       -0.0020
     28 C          -3.3540    0.1130    0.0000 C.ar    1  LIG1       -0.0026
     29 C          -4.2210    0.6170    0.0000 C.ar    1  LIG1       -0.0003
     30 C          -5.0920    0.1130    0.0000 C.ar    1  LIG1       -0.0000
     31 C          -5.0880   -0.8880    0.0000 C.ar    1  LIG1       -0.0003
     32 C          -4.2210   -1.3880    0.0000 C.ar    1  LIG1       -0.0026
     33 O          -2.0290    0.8250    0.0000 O.2     1  LIG1       -0.2680
@<TRIPOS>BOND
     1     1     2    1
     2     1    16    1
     3     1    18    1
     4     1    21    1
     5     2     3    1
     6     2     6    1
     7     3     4    1
     8     3    15    1
     9     4     5   am
    10     4    14    2
    11     5     6   am
    12     5     8    1
    13     6     7    2
    14     8     9   ar
    15     8    13   ar
    16     9    10   ar
    17    10    11   ar
    18    11    12   ar
    19    12    13   ar
    20    15    16    1
    21    15    17    1
    22    18    19   am
    23    18    33    2
    24    19    20    1
    25    19    26    1
    26    20    21   ar
    27    20    25   ar
    28    21    22   ar
    29    22    23   ar
    30    23    24   ar
    31    24    25   ar
    32    26    27    1
    33    27    28   ar
    34    27    32   ar
    35    28    29   ar
    36    29    30   ar
    37    30    31   ar
    38    31    32   ar
