@<TRIPOS>MOLECULE
33072_ChemDiv_D001-0049
 28 31 0 0 0
SMALL
GASTEIGER
Energy = 0

@<TRIPOS>ATOM
      1 C           0.6210    1.0880    0.0000 C.ar    1  LIG1        0.1856
      2 N          -0.2380    1.5880    0.0000 N.am    1  LIG1       -0.1514
      3 C          -1.1000    1.0880    0.0000 C.2     1  LIG1        0.2839
      4 C          -1.9670    1.5880    0.0000 C.3     1  LIG1        0.2097
      5 O          -1.9670    0.5790    0.0000 O.3     1  LIG1       -0.4434
      6 C          -2.8460    0.0790    0.0000 C.2     1  LIG1        0.3411
      7 C          -3.7130    0.5790    0.0000 C.ar    1  LIG1        0.0718
      8 C          -3.7040    1.5880    0.0000 C.ar    1  LIG1       -0.0119
      9 C          -2.8420    2.0960    0.0000 C.3     1  LIG1        0.0757
     10 C          -4.5750    2.0880    0.0000 C.ar    1  LIG1       -0.0039
     11 C          -5.4380    1.5880    0.0000 C.ar    1  LIG1       -0.0003
     12 C          -5.4380    0.5880    0.0000 C.ar    1  LIG1        0.0002
     13 C          -4.5750    0.0880    0.0000 C.ar    1  LIG1        0.0061
     14 O          -2.8460   -0.9210    0.0000 O.2     1  LIG1       -0.2449
     15 C          -1.4710    2.4580    0.0000 C.3     1  LIG1        0.0537
     16 O          -1.1080    0.0880    0.0000 O.2     1  LIG1       -0.2692
     17 N           0.7250    0.0790    0.0000 N.ar    1  LIG1       -0.2213
     18 C           1.6880   -0.1210    0.0000 C.ar    1  LIG1        0.1034
     19 C           2.1960    0.7380    0.0000 C.ar    1  LIG1        0.0334
     20 S           1.5290    1.4920    0.0000 S.2     1  LIG1       -0.0537
     21 C           3.1880    0.8420    0.0000 C.3     1  LIG1        0.0609
     22 C           3.7710    0.0290    0.0000 C.ar    1  LIG1       -0.0172
     23 C           4.7630    0.1330    0.0000 C.ar    1  LIG1       -0.0034
     24 C           5.3460   -0.6790    0.0000 C.ar    1  LIG1        0.0064
     25 C           4.9330   -1.5920    0.0000 C.ar    1  LIG1        0.0345
     26 BR          5.4330   -2.4540    0.0000 Br      1  LIG1       -0.0490
     27 C           3.9420   -1.6880    0.0000 C.ar    1  LIG1        0.0064
     28 C           3.3580   -0.8790    0.0000 C.ar    1  LIG1       -0.0034
@<TRIPOS>BOND
     1     1     2    1
     2     1    17   ar
     3     1    20   ar
     4     2     3   am
     5     3     4    1
     6     3    16    2
     7     4     5    1
     8     4     9    1
     9     4    15    1
    10     5     6    1
    11     6     7    1
    12     6    14    2
    13     7     8   ar
    14     7    13   ar
    15     8     9    1
    16     8    10   ar
    17    10    11   ar
    18    11    12   ar
    19    12    13   ar
    20    17    18   ar
    21    18    19   ar
    22    19    20   ar
    23    19    21    1
    24    21    22    1
    25    22    23   ar
    26    22    28   ar
    27    23    24   ar
    28    24    25   ar
    29    25    26    1
    30    25    27   ar
    31    27    28   ar
