@<TRIPOS>MOLECULE
33074_ChemDiv_7388-0042
 28 31 0 0 0
SMALL
GASTEIGER
Energy = 0

@<TRIPOS>ATOM
      1 N          -0.9790    3.4250    0.0000 N.am    1  LIG1       -0.1777
      2 C          -0.2330    2.7420    0.0000 C.2     1  LIG1        0.2658
      3 C          -0.2290    2.0630    0.0000 C.3     1  LIG1        0.1793
      4 N          -0.9710    1.3710    0.0000 N.pl3   1  LIG1       -0.2295
      5 C          -1.9670    1.5250    0.0000 C.ar    1  LIG1        0.0670
      6 C          -2.4750    2.4000    0.0000 C.ar    1  LIG1        0.0302
      7 C          -1.9670    3.2750    0.0000 C.ar    1  LIG1        0.0746
      8 C          -2.4670    4.1290    0.0000 C.ar    1  LIG1        0.0166
      9 C          -3.4880    4.1420    0.0000 C.ar    1  LIG1        0.0013
     10 C          -3.9920    3.2750    0.0000 C.ar    1  LIG1        0.0001
     11 C          -3.4790    2.4000    0.0000 C.ar    1  LIG1        0.0025
     12 C          -3.9920    1.5170    0.0000 C.ar    1  LIG1        0.0001
     13 C          -3.4960    0.6580    0.0000 C.ar    1  LIG1        0.0013
     14 C          -2.4670    0.6500    0.0000 C.ar    1  LIG1        0.0161
     15 C           0.7040    1.6630    0.0000 C.3     1  LIG1        0.1181
     16 C           0.8290    0.6670    0.0000 C.2     1  LIG1        0.2478
     17 N           1.7630    0.2670    0.0000 N.am    1  LIG1       -0.1791
     18 C           1.8830   -0.7380    0.0000 C.ar    1  LIG1        0.0736
     19 C           1.0750   -1.3420    0.0000 C.ar    1  LIG1        0.0197
     20 C           1.1960   -2.3500    0.0000 C.ar    1  LIG1        0.0382
     21 C           2.1250   -2.7500    0.0000 C.ar    1  LIG1        0.1386
     22 C           2.9420   -2.1250    0.0000 C.ar    1  LIG1        0.0382
     23 C           2.8080   -1.1290    0.0000 C.ar    1  LIG1        0.0197
     24 O           2.2540   -3.7460    0.0000 O.3     1  LIG1       -0.4755
     25 C           3.1830   -4.1420    0.0000 C.3     1  LIG1        0.2055
     26 C           3.9880   -3.5330    0.0000 C.3     1  LIG1        0.0512
     27 O           0.0170    0.0540    0.0000 O.2     1  LIG1       -0.2729
     28 O           0.6920    3.1580    0.0000 O.2     1  LIG1       -0.2711
@<TRIPOS>BOND
     1     1     2   am
     2     1     7    1
     3     2     3    1
     4     2    28    2
     5     3     4    1
     6     3    15    1
     7     4     5    1
     8     5     6   ar
     9     5    14   ar
    10     6     7   ar
    11     6    11   ar
    12     7     8   ar
    13     8     9   ar
    14     9    10   ar
    15    10    11   ar
    16    11    12   ar
    17    12    13   ar
    18    13    14   ar
    19    15    16    1
    20    16    17   am
    21    16    27    2
    22    17    18    1
    23    18    19   ar
    24    18    23   ar
    25    19    20   ar
    26    20    21   ar
    27    21    22   ar
    28    21    24    1
    29    22    23   ar
    30    24    25    1
    31    25    26    1
