@<TRIPOS>MOLECULE
33091_ChemDiv_8017-0348
 27 30 0 0 0
SMALL
GASTEIGER
Energy = 0

@<TRIPOS>ATOM
      1 N           0.5040   -1.4710    0.0000 N.ar    1  LIG1       -0.2478
      2 C           1.0920   -2.2830    0.0000 C.ar    1  LIG1        0.3043
      3 N           2.0790   -2.1830    0.0000 N.pl3   1  LIG1        0.0028
      4 C           2.4920   -1.2670    0.0000 C.cat   1  LIG1        0.4821
      5 N           1.9040   -0.4580    0.0000 N.2     1  LIG1       -0.0674
      6 C           0.9040   -0.5580    0.0000 C.3     1  LIG1        0.2954
      7 C           0.4000    0.3170    0.0000 C.ar    1  LIG1        0.0428
      8 C          -0.6130    0.3170    0.0000 C.ar    1  LIG1        0.0411
      9 C          -1.1210    1.1920    0.0000 C.ar    1  LIG1        0.1723
     10 C          -0.6130    2.0750    0.0000 C.ar    1  LIG1        0.1729
     11 O          -0.8710    3.0290    0.0000 O.3     1  LIG1       -0.4624
     12 C          -1.8330    3.2880    0.0000 C.3     1  LIG1        0.2930
     13 C          -2.5330    2.5790    0.0000 C.2     1  LIG1        0.3052
     14 O          -3.4960    2.8330    0.0000 O.2     1  LIG1       -0.2676
     15 N          -2.9580    1.7540    0.0000 N.am    1  LIG1       -0.0845
     16 C           0.4040    2.0670    0.0000 C.ar    1  LIG1        0.0399
     17 C           0.9040    1.1920    0.0000 C.ar    1  LIG1        0.0044
     18 O          -2.1130    1.2040    0.0000 O.3     1  LIG1       -0.4684
     19 C          -2.6250    0.3420    0.0000 C.3     1  LIG1        0.2526
     20 N           3.4920   -1.2580    0.0000 N.pl3   1  LIG1        0.1473
     21 N           0.5040   -3.0960    0.0000 N.ar    1  LIG1       -0.1968
     22 C          -0.4500   -2.7920    0.0000 C.ar    1  LIG1        0.1015
     23 C          -0.4500   -1.7830    0.0000 C.ar    1  LIG1        0.0846
     24 C          -1.3130   -1.2830    0.0000 C.ar    1  LIG1        0.0189
     25 C          -2.1750   -1.7830    0.0000 C.ar    1  LIG1        0.0016
     26 C          -2.1750   -2.7830    0.0000 C.ar    1  LIG1        0.0016
     27 C          -1.3130   -3.2830    0.0000 C.ar    1  LIG1        0.0207
@<TRIPOS>BOND
     1     1     2   ar
     2     1     6    1
     3     1    23   ar
     4     2     3    1
     5     2    21   ar
     6     3     4    1
     7     4     5    2
     8     4    20    1
     9     5     6    1
    10     6     7    1
    11     7     8   ar
    12     7    17   ar
    13     8     9   ar
    14     9    10   ar
    15     9    18    1
    16    10    11    1
    17    10    16   ar
    18    11    12    1
    19    12    13    1
    20    13    14    2
    21    13    15   am
    22    16    17   ar
    23    18    19    1
    24    21    22   ar
    25    22    23   ar
    26    22    27   ar
    27    23    24   ar
    28    24    25   ar
    29    25    26   ar
    30    26    27   ar
