@<TRIPOS>MOLECULE
33094_ChemDiv_7656-0905
 28 31 0 0 0
SMALL
GASTEIGER
Energy = 0

@<TRIPOS>ATOM
      1 C           2.1330    0.8830    0.0000 C.ar    1  LIG1        0.1084
      2 C           3.0420    0.4750    0.0000 C.ar    1  LIG1        0.0933
      3 C           3.7080    1.2080    0.0000 C.ar    1  LIG1       -0.0121
      4 C           3.2210    2.0790    0.0000 C.ar    1  LIG1        0.0048
      5 S           2.2420    1.8750    0.0000 S.2     1  LIG1       -0.0749
      6 C           3.8830    2.8210    0.0000 C.3     1  LIG1        0.0330
      7 C           4.8000    2.4130    0.0000 C.3     1  LIG1        0.0099
      8 C           4.6920    1.4210    0.0000 C.3     1  LIG1        0.0272
      9 C           3.2500   -0.5000    0.0000 C.2     1  LIG1        0.3427
     10 O           4.1920   -0.8170    0.0000 O.2     1  LIG1       -0.2448
     11 O           2.5080   -1.1750    0.0000 O.3     1  LIG1       -0.4454
     12 C           2.7080   -2.1500    0.0000 C.3     1  LIG1        0.2089
     13 C           1.9670   -2.8170    0.0000 C.3     1  LIG1        0.0513
     14 N           1.2670    0.3830    0.0000 N.am    1  LIG1       -0.1694
     15 C           0.4040    0.8830    0.0000 C.2     1  LIG1        0.2867
     16 C          -0.4670    0.3920    0.0000 C.3     1  LIG1        0.2506
     17 O          -0.4670   -0.6210    0.0000 O.3     1  LIG1       -0.4393
     18 C          -1.3460   -1.1210    0.0000 C.2     1  LIG1        0.3412
     19 C          -2.2080   -0.6210    0.0000 C.ar    1  LIG1        0.0715
     20 C          -2.2080    0.3920    0.0000 C.ar    1  LIG1       -0.0118
     21 C          -1.3380    0.8960    0.0000 C.3     1  LIG1        0.0799
     22 C          -3.0710    0.8920    0.0000 C.ar    1  LIG1       -0.0043
     23 C          -3.9330    0.3830    0.0000 C.ar    1  LIG1       -0.0046
     24 C          -3.9330   -0.6170    0.0000 C.ar    1  LIG1       -0.0217
     25 C          -3.0710   -1.1170    0.0000 C.ar    1  LIG1        0.0019
     26 C          -4.8040   -1.1170    0.0000 C.3     1  LIG1        0.0310
     27 O          -1.3460   -2.1210    0.0000 O.2     1  LIG1       -0.2449
     28 O           0.4040    1.8830    0.0000 O.2     1  LIG1       -0.2690
@<TRIPOS>BOND
     1     1     2   ar
     2     1     5   ar
     3     1    14    1
     4     2     3   ar
     5     2     9    1
     6     3     4   ar
     7     3     8    1
     8     4     5   ar
     9     4     6    1
    10     6     7    1
    11     7     8    1
    12     9    10    2
    13     9    11    1
    14    11    12    1
    15    12    13    1
    16    14    15   am
    17    15    16    1
    18    15    28    2
    19    16    17    1
    20    16    21    1
    21    17    18    1
    22    18    19    1
    23    18    27    2
    24    19    20   ar
    25    19    25   ar
    26    20    21    1
    27    20    22   ar
    28    22    23   ar
    29    23    24   ar
    30    24    25   ar
    31    24    26    1
