@<TRIPOS>MOLECULE
33092_ChemDiv_D001-0071
 24 27 0 0 0
SMALL
GASTEIGER
Energy = 0

@<TRIPOS>ATOM
      1 C           2.0960    0.1290    0.0000 C.ar    1  LIG1        0.1859
      2 N           2.9040    0.7130    0.0000 N.ar    1  LIG1       -0.2225
      3 C           2.6000    1.6580    0.0000 C.ar    1  LIG1        0.0893
      4 C           1.6040    1.6580    0.0000 C.ar    1  LIG1        0.0498
      5 S           1.2880    0.7130    0.0000 S.2     1  LIG1       -0.0497
      6 C           1.0960    2.5210    0.0000 C.ar    1  LIG1        0.0081
      7 C           1.6040    3.3830    0.0000 C.ar    1  LIG1        0.0006
      8 C           2.6000    3.3830    0.0000 C.ar    1  LIG1        0.0016
      9 C           3.0960    2.5210    0.0000 C.ar    1  LIG1        0.0197
     10 N           2.0960   -0.8710    0.0000 N.am    1  LIG1       -0.1514
     11 C           1.2330   -1.3670    0.0000 C.2     1  LIG1        0.2839
     12 C           0.3710   -0.8710    0.0000 C.3     1  LIG1        0.2097
     13 O           0.3710   -1.8790    0.0000 O.3     1  LIG1       -0.4434
     14 C          -0.5080   -2.3830    0.0000 C.2     1  LIG1        0.3411
     15 C          -1.3750   -1.8790    0.0000 C.ar    1  LIG1        0.0718
     16 C          -1.3710   -0.8710    0.0000 C.ar    1  LIG1       -0.0119
     17 C          -0.5000   -0.3630    0.0000 C.3     1  LIG1        0.0757
     18 C          -2.2380   -0.3710    0.0000 C.ar    1  LIG1       -0.0039
     19 C          -3.1000   -0.8750    0.0000 C.ar    1  LIG1       -0.0003
     20 C          -3.1000   -1.8790    0.0000 C.ar    1  LIG1        0.0002
     21 C          -2.2380   -2.3790    0.0000 C.ar    1  LIG1        0.0061
     22 O          -0.5080   -3.3790    0.0000 O.2     1  LIG1       -0.2449
     23 C           0.8630   -0.0040    0.0000 C.3     1  LIG1        0.0537
     24 O           1.2250   -2.3670    0.0000 O.2     1  LIG1       -0.2692
@<TRIPOS>BOND
     1     1     2   ar
     2     1     5   ar
     3     1    10    1
     4     2     3   ar
     5     3     4   ar
     6     3     9   ar
     7     4     5   ar
     8     4     6   ar
     9     6     7   ar
    10     7     8   ar
    11     8     9   ar
    12    10    11   am
    13    11    12    1
    14    11    24    2
    15    12    13    1
    16    12    17    1
    17    12    23    1
    18    13    14    1
    19    14    15    1
    20    14    22    2
    21    15    16   ar
    22    15    21   ar
    23    16    17    1
    24    16    18   ar
    25    18    19   ar
    26    19    20   ar
    27    20    21   ar
