@<TRIPOS>MOLECULE
33096_ChemDiv_7682-0106
 27 30 0 0 0
SMALL
GASTEIGER
Energy = 0

@<TRIPOS>ATOM
      1 C           0.1630   -4.0040    0.0000 C.ar    1  LIG1        0.2246
      2 N           0.1630   -3.0040    0.0000 N.ar    1  LIG1       -0.2909
      3 C           1.0290   -2.5040    0.0000 C.3     1  LIG1        0.1753
      4 C           1.0290   -1.5040    0.0000 C.2     1  LIG1        0.2668
      5 N           0.1630   -1.0040    0.0000 N.am    1  LIG1       -0.1776
      6 C           0.1630    0.0080    0.0000 C.ar    1  LIG1        0.0735
      7 C          -0.7040    0.5080    0.0000 C.ar    1  LIG1        0.0179
      8 C          -0.7040    1.5080    0.0000 C.ar    1  LIG1        0.0179
      9 C           0.1630    2.0080    0.0000 C.ar    1  LIG1        0.0734
     10 N           0.1580    3.0080    0.0000 N.am    1  LIG1       -0.1792
     11 C           1.0290    3.5080    0.0000 C.2     1  LIG1        0.2461
     12 O           1.0290    4.5040    0.0000 O.2     1  LIG1       -0.2730
     13 C           1.8920    3.0080    0.0000 C.3     1  LIG1        0.0968
     14 C           1.0290    1.5080    0.0000 C.ar    1  LIG1        0.0179
     15 C           1.0290    0.5080    0.0000 C.ar    1  LIG1        0.0179
     16 O           1.8920   -1.0040    0.0000 O.2     1  LIG1       -0.2709
     17 C           1.9000   -3.0040    0.0000 C.3     1  LIG1        0.1193
     18 C           1.9000   -4.0040    0.0000 C.2     1  LIG1        0.2504
     19 N           1.0290   -4.5040    0.0000 N.am    1  LIG1       -0.1445
     20 O           2.7710   -4.5040    0.0000 O.2     1  LIG1       -0.2728
     21 C          -0.7790   -2.6880    0.0000 C.ar    1  LIG1        0.0803
     22 C          -1.3670   -3.4920    0.0000 C.ar    1  LIG1        0.1000
     23 N          -0.7790   -4.3130    0.0000 N.ar    1  LIG1       -0.2120
     24 C          -2.3670   -3.3880    0.0000 C.ar    1  LIG1        0.0207
     25 C          -2.7750   -2.4790    0.0000 C.ar    1  LIG1        0.0016
     26 C          -2.1830   -1.6750    0.0000 C.ar    1  LIG1        0.0016
     27 C          -1.1880   -1.7790    0.0000 C.ar    1  LIG1        0.0188
@<TRIPOS>BOND
     1     1     2   ar
     2     1    19    1
     3     1    23   ar
     4     2     3    1
     5     2    21   ar
     6     3     4    1
     7     3    17    1
     8     4     5   am
     9     4    16    2
    10     5     6    1
    11     6     7   ar
    12     6    15   ar
    13     7     8   ar
    14     8     9   ar
    15     9    10    1
    16     9    14   ar
    17    10    11   am
    18    11    12    2
    19    11    13    1
    20    14    15   ar
    21    17    18    1
    22    18    19   am
    23    18    20    2
    24    21    22   ar
    25    21    27   ar
    26    22    23   ar
    27    22    24   ar
    28    24    25   ar
    29    25    26   ar
    30    26    27   ar
