@<TRIPOS>MOLECULE
33101_ChemDiv_6893-0080
 27 32 0 0 0
SMALL
GASTEIGER
Energy = 0

@<TRIPOS>ATOM
      1 N          -0.2960   -1.0790    0.0000 N.ar    1  LIG1       -0.2948
      2 C           0.2920   -1.8920    0.0000 C.ar    1  LIG1        0.1463
      3 N          -0.2880   -2.7040    0.0000 N.ar    1  LIG1       -0.2267
      4 C          -1.2460   -2.4000    0.0000 C.ar    1  LIG1        0.0987
      5 C          -1.2500   -1.4000    0.0000 C.ar    1  LIG1        0.0803
      6 C          -2.1170   -0.8960    0.0000 C.ar    1  LIG1        0.0188
      7 C          -2.9830   -1.4000    0.0000 C.ar    1  LIG1        0.0016
      8 C          -2.9830   -2.4040    0.0000 C.ar    1  LIG1        0.0016
      9 C          -2.1170   -2.9080    0.0000 C.ar    1  LIG1        0.0206
     10 C           1.2790   -1.7750    0.0000 C.ar    1  LIG1        0.0491
     11 C           1.6880   -0.8670    0.0000 C.ar    1  LIG1        0.0704
     12 N           1.0920   -0.0630    0.0000 N.pl3   1  LIG1       -0.2163
     13 C           0.0920   -0.1630    0.0000 C.3     1  LIG1        0.1653
     14 C          -0.7790    0.3420    0.0000 C.ar    1  LIG1        0.0184
     15 C          -0.7830    1.3420    0.0000 C.ar    1  LIG1        0.0393
     16 C          -1.6500    1.8460    0.0000 C.ar    1  LIG1        0.1762
     17 C          -2.5130    1.3330    0.0000 C.ar    1  LIG1        0.1764
     18 O          -3.2630    1.9960    0.0000 O.3     1  LIG1       -0.4346
     19 C          -2.8630    2.9130    0.0000 C.3     1  LIG1        0.4294
     20 O          -1.8670    2.8170    0.0000 O.3     1  LIG1       -0.4346
     21 C          -2.5040    0.3290    0.0000 C.ar    1  LIG1        0.0400
     22 C          -1.6380   -0.1630    0.0000 C.ar    1  LIG1        0.0025
     23 C           0.3540    0.8040    0.0000 C.3     1  LIG1        0.0501
     24 C           2.6710   -0.7580    0.0000 C.ar    1  LIG1        0.0163
     25 C           3.2580   -1.5580    0.0000 C.ar    1  LIG1        0.0013
     26 C           2.8540   -2.4750    0.0000 C.ar    1  LIG1        0.0002
     27 C           1.8670   -2.5750    0.0000 C.ar    1  LIG1        0.0043
@<TRIPOS>BOND
     1     1     2   ar
     2     1     5   ar
     3     1    13    1
     4     2     3   ar
     5     2    10    1
     6     3     4   ar
     7     4     5   ar
     8     4     9   ar
     9     5     6   ar
    10     6     7   ar
    11     7     8   ar
    12     8     9   ar
    13    10    11   ar
    14    10    27   ar
    15    11    12    1
    16    11    24   ar
    17    12    13    1
    18    13    14    1
    19    13    23    1
    20    14    15   ar
    21    14    22   ar
    22    15    16   ar
    23    16    17   ar
    24    16    20    1
    25    17    18    1
    26    17    21   ar
    27    18    19    1
    28    19    20    1
    29    21    22   ar
    30    24    25   ar
    31    25    26   ar
    32    26    27   ar
