@<TRIPOS>MOLECULE
33102_ChemDiv_7685-0649
 13 14 0 0 0
SMALL
GASTEIGER
Energy = 0

@<TRIPOS>ATOM
      1 N           1.4130   -1.3000    0.0000 N.ar    1  LIG1       -0.2427
      2 C           2.0040   -0.4960    0.0000 C.ar    1  LIG1        0.0886
      3 S           1.4130    0.3210    0.0000 S.2     1  LIG1       -0.0708
      4 C           0.4580    0.0000    0.0000 C.ar    1  LIG1        0.0482
      5 C           0.4580   -0.9960    0.0000 C.ar    1  LIG1        0.0875
      6 C          -0.4040   -1.4960    0.0000 C.ar    1  LIG1        0.0196
      7 C          -1.2670   -0.9960    0.0000 C.ar    1  LIG1        0.0027
      8 C          -1.2670    0.0000    0.0000 C.ar    1  LIG1        0.0146
      9 C          -2.1330    0.5000    0.0000 C.2     1  LIG1        0.0729
     10 O          -2.1460    1.5000    0.0000 O.co2   1  LIG1       -0.5446
     11 O          -3.0080    0.0080    0.0000 O.co2   1  LIG1       -0.5446
     12 C          -0.4040    0.5000    0.0000 C.ar    1  LIG1        0.0092
     13 C           3.0040   -0.4960    0.0000 C.3     1  LIG1        0.0594
@<TRIPOS>BOND
     1     1     2   ar
     2     1     5   ar
     3     2     3   ar
     4     2    13    1
     5     3     4   ar
     6     4     5   ar
     7     4    12   ar
     8     5     6   ar
     9     6     7   ar
    10     7     8   ar
    11     8     9    1
    12     8    12   ar
    13     9    10   ar
    14     9    11   ar
