@<TRIPOS>MOLECULE
33103_ChemDiv_6893-0084
 22 25 0 0 0
SMALL
GASTEIGER
Energy = 0

@<TRIPOS>ATOM
      1 C           0.1540   -1.5920    0.0000 C.ar    1  LIG1        0.1461
      2 N          -0.4380   -0.7750    0.0000 N.ar    1  LIG1       -0.2982
      3 C          -0.0460    0.1380    0.0000 C.3     1  LIG1        0.1458
      4 N           0.9540    0.2420    0.0000 N.pl3   1  LIG1       -0.2202
      5 C           1.5500   -0.5630    0.0000 C.ar    1  LIG1        0.0700
      6 C           1.1420   -1.4710    0.0000 C.ar    1  LIG1        0.0491
      7 C           1.7290   -2.2750    0.0000 C.ar    1  LIG1        0.0043
      8 C           2.7170   -2.1710    0.0000 C.ar    1  LIG1        0.0002
      9 C           3.1210   -1.2540    0.0000 C.ar    1  LIG1        0.0013
     10 C           2.5330   -0.4540    0.0000 C.ar    1  LIG1        0.0163
     11 C           0.2130    1.1080    0.0000 C.3     1  LIG1        0.0416
     12 C           1.1750    1.3750    0.0000 C.3     1  LIG1        0.0037
     13 C           1.4290    2.3500    0.0000 C.3     1  LIG1        0.0001
     14 C           2.3960    2.6130    0.0000 C.3     1  LIG1        0.0000
     15 C          -1.0250   -0.0540    0.0000 C.3     1  LIG1        0.0453
     16 C          -1.3920   -1.0960    0.0000 C.ar    1  LIG1        0.0800
     17 C          -1.3830   -2.0960    0.0000 C.ar    1  LIG1        0.0987
     18 N          -0.4250   -2.4000    0.0000 N.ar    1  LIG1       -0.2267
     19 C          -2.2580   -2.6080    0.0000 C.ar    1  LIG1        0.0206
     20 C          -3.1250   -2.1040    0.0000 C.ar    1  LIG1        0.0016
     21 C          -3.1250   -1.0960    0.0000 C.ar    1  LIG1        0.0016
     22 C          -2.2580   -0.5920    0.0000 C.ar    1  LIG1        0.0188
@<TRIPOS>BOND
     1     1     2   ar
     2     1     6    1
     3     1    18   ar
     4     2     3    1
     5     2    16   ar
     6     3     4    1
     7     3    11    1
     8     3    15    1
     9     4     5    1
    10     5     6   ar
    11     5    10   ar
    12     6     7   ar
    13     7     8   ar
    14     8     9   ar
    15     9    10   ar
    16    11    12    1
    17    12    13    1
    18    13    14    1
    19    16    17   ar
    20    16    22   ar
    21    17    18   ar
    22    17    19   ar
    23    19    20   ar
    24    20    21   ar
    25    21    22   ar
