@<TRIPOS>MOLECULE
33104_ChemDiv_7706-0137
 24 26 0 0 0
SMALL
GASTEIGER
Energy = 0

@<TRIPOS>ATOM
      1 C          -1.7290   -0.9790    0.0000 C.ar    1  LIG1        0.2209
      2 C          -1.7290    0.0040    0.0000 C.ar    1  LIG1        0.2700
      3 C          -2.6040    0.5170    0.0000 C.ar    1  LIG1        0.2400
      4 C          -3.4670    0.0040    0.0000 C.ar    1  LIG1        0.0811
      5 C          -3.4670   -0.9790    0.0000 C.ar    1  LIG1        0.1593
      6 O          -2.5920   -1.4880    0.0000 O.2     1  LIG1       -0.4500
      7 C          -4.3330   -1.4880    0.0000 C.3     1  LIG1        0.2459
      8 O          -5.1880   -0.9790    0.0000 O.3     1  LIG1       -0.2117
      9 O          -2.6040    1.5170    0.0000 O.2     1  LIG1       -0.2829
     10 O          -0.8790    0.5170    0.0000 O.3     1  LIG1       -0.2800
     11 C          -0.8790   -1.4880    0.0000 C.3     1  LIG1        0.2076
     12 N           0.0040   -0.9790    0.0000 N.4     1  LIG1        0.3833
     13 C           0.8540   -1.4920    0.0000 C.3     1  LIG1        0.1392
     14 C           1.7250   -1.0000    0.0000 C.3     1  LIG1        0.0633
     15 C           1.7290    0.0040    0.0000 C.3     1  LIG1        0.0162
     16 C           2.5920    0.5040    0.0000 C.3     1  LIG1        0.0268
     17 C           3.4670    0.0000    0.0000 C.ar    1  LIG1       -0.0222
     18 C           3.4540   -1.0000    0.0000 C.ar    1  LIG1       -0.0043
     19 C           4.3130   -1.5130    0.0000 C.ar    1  LIG1       -0.0003
     20 C           5.1830   -1.0130    0.0000 C.ar    1  LIG1       -0.0000
     21 C           5.1830    0.0000    0.0000 C.ar    1  LIG1       -0.0003
     22 C           4.3290    0.4920    0.0000 C.ar    1  LIG1       -0.0043
     23 C           0.8540    0.5040    0.0000 C.3     1  LIG1        0.0633
     24 C          -0.0130    0.0040    0.0000 C.3     1  LIG1        0.1392
@<TRIPOS>BOND
     1     1     2   ar
     2     1     6   ar
     3     1    11    1
     4     2     3   ar
     5     2    10    1
     6     3     4   ar
     7     3     9    2
     8     4     5   ar
     9     5     6   ar
    10     5     7    1
    11     7     8    1
    12    11    12    1
    13    12    13    1
    14    12    24    1
    15    13    14    1
    16    14    15    1
    17    15    16    1
    18    15    23    1
    19    16    17    1
    20    17    18   ar
    21    17    22   ar
    22    18    19   ar
    23    19    20   ar
    24    20    21   ar
    25    21    22   ar
    26    23    24    1
