@<TRIPOS>MOLECULE
33119_ChemDiv_7152-0373
 24 27 0 0 0
SMALL
GASTEIGER
Energy = 0

@<TRIPOS>ATOM
      1 S          -0.7460   -2.1920    0.0000 S.O2    1  LIG1        0.0634
      2 N          -1.6920   -2.3790    0.0000 N.3     1  LIG1       -0.1504
      3 C          -2.0130   -3.2920    0.0000 C.3     1  LIG1        0.1279
      4 C          -2.9500   -3.4830    0.0000 C.3     1  LIG1        0.1613
      5 O          -3.5880   -2.7670    0.0000 O.3     1  LIG1       -0.3507
      6 C          -3.2830   -1.8380    0.0000 C.3     1  LIG1        0.1613
      7 C          -2.3330   -1.6380    0.0000 C.3     1  LIG1        0.1279
      8 C           0.2420   -1.9710    0.0000 C.ar    1  LIG1        0.1224
      9 C           0.5580   -1.0210    0.0000 C.ar    1  LIG1        0.0261
     10 C           1.5460   -0.8040    0.0000 C.ar    1  LIG1        0.0732
     11 C           1.8630    0.1670    0.0000 C.ar    1  LIG1        0.3160
     12 N           1.2630    0.9830    0.0000 N.ar    1  LIG1        0.0972
     13 C           1.8540    1.8040    0.0000 C.ar    1  LIG1        0.3692
     14 N           2.8290    1.4830    0.0000 N.ar    1  LIG1       -0.2404
     15 C           2.8170    0.4750    0.0000 C.ar    1  LIG1        0.1619
     16 C           3.5830    2.1630    0.0000 C.ar    1  LIG1        0.0859
     17 C           3.3880    3.1750    0.0000 C.ar    1  LIG1        0.0194
     18 C           2.4130    3.4880    0.0000 C.ar    1  LIG1        0.0096
     19 C           1.6500    2.8000    0.0000 C.ar    1  LIG1        0.0965
     20 C           2.2210   -1.5500    0.0000 C.ar    1  LIG1        0.0063
     21 C           1.9210   -2.5170    0.0000 C.ar    1  LIG1        0.0016
     22 C           0.9210   -2.7380    0.0000 C.ar    1  LIG1        0.0199
     23 O          -0.8920   -1.2420    0.0000 O.2     1  LIG1       -0.1528
     24 O          -0.5920   -3.1420    0.0000 O.2     1  LIG1       -0.1528
@<TRIPOS>BOND
     1     1     2    1
     2     1     8    1
     3     1    23    2
     4     1    24    2
     5     2     3    1
     6     2     7    1
     7     3     4    1
     8     4     5    1
     9     5     6    1
    10     6     7    1
    11     8     9   ar
    12     8    22   ar
    13     9    10   ar
    14    10    11    1
    15    10    20   ar
    16    11    12   ar
    17    11    15   ar
    18    12    13   ar
    19    13    14   ar
    20    13    19   ar
    21    14    15   ar
    22    14    16   ar
    23    16    17   ar
    24    17    18   ar
    25    18    19   ar
    26    20    21   ar
    27    21    22   ar
