@<TRIPOS>MOLECULE
33117_ChemDiv_7152-0332
 29 32 0 0 0
SMALL
GASTEIGER
Energy = 0

@<TRIPOS>ATOM
      1 S           0.5000   -1.4580    0.0000 S.O2    1  LIG1        0.0633
      2 N          -0.4460   -1.6500    0.0000 N.3     1  LIG1       -0.1555
      3 C          -0.7670   -2.5670    0.0000 C.3     1  LIG1        0.0964
      4 C          -1.7210   -2.7540    0.0000 C.3     1  LIG1        0.0303
      5 C          -2.3540   -2.0330    0.0000 C.3     1  LIG1        0.1019
      6 C          -3.3040   -2.2250    0.0000 C.2     1  LIG1        0.3165
      7 O          -3.9420   -1.4960    0.0000 O.2     1  LIG1       -0.2501
      8 O          -3.6080   -3.1290    0.0000 O.3     1  LIG1       -0.4485
      9 C          -4.5670   -3.3170    0.0000 C.3     1  LIG1        0.2086
     10 C          -4.8710   -4.2420    0.0000 C.3     1  LIG1        0.0513
     11 C          -2.0460   -1.1040    0.0000 C.3     1  LIG1        0.0303
     12 C          -1.0920   -0.8960    0.0000 C.3     1  LIG1        0.0964
     13 C           1.5040   -1.2500    0.0000 C.ar    1  LIG1        0.1224
     14 C           1.8210   -0.2750    0.0000 C.ar    1  LIG1        0.0261
     15 C           2.8130   -0.0580    0.0000 C.ar    1  LIG1        0.0733
     16 C           3.1250    0.8960    0.0000 C.ar    1  LIG1        0.3181
     17 N           2.5290    1.7290    0.0000 N.ar    1  LIG1        0.1191
     18 C           3.1250    2.5460    0.0000 C.ar    1  LIG1        0.4622
     19 N           4.1080    2.2420    0.0000 N.ar    1  LIG1       -0.2235
     20 C           4.1000    1.2170    0.0000 C.ar    1  LIG1        0.1633
     21 C           4.8670    2.9170    0.0000 C.ar    1  LIG1        0.0891
     22 C           4.6580    3.9210    0.0000 C.ar    1  LIG1        0.0401
     23 C           3.6880    4.2420    0.0000 C.ar    1  LIG1        0.1082
     24 N           2.9210    3.5670    0.0000 N.ar    1  LIG1       -0.1614
     25 C           3.5000   -0.8130    0.0000 C.ar    1  LIG1        0.0063
     26 C           3.1960   -1.7830    0.0000 C.ar    1  LIG1        0.0016
     27 C           2.1830   -2.0080    0.0000 C.ar    1  LIG1        0.0199
     28 O           0.3580   -0.5000    0.0000 O.2     1  LIG1       -0.1528
     29 O           0.6500   -2.4170    0.0000 O.2     1  LIG1       -0.1528
@<TRIPOS>BOND
     1     1     2    1
     2     1    13    1
     3     1    28    2
     4     1    29    2
     5     2     3    1
     6     2    12    1
     7     3     4    1
     8     4     5    1
     9     5     6    1
    10     5    11    1
    11     6     7    2
    12     6     8    1
    13     8     9    1
    14     9    10    1
    15    11    12    1
    16    13    14   ar
    17    13    27   ar
    18    14    15   ar
    19    15    16    1
    20    15    25   ar
    21    16    17   ar
    22    16    20   ar
    23    17    18   ar
    24    18    19   ar
    25    18    24   ar
    26    19    20   ar
    27    19    21   ar
    28    21    22   ar
    29    22    23   ar
    30    23    24   ar
    31    25    26   ar
    32    26    27   ar
