@<TRIPOS>MOLECULE
33122_ChemDiv_7706-0152
 23 26 0 0 0
SMALL
GASTEIGER
Energy = 0

@<TRIPOS>ATOM
      1 N          -0.4500    0.4670    0.0000 N.ar    1  LIG1       -0.3098
      2 C          -1.4040    0.7790    0.0000 C.ar    1  LIG1        0.0441
      3 C          -1.4040    1.7670    0.0000 C.ar    1  LIG1        0.0481
      4 C          -0.4670    2.0830    0.0000 C.ar    1  LIG1        0.0215
      5 C           0.1250    1.2580    0.0000 C.ar    1  LIG1        0.0638
      6 C           1.1380    1.2710    0.0000 C.ar    1  LIG1        0.0161
      7 C           1.6290    2.1420    0.0000 C.ar    1  LIG1        0.0014
      8 C           2.6420    2.1420    0.0000 C.ar    1  LIG1        0.0000
      9 C           3.1500    1.2710    0.0000 C.ar    1  LIG1        0.0000
     10 C           2.6500    0.4040    0.0000 C.ar    1  LIG1        0.0000
     11 C           1.6500    0.3960    0.0000 C.ar    1  LIG1        0.0014
     12 C          -2.2920    2.2790    0.0000 C.2     1  LIG1        0.1742
     13 O          -2.2920    3.3080    0.0000 O.2     1  LIG1       -0.2913
     14 C          -3.1540    1.7670    0.0000 C.3     1  LIG1        0.0696
     15 C          -3.1540    0.7790    0.0000 C.3     1  LIG1        0.0144
     16 C          -2.2710    0.2710    0.0000 C.3     1  LIG1        0.0447
     17 C          -0.1460   -0.4670    0.0000 C.ar    1  LIG1        0.0639
     18 C          -0.8080   -1.2040    0.0000 C.ar    1  LIG1        0.0208
     19 C          -0.5040   -2.1420    0.0000 C.ar    1  LIG1        0.0435
     20 C           0.4630   -2.3500    0.0000 C.ar    1  LIG1        0.1958
     21 C           1.1250   -1.6130    0.0000 C.ar    1  LIG1        0.0435
     22 C           0.8170   -0.6750    0.0000 C.ar    1  LIG1        0.0208
     23 O           0.7170   -3.3040    0.0000 O.3     1  LIG1       -0.2866
@<TRIPOS>BOND
     1     1     2   ar
     2     1     5   ar
     3     1    17    1
     4     2     3   ar
     5     2    16    1
     6     3     4   ar
     7     3    12    1
     8     4     5   ar
     9     5     6    1
    10     6     7   ar
    11     6    11   ar
    12     7     8   ar
    13     8     9   ar
    14     9    10   ar
    15    10    11   ar
    16    12    13    2
    17    12    14    1
    18    14    15    1
    19    15    16    1
    20    17    18   ar
    21    17    22   ar
    22    18    19   ar
    23    19    20   ar
    24    20    21   ar
    25    20    23    1
    26    21    22   ar
