@<TRIPOS>MOLECULE
33128_ChemDiv_7706-0551
 21 23 0 0 0
SMALL
GASTEIGER
Energy = 0

@<TRIPOS>ATOM
      1 C           0.8630    0.0130    0.0000 C.ar    1  LIG1        0.0868
      2 C          -0.0080    0.5130    0.0000 C.ar    1  LIG1        0.1998
      3 C          -0.8630    0.0000    0.0000 C.ar    1  LIG1        0.0595
      4 C          -0.8630   -1.0000    0.0000 C.ar    1  LIG1        0.0842
      5 N           0.0000   -1.5000    0.0000 N.ar    1  LIG1       -0.2496
      6 C           0.8630   -0.9880    0.0000 C.ar    1  LIG1        0.0640
      7 C           1.7250   -1.4880    0.0000 C.3     1  LIG1        0.0521
      8 C          -1.7330   -1.5080    0.0000 C.ar    1  LIG1        0.0223
      9 C          -2.6000   -1.0080    0.0000 C.ar    1  LIG1        0.0384
     10 C          -2.6000    0.0000    0.0000 C.ar    1  LIG1        0.1389
     11 C          -1.7330    0.5000    0.0000 C.ar    1  LIG1        0.0416
     12 O          -3.4630    0.4920    0.0000 O.3     1  LIG1       -0.4714
     13 C          -4.3250   -0.0080    0.0000 C.3     1  LIG1        0.2525
     14 O          -0.0080    1.5130    0.0000 O.2     1  LIG1       -0.2866
     15 C           1.7250    0.5130    0.0000 C.3     1  LIG1        0.1708
     16 N           2.5880    0.0250    0.0000 N.4     1  LIG1        0.3848
     17 C           3.4500    0.5250    0.0000 C.3     1  LIG1        0.1718
     18 C           4.3210    0.0250    0.0000 C.3     1  LIG1        0.2048
     19 O           4.3210   -0.9750    0.0000 O.3     1  LIG1       -0.3411
     20 C           3.4580   -1.4750    0.0000 C.3     1  LIG1        0.2048
     21 C           2.5880   -0.9880    0.0000 C.3     1  LIG1        0.1718
@<TRIPOS>BOND
     1     1     2   ar
     2     1     6   ar
     3     1    15    1
     4     2     3   ar
     5     2    14    2
     6     3     4   ar
     7     3    11   ar
     8     4     5   ar
     9     4     8   ar
    10     5     6   ar
    11     6     7    1
    12     8     9   ar
    13     9    10   ar
    14    10    11   ar
    15    10    12    1
    16    12    13    1
    17    15    16    1
    18    16    17    1
    19    16    21    1
    20    17    18    1
    21    18    19    1
    22    19    20    1
    23    20    21    1
