@<TRIPOS>MOLECULE
33124_ChemDiv_8008-3909
 28 31 0 0 0
SMALL
GASTEIGER
Energy = 0

@<TRIPOS>ATOM
      1 C          -1.7540    0.6920    0.0000 C.ar    1  LIG1        0.0481
      2 C          -1.2130   -0.1630    0.0000 C.ar    1  LIG1        0.0441
      3 N          -0.2540    0.1170    0.0000 N.ar    1  LIG1       -0.3098
      4 C          -0.2000    1.0960    0.0000 C.ar    1  LIG1        0.0638
      5 C          -1.1130    1.4790    0.0000 C.ar    1  LIG1        0.0215
      6 C           0.5920    1.7000    0.0000 C.ar    1  LIG1        0.0161
      7 C           1.5130    1.2750    0.0000 C.ar    1  LIG1        0.0014
      8 C           2.3000    1.8750    0.0000 C.ar    1  LIG1        0.0000
      9 C           2.2290    2.8670    0.0000 C.ar    1  LIG1        0.0000
     10 C           1.2960    3.2880    0.0000 C.ar    1  LIG1        0.0000
     11 C           0.5080    2.7000    0.0000 C.ar    1  LIG1        0.0014
     12 C           0.5080   -0.5500    0.0000 C.ar    1  LIG1        0.0638
     13 C           1.4460   -0.2420    0.0000 C.ar    1  LIG1        0.0189
     14 C           2.2130   -0.8460    0.0000 C.ar    1  LIG1        0.0215
     15 C           2.0250   -1.8670    0.0000 C.ar    1  LIG1        0.1251
     16 S           2.7630   -2.5380    0.0000 S.O2    1  LIG1        0.0935
     17 O           2.0960   -3.2830    0.0000 O.2     1  LIG1       -0.1503
     18 O           3.4580   -1.7750    0.0000 O.2     1  LIG1       -0.1503
     19 N           3.5250   -3.2080    0.0000 N.3     1  LIG1        0.0392
     20 C           1.0710   -2.1750    0.0000 C.ar    1  LIG1        0.0215
     21 C           0.3210   -1.5040    0.0000 C.ar    1  LIG1        0.0189
     22 C          -1.7000   -1.0000    0.0000 C.3     1  LIG1        0.0446
     23 C          -2.6790   -1.0460    0.0000 C.3     1  LIG1        0.0128
     24 C          -3.2170   -0.2130    0.0000 C.3     1  LIG1        0.0695
     25 C          -2.7580    0.6750    0.0000 C.2     1  LIG1        0.1742
     26 O          -3.2920    1.5420    0.0000 O.2     1  LIG1       -0.2913
     27 C          -3.5290   -1.5830    0.0000 C.3     1  LIG1        0.0008
     28 C          -2.6630   -2.0420    0.0000 C.3     1  LIG1        0.0008
@<TRIPOS>BOND
     1     1     2   ar
     2     1     5   ar
     3     1    25    1
     4     2     3   ar
     5     2    22    1
     6     3     4   ar
     7     3    12    1
     8     4     5   ar
     9     4     6    1
    10     6     7   ar
    11     6    11   ar
    12     7     8   ar
    13     8     9   ar
    14     9    10   ar
    15    10    11   ar
    16    12    13   ar
    17    12    21   ar
    18    13    14   ar
    19    14    15   ar
    20    15    16    1
    21    15    20   ar
    22    16    17    2
    23    16    18    2
    24    16    19    1
    25    20    21   ar
    26    22    23    1
    27    23    24    1
    28    23    27    1
    29    23    28    1
    30    24    25    1
    31    25    26    2
