@<TRIPOS>MOLECULE
33126_ChemDiv_7706-0200
 23 26 0 0 0
SMALL
GASTEIGER
Energy = 0

@<TRIPOS>ATOM
      1 C          -0.2460    3.4960    0.0000 C.ar    1  LIG1        0.4618
      2 N           0.4790    2.8080    0.0000 N.ar    1  LIG1        0.1154
      3 C           0.0670    1.9330    0.0000 C.ar    1  LIG1        0.3068
      4 C          -0.9080    2.0290    0.0000 C.ar    1  LIG1        0.1595
      5 N          -1.1130    2.9960    0.0000 N.ar    1  LIG1       -0.2238
      6 C          -1.9830    3.4960    0.0000 C.ar    1  LIG1        0.0891
      7 C          -1.9830    4.5040    0.0000 C.ar    1  LIG1        0.0401
      8 C          -1.1130    5.0040    0.0000 C.ar    1  LIG1        0.1082
      9 N          -0.2460    4.5040    0.0000 N.ar    1  LIG1       -0.1614
     10 C           0.5500    1.0380    0.0000 C.3     1  LIG1        0.1704
     11 S           0.0250    0.1920    0.0000 S.3     1  LIG1       -0.0623
     12 C           0.5000   -0.6750    0.0000 C.ar    1  LIG1        0.2110
     13 N          -0.0210   -1.5420    0.0000 N.ar    1  LIG1       -0.2182
     14 C           0.4380   -2.4040    0.0000 C.ar    1  LIG1        0.1044
     15 C           1.4630   -2.4210    0.0000 C.ar    1  LIG1        0.1413
     16 N           1.9790   -1.5880    0.0000 N.ar    1  LIG1       -0.1429
     17 N           1.5040   -0.7000    0.0000 N.ar    1  LIG1       -0.1218
     18 C          -0.0880   -3.2710    0.0000 C.ar    1  LIG1        0.0193
     19 C           0.4130   -4.1330    0.0000 C.ar    1  LIG1        0.0015
     20 C          -0.1130   -5.0040    0.0000 C.ar    1  LIG1        0.0000
     21 C          -1.1130   -4.9830    0.0000 C.ar    1  LIG1        0.0000
     22 C          -1.5960   -4.0920    0.0000 C.ar    1  LIG1        0.0000
     23 C          -1.0710   -3.2460    0.0000 C.ar    1  LIG1        0.0015
@<TRIPOS>BOND
     1     1     2   ar
     2     1     5   ar
     3     1     9   ar
     4     2     3   ar
     5     3     4   ar
     6     3    10    1
     7     4     5   ar
     8     5     6   ar
     9     6     7   ar
    10     7     8   ar
    11     8     9   ar
    12    10    11    1
    13    11    12    1
    14    12    13   ar
    15    12    17   ar
    16    13    14   ar
    17    14    15   ar
    18    14    18    1
    19    15    16   ar
    20    16    17   ar
    21    18    19   ar
    22    18    23   ar
    23    19    20   ar
    24    20    21   ar
    25    21    22   ar
    26    22    23   ar
