@<TRIPOS>MOLECULE
33127_ChemDiv_6937-0315
 23 26 0 0 0
SMALL
GASTEIGER
Energy = 0

@<TRIPOS>ATOM
      1 N          -1.3040    0.0710    0.0000 N.ar    1  LIG1       -0.3054
      2 C          -2.1540   -0.4210    0.0000 C.ar    1  LIG1        0.1212
      3 C          -2.1500   -1.4330    0.0000 C.ar    1  LIG1        0.1834
      4 N          -1.0710   -1.4630    0.0000 N.ar    1  LIG1       -0.2048
      5 C          -0.5670   -0.6000    0.0000 C.ar    1  LIG1        0.1801
      6 N          -3.0170   -1.9330    0.0000 N.ar    1  LIG1       -0.2033
      7 C          -3.8790   -1.4330    0.0000 C.ar    1  LIG1        0.2008
      8 N          -3.8790   -0.4290    0.0000 N.ar    1  LIG1       -0.2161
      9 C          -3.0170    0.0710    0.0000 C.ar    1  LIG1        0.1273
     10 S          -3.0290    1.0630    0.0000 S.3     1  LIG1       -0.0914
     11 C          -2.1630    1.5630    0.0000 C.3     1  LIG1        0.0880
     12 C          -1.3040    1.0710    0.0000 C.3     1  LIG1        0.1222
     13 C          -0.4330    1.5710    0.0000 C.3     1  LIG1        0.1792
     14 S           0.4290    1.0710    0.0000 S.O2    1  LIG1        0.0106
     15 C           1.2920    0.5670    0.0000 C.ar    1  LIG1        0.1057
     16 C           1.2830   -0.4210    0.0000 C.ar    1  LIG1        0.0180
     17 C           2.1460   -0.9210    0.0000 C.ar    1  LIG1       -0.0029
     18 C           3.0080   -0.4290    0.0000 C.ar    1  LIG1       -0.0218
     19 C           3.0080    0.5750    0.0000 C.ar    1  LIG1       -0.0029
     20 C           2.1460    1.0710    0.0000 C.ar    1  LIG1        0.0180
     21 C           3.8750   -0.9290    0.0000 C.3     1  LIG1        0.0310
     22 O           0.9290    1.9380    0.0000 O.2     1  LIG1       -0.1686
     23 O          -0.0750    0.2080    0.0000 O.2     1  LIG1       -0.1686
@<TRIPOS>BOND
     1     1     2   ar
     2     1     5   ar
     3     1    12    1
     4     2     3   ar
     5     2     9   ar
     6     3     4   ar
     7     3     6   ar
     8     4     5   ar
     9     6     7   ar
    10     7     8   ar
    11     8     9   ar
    12     9    10    1
    13    10    11    1
    14    11    12    1
    15    12    13    1
    16    13    14    1
    17    14    15    1
    18    14    22    2
    19    14    23    2
    20    15    16   ar
    21    15    20   ar
    22    16    17   ar
    23    17    18   ar
    24    18    19   ar
    25    18    21    1
    26    19    20   ar
