@<TRIPOS>MOLECULE
33137_ChemDiv_7162-0249
 22 24 0 0 0
SMALL
GASTEIGER
Energy = 0

@<TRIPOS>ATOM
      1 N          -0.5460    0.2420    0.0000 N.ar    1  LIG1       -0.2876
      2 C           0.0830   -0.5920    0.0000 C.ar    1  LIG1        0.1731
      3 N          -0.4790   -1.4290    0.0000 N.ar    1  LIG1       -0.2165
      4 C          -1.3460   -1.1580    0.0000 C.ar    1  LIG1        0.1521
      5 C          -1.3880   -0.0830    0.0000 C.ar    1  LIG1        0.1680
      6 N          -2.2670    0.3920    0.0000 N.ar    1  LIG1       -0.2048
      7 C          -3.1290   -0.1420    0.0000 C.ar    1  LIG1        0.2016
      8 N          -3.1000   -1.1880    0.0000 N.ar    1  LIG1       -0.2040
      9 C          -2.1630   -1.6830    0.0000 C.ar    1  LIG1        0.1919
     10 N          -2.1170   -2.6420    0.0000 N.pl3   1  LIG1       -0.1054
     11 S           1.0790   -0.5630    0.0000 S.3     1  LIG1       -0.0712
     12 C           1.6080   -1.4170    0.0000 C.3     1  LIG1        0.1065
     13 C           2.6080   -1.3830    0.0000 C.2     1  LIG1        0.0617
     14 O           3.0830   -0.5040    0.0000 O.co2   1  LIG1       -0.5483
     15 O           3.1250   -2.2330    0.0000 O.co2   1  LIG1       -0.5483
     16 C          -0.2670    1.2080    0.0000 C.3     1  LIG1        0.1361
     17 C           0.7000    1.4460    0.0000 C.ar    1  LIG1        0.0005
     18 C           1.3960    0.7210    0.0000 C.ar    1  LIG1       -0.0024
     19 C           2.3670    0.9630    0.0000 C.ar    1  LIG1       -0.0003
     20 C           2.6420    1.9330    0.0000 C.ar    1  LIG1       -0.0000
     21 C           1.9380    2.6460    0.0000 C.ar    1  LIG1       -0.0003
     22 C           0.9710    2.4040    0.0000 C.ar    1  LIG1       -0.0024
@<TRIPOS>BOND
     1     1     2   ar
     2     1     5   ar
     3     1    16    1
     4     2     3   ar
     5     2    11    1
     6     3     4   ar
     7     4     5   ar
     8     4     9   ar
     9     5     6   ar
    10     6     7   ar
    11     7     8   ar
    12     8     9   ar
    13     9    10    1
    14    11    12    1
    15    12    13    1
    16    13    14   ar
    17    13    15   ar
    18    16    17    1
    19    17    18   ar
    20    17    22   ar
    21    18    19   ar
    22    19    20   ar
    23    20    21   ar
    24    21    22   ar
