@<TRIPOS>MOLECULE
33139_ChemDiv_D058-0037
 21 23 0 0 0
SMALL
GASTEIGER
Energy = 0

@<TRIPOS>ATOM
      1 N          -0.7920    0.2630    0.0000 N.ar    1  LIG1       -0.2876
      2 C          -0.1880   -0.5920    0.0000 C.ar    1  LIG1        0.1728
      3 N          -0.7790   -1.4130    0.0000 N.ar    1  LIG1       -0.2165
      4 C          -1.6290   -1.1250    0.0000 C.ar    1  LIG1        0.1521
      5 C          -1.6540   -0.0380    0.0000 C.ar    1  LIG1        0.1680
      6 N          -2.5210    0.4630    0.0000 N.ar    1  LIG1       -0.2048
      7 C          -3.4000   -0.0540    0.0000 C.ar    1  LIG1        0.2016
      8 N          -3.3960   -1.1130    0.0000 N.ar    1  LIG1       -0.2040
      9 C          -2.4630   -1.6250    0.0000 C.ar    1  LIG1        0.1919
     10 N          -2.4460   -2.5880    0.0000 N.pl3   1  LIG1       -0.1054
     11 S           0.8080   -0.5920    0.0000 S.3     1  LIG1       -0.0745
     12 C           1.6710   -1.0920    0.0000 C.3     1  LIG1        0.1006
     13 C           2.5330   -0.5920    0.0000 C.3     1  LIG1        0.1941
     14 O           3.3960   -1.0920    0.0000 O.3     1  LIG1       -0.2194
     15 C          -0.4920    1.2170    0.0000 C.3     1  LIG1        0.1361
     16 C           0.4750    1.4290    0.0000 C.ar    1  LIG1        0.0005
     17 C           0.7790    2.3710    0.0000 C.ar    1  LIG1       -0.0024
     18 C           1.7580    2.5920    0.0000 C.ar    1  LIG1       -0.0003
     19 C           2.4290    1.8500    0.0000 C.ar    1  LIG1       -0.0000
     20 C           2.1250    0.9000    0.0000 C.ar    1  LIG1       -0.0003
     21 C           1.1540    0.6880    0.0000 C.ar    1  LIG1       -0.0024
@<TRIPOS>BOND
     1     1     2   ar
     2     1     5   ar
     3     1    15    1
     4     2     3   ar
     5     2    11    1
     6     3     4   ar
     7     4     5   ar
     8     4     9   ar
     9     5     6   ar
    10     6     7   ar
    11     7     8   ar
    12     8     9   ar
    13     9    10    1
    14    11    12    1
    15    12    13    1
    16    13    14    1
    17    15    16    1
    18    16    17   ar
    19    16    21   ar
    20    17    18   ar
    21    18    19   ar
    22    19    20   ar
    23    20    21   ar
