@<TRIPOS>MOLECULE
33134_ChemDiv_7706-0615
 18 20 0 0 0
SMALL
GASTEIGER
Energy = 0

@<TRIPOS>ATOM
      1 C           0.7920   -0.1540    0.0000 C.ar    1  LIG1        0.0276
      2 C          -0.1630   -0.4670    0.0000 C.ar    1  LIG1        0.0341
      3 C          -1.0250    0.0460    0.0000 C.ar    1  LIG1        0.0027
      4 C          -1.8880   -0.4670    0.0000 C.ar    1  LIG1        0.0002
      5 C          -1.8880   -1.4670    0.0000 C.ar    1  LIG1        0.0031
      6 C          -1.0330   -1.9580    0.0000 C.ar    1  LIG1        0.0375
      7 C          -0.1630   -1.4580    0.0000 C.ar    1  LIG1        0.1451
      8 O           0.7920   -1.7670    0.0000 O.2     1  LIG1       -0.4507
      9 C           1.3790   -0.9580    0.0000 C.ar    1  LIG1        0.1757
     10 C          -2.7580    0.0460    0.0000 C.ar    1  LIG1        0.0000
     11 C          -2.7580    1.0460    0.0000 C.ar    1  LIG1        0.0000
     12 C          -1.8880    1.5460    0.0000 C.ar    1  LIG1        0.0000
     13 C          -1.0250    1.0460    0.0000 C.ar    1  LIG1        0.0001
     14 C           1.1080    0.8000    0.0000 C.3     1  LIG1        0.1163
     15 C           2.0830    1.0130    0.0000 C.2     1  LIG1        0.2460
     16 O           2.3920    1.9630    0.0000 O.2     1  LIG1       -0.2730
     17 N           2.7540    0.2630    0.0000 N.am    1  LIG1       -0.2032
     18 C           2.4460   -0.6920    0.0000 C.3     1  LIG1        0.1385
@<TRIPOS>BOND
     1     1     2   ar
     2     1     9   ar
     3     1    14    1
     4     2     3   ar
     5     2     7   ar
     6     3     4   ar
     7     3    13   ar
     8     4     5   ar
     9     4    10   ar
    10     5     6   ar
    11     6     7   ar
    12     7     8   ar
    13     8     9   ar
    14    10    11   ar
    15    11    12   ar
    16    12    13   ar
    17    14    15    1
    18    15    16    2
    19    15    17   am
    20    17    18    1
