@<TRIPOS>MOLECULE
33132_ChemDiv_8018-0138
 12 13 0 0 0
SMALL
GASTEIGER
Energy = 0

@<TRIPOS>ATOM
      1 N           0.4290    0.9960    0.0000 N.ar    1  LIG1       -0.2219
      2 C           1.2920    0.4960    0.0000 C.ar    1  LIG1        0.2280
      3 C           1.2920   -0.4920    0.0000 C.ar    1  LIG1        0.3142
      4 N           0.4290   -1.0000    0.0000 N.ar    1  LIG1       -0.2039
      5 C          -0.4290   -0.4920    0.0000 C.ar    1  LIG1        0.1022
      6 C          -0.4290    0.4960    0.0000 C.ar    1  LIG1        0.1006
      7 C          -1.2960    0.9960    0.0000 C.ar    1  LIG1        0.0207
      8 C          -2.1670    0.4960    0.0000 C.ar    1  LIG1        0.0016
      9 C          -2.1670   -0.4920    0.0000 C.ar    1  LIG1        0.0016
     10 C          -1.2960   -1.0000    0.0000 C.ar    1  LIG1        0.0207
     11 O           2.1630   -0.9920    0.0000 O.3     1  LIG1       -0.2620
     12 N           2.1630    1.0040    0.0000 N.pl3   1  LIG1       -0.1020
@<TRIPOS>BOND
     1     1     2   ar
     2     1     6   ar
     3     2     3   ar
     4     2    12    1
     5     3     4   ar
     6     3    11    1
     7     4     5   ar
     8     5     6   ar
     9     5    10   ar
    10     6     7   ar
    11     7     8   ar
    12     8     9   ar
    13     9    10   ar
