@<TRIPOS>MOLECULE
33130_ChemDiv_7706-0612
 21 24 0 0 0
SMALL
GASTEIGER
Energy = 0

@<TRIPOS>ATOM
      1 C          -2.5960    0.4790    0.0000 C.ar    1  LIG1        0.1020
      2 C          -1.7380    0.9920    0.0000 C.ar    1  LIG1        0.0581
      3 C          -0.8710    0.4920    0.0000 C.ar    1  LIG1        0.1469
      4 O          -0.0080    0.9960    0.0000 O.3     1  LIG1       -0.4534
      5 C           0.8670    0.5040    0.0000 C.ar    1  LIG1        0.1469
      6 C           1.7130    1.0040    0.0000 C.ar    1  LIG1        0.0581
      7 C           2.5880    0.5210    0.0000 C.ar    1  LIG1        0.1020
      8 N           3.4420    1.0290    0.0000 N.ar    1  LIG1       -0.2406
      9 C           4.3130    0.5380    0.0000 C.ar    1  LIG1        0.1195
     10 C           4.3290   -0.4630    0.0000 C.ar    1  LIG1        0.1195
     11 N           3.4670   -0.9750    0.0000 N.ar    1  LIG1       -0.2407
     12 C           2.5920   -0.4830    0.0000 C.ar    1  LIG1        0.0991
     13 C           1.7290   -0.9960    0.0000 C.ar    1  LIG1        0.0238
     14 C           0.8670   -0.4920    0.0000 C.ar    1  LIG1        0.0391
     15 C          -0.8630   -0.5130    0.0000 C.ar    1  LIG1        0.0391
     16 C          -1.7250   -1.0210    0.0000 C.ar    1  LIG1        0.0238
     17 C          -2.5960   -0.5250    0.0000 C.ar    1  LIG1        0.0991
     18 N          -3.4710   -1.0250    0.0000 N.ar    1  LIG1       -0.2407
     19 C          -4.3330   -0.5250    0.0000 C.ar    1  LIG1        0.1195
     20 C          -4.3330    0.4790    0.0000 C.ar    1  LIG1        0.1195
     21 N          -3.4710    0.9790    0.0000 N.ar    1  LIG1       -0.2406
@<TRIPOS>BOND
     1     1     2   ar
     2     1    17   ar
     3     1    21   ar
     4     2     3   ar
     5     3     4    1
     6     3    15   ar
     7     4     5    1
     8     5     6   ar
     9     5    14   ar
    10     6     7   ar
    11     7     8   ar
    12     7    12   ar
    13     8     9   ar
    14     9    10   ar
    15    10    11   ar
    16    11    12   ar
    17    12    13   ar
    18    13    14   ar
    19    15    16   ar
    20    16    17   ar
    21    17    18   ar
    22    18    19   ar
    23    19    20   ar
    24    20    21   ar
