@<TRIPOS>MOLECULE
33149_ChemDiv_7182-3740
 34 37 0 0 0
SMALL
GASTEIGER
Energy = 0

@<TRIPOS>ATOM
      1 C          -0.3380    0.0670    0.0000 C.ar    1  LIG1        0.1088
      2 C           0.0130   -0.8830    0.0000 C.ar    1  LIG1        0.0937
      3 C           1.0000   -0.8380    0.0000 C.ar    1  LIG1       -0.0033
      4 C           1.2830    0.1250    0.0000 C.ar    1  LIG1        0.0823
      5 S           0.4540    0.6880    0.0000 S.2     1  LIG1       -0.0659
      6 C           2.2540    0.3670    0.0000 C.2     1  LIG1        0.2747
      7 N           2.5290    1.3250    0.0000 N.am    1  LIG1       -0.1750
      8 C           3.5000    1.5670    0.0000 C.ar    1  LIG1        0.0737
      9 C           3.7710    2.5210    0.0000 C.ar    1  LIG1        0.0166
     10 C           4.7290    2.7670    0.0000 C.ar    1  LIG1        0.0013
     11 C           5.4290    2.0420    0.0000 C.ar    1  LIG1        0.0001
     12 C           5.1540    1.0830    0.0000 C.ar    1  LIG1        0.0013
     13 C           4.1830    0.8420    0.0000 C.ar    1  LIG1        0.0166
     14 O           2.9420   -0.3540    0.0000 O.2     1  LIG1       -0.2675
     15 C           1.6960   -1.5580    0.0000 C.3     1  LIG1        0.0320
     16 C          -0.5460   -1.7250    0.0000 C.2     1  LIG1        0.3427
     17 O          -1.5500   -1.6630    0.0000 O.2     1  LIG1       -0.2448
     18 O          -0.1000   -2.6290    0.0000 O.3     1  LIG1       -0.4454
     19 C          -0.6540   -3.4630    0.0000 C.3     1  LIG1        0.2089
     20 C          -0.2170   -4.3630    0.0000 C.3     1  LIG1        0.0513
     21 N          -1.2960    0.3380    0.0000 N.am    1  LIG1       -0.1708
     22 C          -1.5500    1.3130    0.0000 C.2     1  LIG1        0.2693
     23 C          -2.5080    1.5790    0.0000 C.3     1  LIG1        0.1992
     24 N          -2.7630    2.5500    0.0000 N.ar    1  LIG1       -0.2530
     25 C          -2.1710    3.3540    0.0000 C.ar    1  LIG1        0.4224
     26 O          -2.7630    4.1670    0.0000 O.2     1  LIG1       -0.4068
     27 C          -3.7000    3.8710    0.0000 C.ar    1  LIG1        0.1660
     28 C          -3.7000    2.8710    0.0000 C.ar    1  LIG1        0.1005
     29 C          -4.5630    2.3710    0.0000 C.ar    1  LIG1        0.0205
     30 C          -5.4330    2.8880    0.0000 C.ar    1  LIG1        0.0017
     31 C          -5.4290    3.8830    0.0000 C.ar    1  LIG1        0.0032
     32 C          -4.5540    4.3630    0.0000 C.ar    1  LIG1        0.0392
     33 O          -1.1710    3.3460    0.0000 O.2     1  LIG1       -0.2226
     34 O          -0.8250    2.0130    0.0000 O.2     1  LIG1       -0.2708
@<TRIPOS>BOND
     1     1     2   ar
     2     1     5   ar
     3     1    21    1
     4     2     3   ar
     5     2    16    1
     6     3     4   ar
     7     3    15    1
     8     4     5   ar
     9     4     6    1
    10     6     7   am
    11     6    14    2
    12     7     8    1
    13     8     9   ar
    14     8    13   ar
    15     9    10   ar
    16    10    11   ar
    17    11    12   ar
    18    12    13   ar
    19    16    17    2
    20    16    18    1
    21    18    19    1
    22    19    20    1
    23    21    22   am
    24    22    23    1
    25    22    34    2
    26    23    24    1
    27    24    25   ar
    28    24    28   ar
    29    25    26   ar
    30    25    33    2
    31    26    27   ar
    32    27    28   ar
    33    27    32   ar
    34    28    29   ar
    35    29    30   ar
    36    30    31   ar
    37    31    32   ar
