@<TRIPOS>MOLECULE
33142_ChemDiv_7399-0153
 24 26 0 0 0
SMALL
GASTEIGER
Energy = 0

@<TRIPOS>ATOM
      1 C           1.3210   -1.0040    0.0000 C.2     1  LIG1        0.5223
      2 N           0.4460   -0.5040    0.0000 N.am    1  LIG1       -0.1293
      3 C          -0.4170   -1.0040    0.0000 C.2     1  LIG1        0.3376
      4 N          -1.2790   -0.5040    0.0000 N.am    1  LIG1       -0.1895
      5 C          -2.1460   -1.0040    0.0000 C.3     1  LIG1        0.0969
      6 C          -2.1460   -2.0040    0.0000 C.3     1  LIG1        0.0217
      7 C          -3.0080   -2.5040    0.0000 C.3     1  LIG1        0.0018
      8 C          -3.8830   -2.0040    0.0000 C.3     1  LIG1        0.0001
      9 C          -3.8830   -1.0040    0.0000 C.3     1  LIG1        0.0018
     10 C          -3.0080   -0.5040    0.0000 C.3     1  LIG1        0.0217
     11 O          -0.4170   -2.0040    0.0000 O.2     1  LIG1       -0.2498
     12 C           0.4460    0.4960    0.0000 C.ar    1  LIG1        0.0691
     13 C           1.3210    0.9920    0.0000 C.ar    1  LIG1        0.0270
     14 C           1.3210    2.0080    0.0000 C.ar    1  LIG1        0.0589
     15 CL          2.1880    2.5080    0.0000 Cl      1  LIG1       -0.0822
     16 C           0.4460    2.4960    0.0000 C.ar    1  LIG1        0.0115
     17 C          -0.4170    2.0080    0.0000 C.ar    1  LIG1        0.0022
     18 C          -0.4170    0.9920    0.0000 C.ar    1  LIG1        0.0156
     19 N           2.1880   -0.5040    0.0000 N.2     1  LIG1        0.0988
     20 C           2.9290   -1.1790    0.0000 C.3     1  LIG1        0.3003
     21 C           2.5210   -2.0790    0.0000 C.3     1  LIG1        0.2898
     22 O           1.5330   -1.9830    0.0000 O.2     1  LIG1       -0.4035
     23 C           3.4750   -2.0040    0.0000 C.3     1  LIG1        0.0887
     24 C           3.8790   -0.8790    0.0000 C.3     1  LIG1        0.0887
@<TRIPOS>BOND
     1     1     2    1
     2     1    19    2
     3     1    22    1
     4     2     3   am
     5     2    12    1
     6     3     4   am
     7     3    11    2
     8     4     5    1
     9     5     6    1
    10     5    10    1
    11     6     7    1
    12     7     8    1
    13     8     9    1
    14     9    10    1
    15    12    13   ar
    16    12    18   ar
    17    13    14   ar
    18    14    15    1
    19    14    16   ar
    20    16    17   ar
    21    17    18   ar
    22    19    20    1
    23    20    21    1
    24    20    23    1
    25    20    24    1
    26    21    22    1
