@<TRIPOS>MOLECULE
33144_ChemDiv_7399-0218
 19 22 0 0 0
SMALL
GASTEIGER
Energy = 0

@<TRIPOS>ATOM
      1 C           0.0130    0.1130    0.0000 C.3     1  LIG1        0.2081
      2 C          -0.2460    1.0670    0.0000 C.ar    1  LIG1        0.0294
      3 C           0.6130    1.5630    0.0000 C.ar    1  LIG1        0.0723
      4 N           1.4670    1.0670    0.0000 N.am    1  LIG1       -0.1770
      5 C           1.2540    0.0960    0.0000 C.2     1  LIG1        0.2772
      6 O           1.9630   -0.5790    0.0000 O.2     1  LIG1       -0.2699
      7 C           0.6130    2.5460    0.0000 C.ar    1  LIG1        0.0169
      8 C          -0.2460    3.0460    0.0000 C.ar    1  LIG1        0.0080
      9 C          -1.0960    2.5460    0.0000 C.ar    1  LIG1        0.0344
     10 C          -1.0960    1.5630    0.0000 C.ar    1  LIG1        0.0066
     11 BR         -1.9670    3.0500    0.0000 Br      1  LIG1       -0.0490
     12 N           0.5130   -0.7500    0.0000 N.pl3   1  LIG1       -0.2169
     13 C          -0.1540   -1.4920    0.0000 C.ar    1  LIG1        0.0727
     14 C          -1.0460   -1.0830    0.0000 C.ar    1  LIG1        0.0423
     15 S          -0.9540   -0.1000    0.0000 S.3     1  LIG1       -0.0812
     16 C          -1.8500   -1.6500    0.0000 C.ar    1  LIG1        0.0075
     17 C          -1.7580   -2.6380    0.0000 C.ar    1  LIG1        0.0006
     18 C          -0.8710   -3.0460    0.0000 C.ar    1  LIG1        0.0014
     19 C          -0.0630   -2.4710    0.0000 C.ar    1  LIG1        0.0166
@<TRIPOS>BOND
     1     1     2    1
     2     1     5    1
     3     1    12    1
     4     1    15    1
     5     2     3   ar
     6     2    10   ar
     7     3     4    1
     8     3     7   ar
     9     4     5   am
    10     5     6    2
    11     7     8   ar
    12     8     9   ar
    13     9    10   ar
    14     9    11    1
    15    12    13    1
    16    13    14   ar
    17    13    19   ar
    18    14    15    1
    19    14    16   ar
    20    16    17   ar
    21    17    18   ar
    22    18    19   ar
