@<TRIPOS>MOLECULE
33146_ChemDiv_7399-0304
 24 27 0 0 0
SMALL
GASTEIGER
Energy = 0

@<TRIPOS>ATOM
      1 C          -0.9500   -1.6750    0.0000 C.ar    1  LIG1        0.3940
      2 N          -1.5290   -2.4750    0.0000 N.ar    1  LIG1       -0.1773
      3 C          -2.4750   -2.1630    0.0000 C.ar    1  LIG1        0.1218
      4 C          -2.4750   -1.1710    0.0000 C.ar    1  LIG1        0.1684
      5 O          -1.5290   -0.8670    0.0000 O.2     1  LIG1       -0.4102
      6 C          -3.3330   -0.6710    0.0000 C.ar    1  LIG1        0.0506
      7 C          -4.2000   -1.1710    0.0000 C.ar    1  LIG1        0.0608
      8 C          -4.2000   -2.1630    0.0000 C.ar    1  LIG1        0.0131
      9 C          -3.3330   -2.6630    0.0000 C.ar    1  LIG1        0.0233
     10 CL         -5.0670   -0.6710    0.0000 Cl      1  LIG1       -0.0821
     11 N           0.0420   -1.6830    0.0000 N.pl3   1  LIG1        0.0192
     12 C           0.5420   -0.8210    0.0000 C.cat   1  LIG1        0.4531
     13 N           0.0420    0.0420    0.0000 N.2     1  LIG1       -0.0343
     14 C           0.5420    0.9130    0.0000 C.3     1  LIG1        0.3724
     15 N           1.5460    0.9130    0.0000 N.4     1  LIG1        0.4457
     16 C           2.0420    0.0380    0.0000 C.3     1  LIG1        0.3602
     17 N           1.5460   -0.8210    0.0000 N.pl3   1  LIG1       -0.0022
     18 C           2.0500    1.7880    0.0000 C.3     1  LIG1        0.1763
     19 C           3.0540    1.7880    0.0000 C.ar    1  LIG1        0.0347
     20 C           3.5580    0.9130    0.0000 C.ar    1  LIG1        0.0014
     21 C           4.5630    0.9170    0.0000 C.ar    1  LIG1       -0.0001
     22 C           5.0630    1.7920    0.0000 C.ar    1  LIG1       -0.0000
     23 C           4.5500    2.6670    0.0000 C.ar    1  LIG1       -0.0001
     24 C           3.5420    2.6630    0.0000 C.ar    1  LIG1        0.0014
@<TRIPOS>BOND
     1     1     2   ar
     2     1     5   ar
     3     1    11    1
     4     2     3   ar
     5     3     4   ar
     6     3     9   ar
     7     4     5   ar
     8     4     6   ar
     9     6     7   ar
    10     7     8   ar
    11     7    10    1
    12     8     9   ar
    13    11    12    1
    14    12    13    2
    15    12    17    1
    16    13    14    1
    17    14    15    1
    18    15    16    1
    19    15    18    1
    20    16    17    1
    21    18    19    1
    22    19    20   ar
    23    19    24   ar
    24    20    21   ar
    25    21    22   ar
    26    22    23   ar
    27    23    24   ar
