@<TRIPOS>MOLECULE
33141_ChemDiv_7165-0839
 14 16 0 0 0
SMALL
GASTEIGER
Energy = 0

@<TRIPOS>ATOM
      1 C           0.1880    0.8920    0.0000 C.ar    1  LIG1        0.0428
      2 C           0.4920   -0.0630    0.0000 C.ar    1  LIG1        0.0502
      3 S           1.5000   -0.0630    0.0000 S.2     1  LIG1        0.0146
      4 N           1.8130    0.8960    0.0000 N.ar    1  LIG1       -0.1910
      5 C           0.9960    1.4880    0.0000 C.ar    1  LIG1        0.1778
      6 N           0.9920    2.4880    0.0000 N.pl3   1  LIG1       -0.1065
      7 C          -0.1750   -0.8000    0.0000 C.ar    1  LIG1        0.0075
      8 C          -1.1500   -0.5920    0.0000 C.ar    1  LIG1        0.0005
      9 C          -1.4630    0.3580    0.0000 C.ar    1  LIG1        0.0001
     10 C          -0.7920    1.1000    0.0000 C.ar    1  LIG1        0.0034
     11 C          -1.8170   -1.3290    0.0000 C.ar    1  LIG1        0.0000
     12 C          -1.5040   -2.2790    0.0000 C.ar    1  LIG1        0.0000
     13 C          -0.5250   -2.4830    0.0000 C.ar    1  LIG1        0.0000
     14 C           0.1330   -1.7460    0.0000 C.ar    1  LIG1        0.0005
@<TRIPOS>BOND
     1     1     2   ar
     2     1     5   ar
     3     1    10   ar
     4     2     3   ar
     5     2     7   ar
     6     3     4   ar
     7     4     5   ar
     8     5     6    1
     9     7     8   ar
    10     7    14   ar
    11     8     9   ar
    12     8    11   ar
    13     9    10   ar
    14    11    12   ar
    15    12    13   ar
    16    13    14   ar
