@<TRIPOS>MOLECULE
33145_ChemDiv_7173-0021
 23 25 0 0 0
SMALL
GASTEIGER
Energy = 0

@<TRIPOS>ATOM
      1 S          -0.4420    0.7420    0.0000 S.O2    1  LIG1        0.0768
      2 C          -0.4420   -0.2630    0.0000 C.ar    1  LIG1        0.1237
      3 C           0.4250   -0.7580    0.0000 C.ar    1  LIG1        0.0248
      4 C           0.4250   -1.7670    0.0000 C.ar    1  LIG1        0.0594
      5 C           1.2920   -2.2710    0.0000 C.ar    1  LIG1        0.2818
      6 N           1.2920   -3.2500    0.0000 N.ar    1  LIG1       -0.1690
      7 C           0.4250   -3.7500    0.0000 C.ar    1  LIG1        0.2818
      8 C          -0.4420   -3.2540    0.0000 C.ar    1  LIG1        0.0581
      9 C          -0.4420   -2.2630    0.0000 C.ar    1  LIG1        0.0094
     10 C          -1.3080   -1.7670    0.0000 C.ar    1  LIG1        0.0016
     11 C          -1.3080   -0.7580    0.0000 C.ar    1  LIG1        0.0200
     12 C          -2.1670   -2.2630    0.0000 C.ar    1  LIG1        0.0000
     13 C          -2.1670   -3.2630    0.0000 C.ar    1  LIG1        0.0002
     14 C          -1.2960   -3.7580    0.0000 C.ar    1  LIG1        0.0048
     15 O           0.4330   -4.7540    0.0000 O.2     1  LIG1       -0.2651
     16 O           2.1630   -1.7670    0.0000 O.2     1  LIG1       -0.2651
     17 O          -1.4420    0.7420    0.0000 O.2     1  LIG1       -0.1516
     18 O           0.5580    0.7420    0.0000 O.2     1  LIG1       -0.1516
     19 N          -0.4420    1.7420    0.0000 N.3     1  LIG1       -0.0777
     20 C           0.4250    2.2460    0.0000 C.3     1  LIG1        0.1182
     21 C           0.4250    3.2500    0.0000 C.3     1  LIG1        0.0563
     22 C           1.2880    3.7540    0.0000 C.3     1  LIG1        0.1837
     23 O           1.2880    4.7540    0.0000 O.3     1  LIG1       -0.2204
@<TRIPOS>BOND
     1     1     2    1
     2     1    17    2
     3     1    18    2
     4     1    19    1
     5     2     3   ar
     6     2    11   ar
     7     3     4   ar
     8     4     5   ar
     9     4     9   ar
    10     5     6   ar
    11     5    16    2
    12     6     7   ar
    13     7     8   ar
    14     7    15    2
    15     8     9   ar
    16     8    14   ar
    17     9    10   ar
    18    10    11   ar
    19    10    12   ar
    20    12    13   ar
    21    13    14   ar
    22    19    20    1
    23    20    21    1
    24    21    22    1
    25    22    23    1
