@<TRIPOS>MOLECULE
33152_ChemDiv_7406-0023
 33 38 0 0 0
SMALL
GASTEIGER
Energy = 0

@<TRIPOS>ATOM
      1 N           0.1040   -0.5580    0.0000 N.am    1  LIG1       -0.2225
      2 C          -0.4750    0.2500    0.0000 C.2     1  LIG1        0.2551
      3 C          -1.4250   -0.0580    0.0000 C.ar    1  LIG1        0.0580
      4 C          -1.4250   -1.0580    0.0000 C.ar    1  LIG1        0.0583
      5 C          -0.4750   -1.3630    0.0000 C.2     1  LIG1        0.2551
      6 O          -0.1670   -2.3170    0.0000 O.2     1  LIG1       -0.2695
      7 C          -2.2920   -1.5580    0.0000 C.ar    1  LIG1        0.0044
      8 C          -3.1580   -1.0580    0.0000 C.ar    1  LIG1       -0.0041
      9 C          -3.1580   -0.0580    0.0000 C.ar    1  LIG1       -0.0227
     10 C          -4.0330    0.4420    0.0000 C.3     1  LIG1        0.0189
     11 C          -3.6250    1.1880    0.0000 C.3     1  LIG1        0.0040
     12 C          -4.1250    2.0540    0.0000 C.3     1  LIG1        0.0003
     13 C          -5.0830    1.8040    0.0000 C.3     1  LIG1        0.0000
     14 C          -5.6670    0.9880    0.0000 C.3     1  LIG1        0.0003
     15 C          -5.1290    0.1540    0.0000 C.3     1  LIG1        0.0040
     16 C          -6.6170    1.2920    0.0000 C.3     1  LIG1        0.0000
     17 C          -5.6290    1.4880    0.0000 C.3     1  LIG1        0.0003
     18 C          -5.0000    0.7040    0.0000 C.3     1  LIG1        0.0040
     19 C          -5.0830    2.3210    0.0000 C.3     1  LIG1        0.0000
     20 C          -2.2920    0.4420    0.0000 C.ar    1  LIG1        0.0004
     21 O          -0.1670    1.2040    0.0000 O.2     1  LIG1       -0.2695
     22 C           1.1040   -0.5670    0.0000 C.3     1  LIG1        0.1062
     23 C           1.6040    0.2960    0.0000 C.3     1  LIG1        0.0483
     24 C           2.6130    0.2960    0.0000 C.ar    1  LIG1       -0.0204
     25 C           3.1130   -0.5750    0.0000 C.ar    1  LIG1       -0.0028
     26 C           4.1210   -0.5750    0.0000 C.ar    1  LIG1        0.0197
     27 C           4.6210    0.2960    0.0000 C.ar    1  LIG1        0.1250
     28 S           5.6210    0.3040    0.0000 S.O2    1  LIG1        0.0935
     29 O           5.6040    1.3040    0.0000 O.2     1  LIG1       -0.1503
     30 O           5.6290   -0.6960    0.0000 O.2     1  LIG1       -0.1503
     31 N           6.6170    0.3210    0.0000 N.3     1  LIG1        0.0392
     32 C           4.1210    1.1580    0.0000 C.ar    1  LIG1        0.0197
     33 C           3.1130    1.1580    0.0000 C.ar    1  LIG1       -0.0028
@<TRIPOS>BOND
     1     1     2   am
     2     1     5   am
     3     1    22    1
     4     2     3    1
     5     2    21    2
     6     3     4   ar
     7     3    20   ar
     8     4     5    1
     9     4     7   ar
    10     5     6    2
    11     7     8   ar
    12     8     9   ar
    13     9    10    1
    14     9    20   ar
    15    10    11    1
    16    10    15    1
    17    10    18    1
    18    11    12    1
    19    12    13    1
    20    12    19    1
    21    13    14    1
    22    14    15    1
    23    14    16    1
    24    16    17    1
    25    17    18    1
    26    17    19    1
    27    22    23    1
    28    23    24    1
    29    24    25   ar
    30    24    33   ar
    31    25    26   ar
    32    26    27   ar
    33    27    28    1
    34    27    32   ar
    35    28    29    2
    36    28    30    2
    37    28    31    1
    38    32    33   ar
