@<TRIPOS>MOLECULE
33169_ChemDiv_7182-3763
 31 34 0 0 0
SMALL
GASTEIGER
Energy = 0

@<TRIPOS>ATOM
      1 N          -2.9460    1.7460    0.0000 N.ar    1  LIG1       -0.2808
      2 C          -2.3580    2.5380    0.0000 C.ar    1  LIG1        0.2927
      3 S          -2.9500    3.3630    0.0000 S.2     1  LIG1       -0.0260
      4 C          -3.8920    3.0580    0.0000 C.ar    1  LIG1        0.0497
      5 C          -3.9000    2.0670    0.0000 C.ar    1  LIG1        0.0695
      6 C          -4.7670    1.5710    0.0000 C.ar    1  LIG1        0.0178
      7 C          -5.6290    2.0670    0.0000 C.ar    1  LIG1        0.0015
      8 C          -5.6210    3.0670    0.0000 C.ar    1  LIG1        0.0006
      9 C          -4.7500    3.5630    0.0000 C.ar    1  LIG1        0.0081
     10 O          -1.3580    2.5380    0.0000 O.2     1  LIG1       -0.2594
     11 C          -2.7040    0.7750    0.0000 C.3     1  LIG1        0.1966
     12 C          -1.7380    0.5080    0.0000 C.2     1  LIG1        0.2705
     13 N          -1.4880   -0.4630    0.0000 N.am    1  LIG1       -0.1512
     14 C          -0.5170   -0.7210    0.0000 C.ar    1  LIG1        0.2085
     15 S           0.2710   -0.1080    0.0000 S.2     1  LIG1       -0.0225
     16 C           1.1000   -0.6670    0.0000 C.ar    1  LIG1        0.1607
     17 N           0.8330   -1.6290    0.0000 N.ar    1  LIG1       -0.1331
     18 N          -0.1540   -1.6880    0.0000 N.ar    1  LIG1       -0.1231
     19 S           2.0460   -0.3130    0.0000 S.3     1  LIG1       -0.0861
     20 C           2.8130   -0.9460    0.0000 C.3     1  LIG1        0.0738
     21 C           2.6500   -1.9460    0.0000 C.3     1  LIG1        0.0992
     22 C           3.4170   -2.5710    0.0000 C.2     1  LIG1        0.2465
     23 N           4.3460   -2.2330    0.0000 N.am    1  LIG1       -0.1792
     24 C           4.5170   -1.2330    0.0000 C.ar    1  LIG1        0.0734
     25 C           5.4540   -0.8960    0.0000 C.ar    1  LIG1        0.0166
     26 C           5.6250    0.0830    0.0000 C.ar    1  LIG1        0.0013
     27 C           4.8500    0.7250    0.0000 C.ar    1  LIG1        0.0001
     28 C           3.9080    0.3710    0.0000 C.ar    1  LIG1        0.0013
     29 C           3.7540   -0.6130    0.0000 C.ar    1  LIG1        0.0166
     30 O           3.2540   -3.5580    0.0000 O.2     1  LIG1       -0.2730
     31 O          -1.0250    1.2130    0.0000 O.2     1  LIG1       -0.2708
@<TRIPOS>BOND
     1     1     2   ar
     2     1     5   ar
     3     1    11    1
     4     2     3   ar
     5     2    10    2
     6     3     4   ar
     7     4     5   ar
     8     4     9   ar
     9     5     6   ar
    10     6     7   ar
    11     7     8   ar
    12     8     9   ar
    13    11    12    1
    14    12    13   am
    15    12    31    2
    16    13    14    1
    17    14    15   ar
    18    14    18   ar
    19    15    16   ar
    20    16    17   ar
    21    16    19    1
    22    17    18   ar
    23    19    20    1
    24    20    21    1
    25    21    22    1
    26    22    23   am
    27    22    30    2
    28    23    24    1
    29    24    25   ar
    30    24    29   ar
    31    25    26   ar
    32    26    27   ar
    33    27    28   ar
    34    28    29   ar
