@<TRIPOS>MOLECULE
33166_ChemDiv_7746-0011
 29 32 0 0 0
SMALL
GASTEIGER
Energy = 0

@<TRIPOS>ATOM
      1 C          -0.4330   -1.7420    0.0000 C.3     1  LIG1        0.0649
      2 C          -0.4330   -0.7420    0.0000 C.3     1  LIG1        0.1275
      3 C          -1.2960   -0.2420    0.0000 C.2     1  LIG1        0.1802
      4 C          -1.2960    0.7580    0.0000 C.ar    1  LIG1        0.0351
      5 C          -0.4330    1.2580    0.0000 C.ar    1  LIG1        0.0025
      6 C          -0.4330    2.2580    0.0000 C.ar    1  LIG1       -0.0042
      7 C          -1.2960    2.7580    0.0000 C.ar    1  LIG1       -0.0218
      8 C          -2.1670    2.2460    0.0000 C.ar    1  LIG1       -0.0042
      9 C          -2.1580    1.2580    0.0000 C.ar    1  LIG1        0.0025
     10 C          -1.2960    3.7580    0.0000 C.3     1  LIG1        0.0310
     11 O          -2.1670   -0.7420    0.0000 O.2     1  LIG1       -0.2909
     12 C           0.4330   -0.2420    0.0000 C.2     1  LIG1        0.1586
     13 O           0.4330    0.7580    0.0000 O.2     1  LIG1       -0.2956
     14 C           1.2960   -0.7420    0.0000 C.3     1  LIG1        0.0727
     15 C           0.4330   -2.2460    0.0000 C.ar    1  LIG1        0.0201
     16 C           0.4330   -3.2460    0.0000 C.ar    1  LIG1        0.1418
     17 O          -0.4330   -3.7540    0.0000 O.3     1  LIG1       -0.4541
     18 C          -1.3000   -3.2460    0.0000 C.ar    1  LIG1        0.1416
     19 C          -1.2960   -2.2460    0.0000 C.ar    1  LIG1        0.0170
     20 C          -2.1670   -1.7420    0.0000 C.ar    1  LIG1       -0.0009
     21 C          -3.0290   -2.2540    0.0000 C.ar    1  LIG1       -0.0001
     22 C          -3.0290   -3.2540    0.0000 C.ar    1  LIG1        0.0031
     23 C          -2.1670   -3.7540    0.0000 C.ar    1  LIG1        0.0372
     24 C           1.2960   -3.7460    0.0000 C.ar    1  LIG1        0.0403
     25 C           2.1580   -3.2460    0.0000 C.ar    1  LIG1        0.0400
     26 C           2.1580   -2.2460    0.0000 C.ar    1  LIG1        0.1386
     27 C           1.2960   -1.7420    0.0000 C.ar    1  LIG1        0.0360
     28 O           3.0250   -1.7420    0.0000 O.3     1  LIG1       -0.4714
     29 C           3.0250   -0.7420    0.0000 C.3     1  LIG1        0.2525
@<TRIPOS>BOND
     1     1     2    1
     2     1    15    1
     3     1    19    1
     4     2     3    1
     5     2    12    1
     6     3     4    1
     7     3    11    2
     8     4     5   ar
     9     4     9   ar
    10     5     6   ar
    11     6     7   ar
    12     7     8   ar
    13     7    10    1
    14     8     9   ar
    15    12    13    2
    16    12    14    1
    17    15    16   ar
    18    15    27   ar
    19    16    17    1
    20    16    24   ar
    21    17    18    1
    22    18    19   ar
    23    18    23   ar
    24    19    20   ar
    25    20    21   ar
    26    21    22   ar
    27    22    23   ar
    28    24    25   ar
    29    25    26   ar
    30    26    27   ar
    31    26    28    1
    32    28    29    1
