@<TRIPOS>MOLECULE
33174_ChemDiv_7421-3355
 19 22 0 0 0
SMALL
GASTEIGER
Energy = 0

@<TRIPOS>ATOM
      1 N           0.4540   -0.2880    0.0000 N.ar    1  LIG1       -0.2111
      2 C          -0.4040    0.2170    0.0000 C.ar    1  LIG1        0.1637
      3 N          -0.1830    1.1960    0.0000 N.ar    1  LIG1       -0.2250
      4 C           0.8130    1.2960    0.0000 C.ar    1  LIG1        0.1020
      5 C           1.2080    0.3750    0.0000 C.ar    1  LIG1        0.1021
      6 C           2.2040    0.2710    0.0000 C.ar    1  LIG1        0.0221
      7 C           2.8040    1.0710    0.0000 C.ar    1  LIG1        0.0197
      8 C           2.3960    1.9920    0.0000 C.ar    1  LIG1        0.0907
      9 C           1.4000    2.0960    0.0000 C.ar    1  LIG1        0.0387
     10 N           2.9830    2.7960    0.0000 N.pl3   1  LIG1       -0.1280
     11 C          -1.2630   -0.2880    0.0000 C.ar    1  LIG1        0.0370
     12 C          -1.2710   -1.2960    0.0000 C.ar    1  LIG1        0.0182
     13 C          -0.4040   -1.7960    0.0000 C.ar    1  LIG1        0.0794
     14 N           0.4710   -1.2960    0.0000 N.ar    1  LIG1       -0.1681
     15 C          -0.4040   -2.7920    0.0000 C.3     1  LIG1        0.0539
     16 C          -2.1290   -1.7920    0.0000 C.ar    1  LIG1        0.0013
     17 C          -2.9880   -1.2920    0.0000 C.ar    1  LIG1        0.0000
     18 C          -2.9880   -0.2960    0.0000 C.ar    1  LIG1        0.0001
     19 C          -2.1290    0.2130    0.0000 C.ar    1  LIG1        0.0031
@<TRIPOS>BOND
     1     1     2   ar
     2     1     5   ar
     3     1    14   ar
     4     2     3   ar
     5     2    11   ar
     6     3     4   ar
     7     4     5   ar
     8     4     9   ar
     9     5     6   ar
    10     6     7   ar
    11     7     8   ar
    12     8     9   ar
    13     8    10    1
    14    11    12   ar
    15    11    19   ar
    16    12    13   ar
    17    12    16   ar
    18    13    14   ar
    19    13    15    1
    20    16    17   ar
    21    17    18   ar
    22    18    19   ar
