@<TRIPOS>MOLECULE
33170_ChemDiv_7406-0035
 27 32 0 0 0
SMALL
GASTEIGER
Energy = 0

@<TRIPOS>ATOM
      1 N           1.6130   -0.6250    0.0000 N.am    1  LIG1       -0.1823
      2 C           1.0540    0.2210    0.0000 C.2     1  LIG1        0.2601
      3 C           0.0710   -0.0540    0.0000 C.ar    1  LIG1        0.0584
      4 C           0.0420   -1.0670    0.0000 C.ar    1  LIG1        0.0587
      5 C           0.9880   -1.4170    0.0000 C.2     1  LIG1        0.2601
      6 O           1.2630   -2.3830    0.0000 O.2     1  LIG1       -0.2691
      7 C          -0.8380   -1.5380    0.0000 C.ar    1  LIG1        0.0044
      8 C          -1.6830   -1.0080    0.0000 C.ar    1  LIG1       -0.0041
      9 C          -1.6420   -0.0080    0.0000 C.ar    1  LIG1       -0.0227
     10 C          -2.4920    0.5210    0.0000 C.3     1  LIG1        0.0189
     11 C          -3.3630    0.8380    0.0000 C.3     1  LIG1        0.0040
     12 C          -3.8920    1.5960    0.0000 C.3     1  LIG1        0.0003
     13 C          -3.3630    2.3880    0.0000 C.3     1  LIG1        0.0000
     14 C          -2.4580    2.1540    0.0000 C.3     1  LIG1        0.0003
     15 C          -1.9250    1.3290    0.0000 C.3     1  LIG1        0.0040
     16 C          -3.4710    1.8670    0.0000 C.3     1  LIG1        0.0000
     17 C          -4.0460    1.0210    0.0000 C.3     1  LIG1        0.0003
     18 C          -3.5000    0.2040    0.0000 C.3     1  LIG1        0.0040
     19 C          -5.0000    1.3420    0.0000 C.3     1  LIG1        0.0000
     20 C          -0.7670    0.4630    0.0000 C.ar    1  LIG1        0.0004
     21 O           1.3960    1.1580    0.0000 O.2     1  LIG1       -0.2691
     22 C           2.6130   -0.6580    0.0000 C.ar    1  LIG1        0.1855
     23 N           3.1670   -1.4920    0.0000 N.ar    1  LIG1       -0.0615
     24 O           4.1250   -1.2170    0.0000 O.2     1  LIG1       -0.3565
     25 C           4.1710   -0.2210    0.0000 C.ar    1  LIG1        0.1562
     26 C           3.2330    0.1290    0.0000 C.ar    1  LIG1        0.0740
     27 C           4.9960    0.3420    0.0000 C.3     1  LIG1        0.0754
@<TRIPOS>BOND
     1     1     2   am
     2     1     5   am
     3     1    22    1
     4     2     3    1
     5     2    21    2
     6     3     4   ar
     7     3    20   ar
     8     4     5    1
     9     4     7   ar
    10     5     6    2
    11     7     8   ar
    12     8     9   ar
    13     9    10    1
    14     9    20   ar
    15    10    11    1
    16    10    15    1
    17    10    18    1
    18    11    12    1
    19    12    13    1
    20    12    19    1
    21    13    14    1
    22    14    15    1
    23    14    16    1
    24    16    17    1
    25    17    18    1
    26    17    19    1
    27    22    23   ar
    28    22    26   ar
    29    23    24   ar
    30    24    25   ar
    31    25    26   ar
    32    25    27    1
