@<TRIPOS>MOLECULE
33177_ChemDiv_7202-2283
 23 25 0 0 0
SMALL
GASTEIGER
Energy = 0

@<TRIPOS>ATOM
      1 S          -0.8420    0.0000    0.0000 S.O2    1  LIG1       -0.0577
      2 N          -1.7170   -0.5040    0.0000 N.pl3   1  LIG1       -0.5358
      3 C          -2.5790    0.0040    0.0000 C.ar    1  LIG1       -0.1112
      4 C          -3.4420   -0.4960    0.0000 C.ar    1  LIG1       -0.0081
      5 C          -3.4420   -1.4960    0.0000 C.2     1  LIG1        0.0711
      6 O          -2.5790   -1.9880    0.0000 O.co2   1  LIG1       -0.5447
      7 O          -4.3080   -1.9960    0.0000 O.co2   1  LIG1       -0.5447
      8 C          -4.3080    0.0040    0.0000 C.ar    1  LIG1       -0.0007
      9 C          -4.3080    1.0040    0.0000 C.ar    1  LIG1       -0.0001
     10 C          -3.4420    1.5040    0.0000 C.ar    1  LIG1       -0.0019
     11 C          -2.5790    1.0040    0.0000 C.ar    1  LIG1       -0.0238
     12 C           0.0290    0.5000    0.0000 C.ar    1  LIG1        0.0909
     13 C           0.9040    0.0000    0.0000 C.ar    1  LIG1        0.0377
     14 C           1.7670    0.5000    0.0000 C.ar    1  LIG1        0.1050
     15 N           2.7080    0.1960    0.0000 N.ar    1  LIG1       -0.1893
     16 C           3.3000    1.0040    0.0000 C.ar    1  LIG1        0.3688
     17 N           2.7080    1.8080    0.0000 N.ar    1  LIG1       -0.1893
     18 C           1.7670    1.5000    0.0000 C.ar    1  LIG1        0.1038
     19 C           0.9040    2.0000    0.0000 C.ar    1  LIG1        0.0221
     20 C           0.0290    1.5000    0.0000 C.ar    1  LIG1        0.0186
     21 O           4.3040    1.0130    0.0000 O.2     1  LIG1       -0.2426
     22 O          -1.3420    0.8750    0.0000 O.2     1  LIG1       -0.1842
     23 O          -0.3380   -0.8710    0.0000 O.2     1  LIG1       -0.1842
@<TRIPOS>BOND
     1     1     2    1
     2     1    12    1
     3     1    22    2
     4     1    23    2
     5     2     3    1
     6     3     4   ar
     7     3    11   ar
     8     4     5    1
     9     4     8   ar
    10     5     6   ar
    11     5     7   ar
    12     8     9   ar
    13     9    10   ar
    14    10    11   ar
    15    12    13   ar
    16    12    20   ar
    17    13    14   ar
    18    14    15   ar
    19    14    18   ar
    20    15    16   ar
    21    16    17   ar
    22    16    21    2
    23    17    18   ar
    24    18    19   ar
    25    19    20   ar
