@<TRIPOS>MOLECULE
33172_ChemDiv_7418-1990
 32 35 0 0 0
SMALL
GASTEIGER
Energy = 0

@<TRIPOS>ATOM
      1 N          -3.1790   -2.8460    0.0000 N.ar    1  LIG1       -0.1893
      2 C          -3.1380   -1.8500    0.0000 C.ar    1  LIG1        0.2183
      3 S          -2.1830   -1.5830    0.0000 S.2     1  LIG1       -0.0262
      4 C          -1.6290   -2.4130    0.0000 C.ar    1  LIG1        0.1336
      5 N          -2.2460   -3.1960    0.0000 N.ar    1  LIG1       -0.1555
      6 C          -0.6420   -2.4540    0.0000 C.ar    1  LIG1        0.0269
      7 C          -0.1130   -1.6130    0.0000 C.ar    1  LIG1        0.0184
      8 C           0.8830   -1.6460    0.0000 C.ar    1  LIG1        0.0698
      9 N           1.4130   -0.8000    0.0000 N.am    1  LIG1       -0.1758
     10 C           1.7000    0.1540    0.0000 C.2     1  LIG1        0.2692
     11 C           2.3960    0.8790    0.0000 C.ar    1  LIG1        0.0616
     12 C           2.1210    1.8330    0.0000 C.ar    1  LIG1        0.0448
     13 C           2.8170    2.5710    0.0000 C.ar    1  LIG1        0.1756
     14 C           3.8000    2.3170    0.0000 C.ar    1  LIG1        0.2061
     15 C           4.0710    1.3630    0.0000 C.ar    1  LIG1        0.1756
     16 C           3.3710    0.6380    0.0000 C.ar    1  LIG1        0.0448
     17 O           5.0460    1.1080    0.0000 O.3     1  LIG1       -0.4683
     18 C           5.3250    0.1420    0.0000 C.3     1  LIG1        0.2526
     19 O           4.4920    3.0420    0.0000 O.3     1  LIG1       -0.4654
     20 C           5.4710    2.7960    0.0000 C.3     1  LIG1        0.2528
     21 O           2.5460    3.5380    0.0000 O.3     1  LIG1       -0.4683
     22 C           1.8210    4.2250    0.0000 C.3     1  LIG1        0.2526
     23 O           0.8380    0.6670    0.0000 O.2     1  LIG1       -0.2680
     24 C           1.3500   -2.5330    0.0000 C.ar    1  LIG1       -0.0065
     25 C           0.8250   -3.3750    0.0000 C.ar    1  LIG1       -0.0029
     26 C          -0.1750   -3.3330    0.0000 C.ar    1  LIG1        0.0018
     27 C           2.3500   -2.5670    0.0000 C.3     1  LIG1        0.0324
     28 N          -4.0830   -1.5080    0.0000 N.ar    1  LIG1       -0.1203
     29 N          -4.6920   -2.2920    0.0000 N.ar    1  LIG1       -0.1310
     30 C          -4.1460   -3.1170    0.0000 C.ar    1  LIG1        0.1643
     31 C          -4.4830   -4.0540    0.0000 C.3     1  LIG1        0.0677
     32 C          -5.4750   -4.2250    0.0000 C.3     1  LIG1        0.0085
@<TRIPOS>BOND
     1     1     2   ar
     2     1     5   ar
     3     1    30   ar
     4     2     3   ar
     5     2    28   ar
     6     3     4   ar
     7     4     5   ar
     8     4     6    1
     9     6     7   ar
    10     6    26   ar
    11     7     8   ar
    12     8     9    1
    13     8    24   ar
    14     9    10   am
    15    10    11    1
    16    10    23    2
    17    11    12   ar
    18    11    16   ar
    19    12    13   ar
    20    13    14   ar
    21    13    21    1
    22    14    15   ar
    23    14    19    1
    24    15    16   ar
    25    15    17    1
    26    17    18    1
    27    19    20    1
    28    21    22    1
    29    24    25   ar
    30    24    27    1
    31    25    26   ar
    32    28    29   ar
    33    29    30   ar
    34    30    31    1
    35    31    32    1
