@<TRIPOS>MOLECULE
33175_ChemDiv_7202-2282
 23 25 0 0 0
SMALL
GASTEIGER
Energy = 0

@<TRIPOS>ATOM
      1 S          -0.8380   -1.0750    0.0000 S.O2    1  LIG1       -0.0577
      2 C           0.0420   -0.5790    0.0000 C.ar    1  LIG1        0.0909
      3 C           0.9040   -1.0750    0.0000 C.ar    1  LIG1        0.0377
      4 C           1.7670   -0.5790    0.0000 C.ar    1  LIG1        0.1050
      5 N           2.7170   -0.8830    0.0000 N.ar    1  LIG1       -0.1893
      6 C           3.3000   -0.0670    0.0000 C.ar    1  LIG1        0.3688
      7 N           2.7170    0.7330    0.0000 N.ar    1  LIG1       -0.1893
      8 C           1.7670    0.4210    0.0000 C.ar    1  LIG1        0.1038
      9 C           0.9040    0.9210    0.0000 C.ar    1  LIG1        0.0221
     10 C           0.0420    0.4210    0.0000 C.ar    1  LIG1        0.0186
     11 O           4.3000   -0.0670    0.0000 O.2     1  LIG1       -0.2426
     12 N          -1.7040   -1.5750    0.0000 N.pl3   1  LIG1       -0.5358
     13 C          -2.5630   -1.0670    0.0000 C.ar    1  LIG1       -0.1123
     14 C          -2.5580   -0.0670    0.0000 C.ar    1  LIG1       -0.0227
     15 C          -3.4210    0.4290    0.0000 C.ar    1  LIG1        0.0122
     16 C          -3.3960    1.4290    0.0000 C.2     1  LIG1        0.0728
     17 O          -4.2580    1.9460    0.0000 O.co2   1  LIG1       -0.5446
     18 O          -2.5290    1.9130    0.0000 O.co2   1  LIG1       -0.5446
     19 C          -4.3000   -0.0540    0.0000 C.ar    1  LIG1        0.0010
     20 C          -4.3040   -1.0500    0.0000 C.ar    1  LIG1       -0.0018
     21 C          -3.4380   -1.5630    0.0000 C.ar    1  LIG1       -0.0238
     22 O          -1.3330   -0.2040    0.0000 O.2     1  LIG1       -0.1842
     23 O          -0.3380   -1.9420    0.0000 O.2     1  LIG1       -0.1842
@<TRIPOS>BOND
     1     1     2    1
     2     1    12    1
     3     1    22    2
     4     1    23    2
     5     2     3   ar
     6     2    10   ar
     7     3     4   ar
     8     4     5   ar
     9     4     8   ar
    10     5     6   ar
    11     6     7   ar
    12     6    11    2
    13     7     8   ar
    14     8     9   ar
    15     9    10   ar
    16    12    13    1
    17    13    14   ar
    18    13    21   ar
    19    14    15   ar
    20    15    16    1
    21    15    19   ar
    22    16    17   ar
    23    16    18   ar
    24    19    20   ar
    25    20    21   ar
