@<TRIPOS>MOLECULE
33173_ChemDiv_8017-0941
 31 34 0 0 0
SMALL
GASTEIGER
Energy = 0

@<TRIPOS>ATOM
      1 S          -2.5380   -0.1880    0.0000 S.O2    1  LIG1       -0.0578
      2 N          -1.6830   -0.7130    0.0000 N.pl3   1  LIG1       -0.5358
      3 C          -0.7830   -0.2170    0.0000 C.ar    1  LIG1       -0.1122
      4 C          -0.7830    0.7790    0.0000 C.ar    1  LIG1       -0.0225
      5 C           0.0790    1.2920    0.0000 C.ar    1  LIG1        0.0147
      6 C           0.9630    0.7670    0.0000 C.ar    1  LIG1        0.0733
      7 N           1.8170    1.2710    0.0000 N.am    1  LIG1       -0.1776
      8 C           2.6670    0.7670    0.0000 C.2     1  LIG1        0.2687
      9 C           3.5290    1.2330    0.0000 C.3     1  LIG1        0.1966
     10 N           4.4040    0.7500    0.0000 N.ar    1  LIG1       -0.2808
     11 C           5.3420    1.1330    0.0000 C.ar    1  LIG1        0.2927
     12 S           5.9670    0.4040    0.0000 S.2     1  LIG1       -0.0260
     13 C           5.4670   -0.4500    0.0000 C.ar    1  LIG1        0.0497
     14 C           4.4920   -0.2290    0.0000 C.ar    1  LIG1        0.0695
     15 C           3.8130   -0.9380    0.0000 C.ar    1  LIG1        0.0178
     16 C           4.0920   -1.8790    0.0000 C.ar    1  LIG1        0.0015
     17 C           5.0670   -2.1000    0.0000 C.ar    1  LIG1        0.0006
     18 C           5.7630   -1.4040    0.0000 C.ar    1  LIG1        0.0081
     19 O           5.5920    2.1040    0.0000 O.2     1  LIG1       -0.2594
     20 O           2.6670   -0.2420    0.0000 O.2     1  LIG1       -0.2709
     21 C           0.9500   -0.3250    0.0000 C.ar    1  LIG1        0.0147
     22 C           0.0790   -0.7130    0.0000 C.ar    1  LIG1       -0.0225
     23 C          -3.3960    0.3250    0.0000 C.ar    1  LIG1        0.0893
     24 C          -3.4080    1.3670    0.0000 C.ar    1  LIG1        0.0166
     25 C          -4.2250    1.8880    0.0000 C.ar    1  LIG1       -0.0030
     26 C          -5.1420    1.3670    0.0000 C.ar    1  LIG1       -0.0218
     27 C          -5.1330    0.3920    0.0000 C.ar    1  LIG1       -0.0030
     28 C          -4.2710   -0.1170    0.0000 C.ar    1  LIG1        0.0166
     29 C          -5.9710    1.9420    0.0000 C.3     1  LIG1        0.0310
     30 O          -3.0750   -1.0170    0.0000 O.2     1  LIG1       -0.1842
     31 O          -2.0210    0.6670    0.0000 O.2     1  LIG1       -0.1842
@<TRIPOS>BOND
     1     1     2    1
     2     1    23    1
     3     1    30    2
     4     1    31    2
     5     2     3    1
     6     3     4   ar
     7     3    22   ar
     8     4     5   ar
     9     5     6   ar
    10     6     7    1
    11     6    21   ar
    12     7     8   am
    13     8     9    1
    14     8    20    2
    15     9    10    1
    16    10    11   ar
    17    10    14   ar
    18    11    12   ar
    19    11    19    2
    20    12    13   ar
    21    13    14   ar
    22    13    18   ar
    23    14    15   ar
    24    15    16   ar
    25    16    17   ar
    26    17    18   ar
    27    21    22   ar
    28    23    24   ar
    29    23    28   ar
    30    24    25   ar
    31    25    26   ar
    32    26    27   ar
    33    26    29    1
    34    27    28   ar
