@<TRIPOS>MOLECULE
33171_ChemDiv_7182-3839
 29 32 0 0 0
SMALL
GASTEIGER
Energy = 0

@<TRIPOS>ATOM
      1 S           2.5380   -1.8000    0.0000 S.O2    1  LIG1        0.0634
      2 N           3.5130   -2.0500    0.0000 N.3     1  LIG1       -0.1504
      3 C           4.2170   -1.3500    0.0000 C.3     1  LIG1        0.1279
      4 C           5.1790   -1.5960    0.0000 C.3     1  LIG1        0.1613
      5 O           5.4460   -2.5630    0.0000 O.3     1  LIG1       -0.3507
      6 C           4.7460   -3.2790    0.0000 C.3     1  LIG1        0.1613
      7 C           3.7750   -3.0210    0.0000 C.3     1  LIG1        0.1279
      8 C           1.5790   -1.5330    0.0000 C.ar    1  LIG1        0.1223
      9 C           0.8670   -2.2460    0.0000 C.ar    1  LIG1        0.0212
     10 C          -0.1000   -1.9830    0.0000 C.ar    1  LIG1        0.0180
     11 C          -0.3540   -1.0130    0.0000 C.ar    1  LIG1        0.0735
     12 N          -1.3170   -0.7460    0.0000 N.am    1  LIG1       -0.1776
     13 C          -1.5710    0.2290    0.0000 C.2     1  LIG1        0.2687
     14 C          -2.5380    0.4960    0.0000 C.3     1  LIG1        0.1966
     15 N          -2.7830    1.4670    0.0000 N.ar    1  LIG1       -0.2808
     16 C          -2.1920    2.2630    0.0000 C.ar    1  LIG1        0.2927
     17 S          -2.7830    3.0880    0.0000 S.2     1  LIG1       -0.0260
     18 C          -3.7210    2.7880    0.0000 C.ar    1  LIG1        0.0497
     19 C          -3.7250    1.7830    0.0000 C.ar    1  LIG1        0.0695
     20 C          -4.5920    1.2880    0.0000 C.ar    1  LIG1        0.0178
     21 C          -5.4500    1.7920    0.0000 C.ar    1  LIG1        0.0015
     22 C          -5.4500    2.7920    0.0000 C.ar    1  LIG1        0.0006
     23 C          -4.5710    3.2830    0.0000 C.ar    1  LIG1        0.0081
     24 O          -1.1880    2.2540    0.0000 O.2     1  LIG1       -0.2594
     25 O          -0.8540    0.9380    0.0000 O.2     1  LIG1       -0.2709
     26 C           0.3540   -0.3040    0.0000 C.ar    1  LIG1        0.0180
     27 C           1.3130   -0.5750    0.0000 C.ar    1  LIG1        0.0212
     28 O           2.8000   -0.8290    0.0000 O.2     1  LIG1       -0.1528
     29 O           2.2790   -2.7630    0.0000 O.2     1  LIG1       -0.1528
@<TRIPOS>BOND
     1     1     2    1
     2     1     8    1
     3     1    28    2
     4     1    29    2
     5     2     3    1
     6     2     7    1
     7     3     4    1
     8     4     5    1
     9     5     6    1
    10     6     7    1
    11     8     9   ar
    12     8    27   ar
    13     9    10   ar
    14    10    11   ar
    15    11    12    1
    16    11    26   ar
    17    12    13   am
    18    13    14    1
    19    13    25    2
    20    14    15    1
    21    15    16   ar
    22    15    19   ar
    23    16    17   ar
    24    16    24    2
    25    17    18   ar
    26    18    19   ar
    27    18    23   ar
    28    19    20   ar
    29    20    21   ar
    30    21    22   ar
    31    22    23   ar
    32    26    27   ar
