@<TRIPOS>MOLECULE
33178_ChemDiv_7430-0499
 25 28 0 0 0
SMALL
GASTEIGER
Energy = 0

@<TRIPOS>ATOM
      1 C           0.8580   -0.2460    0.0000 C.ar    1  LIG1        0.1077
      2 C           0.8580   -1.2460    0.0000 C.ar    1  LIG1        0.1498
      3 O          -0.0170   -1.7460    0.0000 O.2     1  LIG1       -0.4534
      4 C          -0.8830   -1.2420    0.0000 C.ar    1  LIG1        0.1483
      5 C          -0.8670   -0.2460    0.0000 C.ar    1  LIG1        0.0731
      6 C          -0.0170    0.2630    0.0000 C.ar    1  LIG1        0.2030
      7 O          -0.0170    1.2580    0.0000 O.2     1  LIG1       -0.2865
      8 C          -1.7380    0.2500    0.0000 C.ar    1  LIG1        0.0020
      9 C          -2.5960   -0.2380    0.0000 C.ar    1  LIG1       -0.0216
     10 C          -2.5960   -1.2460    0.0000 C.ar    1  LIG1       -0.0011
     11 C          -1.7380   -1.7460    0.0000 C.ar    1  LIG1        0.0373
     12 C          -3.4540    0.2630    0.0000 C.3     1  LIG1        0.0310
     13 C           1.7170   -1.7460    0.0000 C.ar    1  LIG1        0.0346
     14 C           1.7170   -2.7500    0.0000 C.ar    1  LIG1        0.0030
     15 C           2.5880   -3.2500    0.0000 C.ar    1  LIG1        0.0001
     16 C           3.4500   -2.7500    0.0000 C.ar    1  LIG1        0.0000
     17 C           3.4460   -1.7460    0.0000 C.ar    1  LIG1        0.0001
     18 C           2.5880   -1.2460    0.0000 C.ar    1  LIG1        0.0030
     19 C           1.7290    0.2500    0.0000 C.3     1  LIG1        0.1727
     20 N           1.7290    1.2580    0.0000 N.4     1  LIG1        0.3849
     21 C           0.8580    1.7540    0.0000 C.3     1  LIG1        0.1718
     22 C           0.8710    2.7710    0.0000 C.3     1  LIG1        0.2048
     23 O           1.7420    3.2540    0.0000 O.3     1  LIG1       -0.3411
     24 C           2.6080    2.7500    0.0000 C.3     1  LIG1        0.2048
     25 C           2.6040    1.7540    0.0000 C.3     1  LIG1        0.1718
@<TRIPOS>BOND
     1     1     2   ar
     2     1     6   ar
     3     1    19    1
     4     2     3   ar
     5     2    13    1
     6     3     4   ar
     7     4     5   ar
     8     4    11   ar
     9     5     6   ar
    10     5     8   ar
    11     6     7    2
    12     8     9   ar
    13     9    10   ar
    14     9    12    1
    15    10    11   ar
    16    13    14   ar
    17    13    18   ar
    18    14    15   ar
    19    15    16   ar
    20    16    17   ar
    21    17    18   ar
    22    19    20    1
    23    20    21    1
    24    20    25    1
    25    21    22    1
    26    22    23    1
    27    23    24    1
    28    24    25    1
