@<TRIPOS>MOLECULE
33183_ChemDiv_7202-2334
 19 21 0 0 0
SMALL
GASTEIGER
Energy = 0

@<TRIPOS>ATOM
      1 S          -1.2670    0.0000    0.0000 S.O2    1  LIG1        0.0635
      2 N          -2.1420   -0.4960    0.0000 N.3     1  LIG1       -0.1504
      3 C          -3.0040    0.0000    0.0000 C.3     1  LIG1        0.1279
      4 C          -3.8670   -0.4960    0.0000 C.3     1  LIG1        0.1613
      5 O          -3.8710   -1.4960    0.0000 O.3     1  LIG1       -0.3507
      6 C          -3.0040   -1.9960    0.0000 C.3     1  LIG1        0.1613
      7 C          -2.1420   -1.4960    0.0000 C.3     1  LIG1        0.1279
      8 C          -0.3920    0.4960    0.0000 C.ar    1  LIG1        0.1238
      9 C           0.4750    0.0000    0.0000 C.ar    1  LIG1        0.0407
     10 C           1.3380    0.4960    0.0000 C.ar    1  LIG1        0.1051
     11 N           2.2880    0.1830    0.0000 N.ar    1  LIG1       -0.1893
     12 C           2.8670    1.0040    0.0000 C.ar    1  LIG1        0.3688
     13 N           2.2880    1.8040    0.0000 N.ar    1  LIG1       -0.1893
     14 C           1.3380    1.5000    0.0000 C.ar    1  LIG1        0.1038
     15 C           0.4750    2.0000    0.0000 C.ar    1  LIG1        0.0222
     16 C          -0.3920    1.5000    0.0000 C.ar    1  LIG1        0.0216
     17 O           3.8670    1.0040    0.0000 O.2     1  LIG1       -0.2426
     18 O          -0.7630   -0.8790    0.0000 O.2     1  LIG1       -0.1528
     19 O          -1.7670    0.8670    0.0000 O.2     1  LIG1       -0.1528
@<TRIPOS>BOND
     1     1     2    1
     2     1     8    1
     3     1    18    2
     4     1    19    2
     5     2     3    1
     6     2     7    1
     7     3     4    1
     8     4     5    1
     9     5     6    1
    10     6     7    1
    11     8     9   ar
    12     8    16   ar
    13     9    10   ar
    14    10    11   ar
    15    10    14   ar
    16    11    12   ar
    17    12    13   ar
    18    12    17    2
    19    13    14   ar
    20    14    15   ar
    21    15    16   ar
