@<TRIPOS>MOLECULE
33186_ChemDiv_7746-0014
 29 32 0 0 0
SMALL
GASTEIGER
Energy = 0

@<TRIPOS>ATOM
      1 C          -0.0040   -1.2420    0.0000 C.3     1  LIG1        0.0648
      2 C          -0.0040   -0.2420    0.0000 C.3     1  LIG1        0.1275
      3 C          -0.8670    0.2580    0.0000 C.2     1  LIG1        0.1803
      4 C          -0.8670    1.2580    0.0000 C.ar    1  LIG1        0.0382
      5 C          -1.7330    1.7580    0.0000 C.ar    1  LIG1        0.0398
      6 C          -1.7330    2.7460    0.0000 C.ar    1  LIG1        0.1388
      7 O          -2.6000    3.2460    0.0000 O.3     1  LIG1       -0.4714
      8 C          -3.4630    2.7460    0.0000 C.3     1  LIG1        0.2525
      9 C          -0.8670    3.2580    0.0000 C.ar    1  LIG1        0.0369
     10 C          -0.0040    2.7580    0.0000 C.ar    1  LIG1        0.0032
     11 C          -0.0040    1.7580    0.0000 C.ar    1  LIG1        0.0031
     12 O          -1.7330   -0.2420    0.0000 O.2     1  LIG1       -0.2909
     13 C           0.8710    0.2580    0.0000 C.2     1  LIG1        0.1586
     14 O           0.8710    1.2580    0.0000 O.2     1  LIG1       -0.2956
     15 C           1.7330   -0.2420    0.0000 C.3     1  LIG1        0.0727
     16 C           0.8710   -1.7420    0.0000 C.ar    1  LIG1        0.0193
     17 C           0.8710   -2.7420    0.0000 C.ar    1  LIG1        0.1417
     18 O          -0.0040   -3.2540    0.0000 O.3     1  LIG1       -0.4541
     19 C          -0.8670   -2.7420    0.0000 C.ar    1  LIG1        0.1416
     20 C          -0.8670   -1.7420    0.0000 C.ar    1  LIG1        0.0170
     21 C          -1.7330   -1.2420    0.0000 C.ar    1  LIG1       -0.0009
     22 C          -2.5960   -1.7540    0.0000 C.ar    1  LIG1       -0.0001
     23 C          -2.5960   -2.7540    0.0000 C.ar    1  LIG1        0.0031
     24 C          -1.7330   -3.2540    0.0000 C.ar    1  LIG1        0.0372
     25 C           1.7330   -3.2420    0.0000 C.ar    1  LIG1        0.0395
     26 C           2.5960   -2.7420    0.0000 C.ar    1  LIG1        0.0327
     27 C           2.5960   -1.7420    0.0000 C.ar    1  LIG1        0.1400
     28 C           1.7330   -1.2420    0.0000 C.ar    1  LIG1        0.0287
     29 F           3.4580   -1.2380    0.0000 F       1  LIG1       -0.2042
@<TRIPOS>BOND
     1     1     2    1
     2     1    16    1
     3     1    20    1
     4     2     3    1
     5     2    13    1
     6     3     4    1
     7     3    12    2
     8     4     5   ar
     9     4    11   ar
    10     5     6   ar
    11     6     7    1
    12     6     9   ar
    13     7     8    1
    14     9    10   ar
    15    10    11   ar
    16    13    14    2
    17    13    15    1
    18    16    17   ar
    19    16    28   ar
    20    17    18    1
    21    17    25   ar
    22    18    19    1
    23    19    20   ar
    24    19    24   ar
    25    20    21   ar
    26    21    22   ar
    27    22    23   ar
    28    23    24   ar
    29    25    26   ar
    30    26    27   ar
    31    27    28   ar
    32    27    29    1
