@<TRIPOS>MOLECULE
33180_ChemDiv_7445-0018
 19 20 0 0 0
SMALL
GASTEIGER
Energy = 0

@<TRIPOS>ATOM
      1 C          -0.4330    1.1170    0.0000 C.ar    1  LIG1        0.0315
      2 C          -0.7420    0.1750    0.0000 C.ar    1  LIG1        0.0838
      3 N          -1.7380    0.1750    0.0000 N.ar    1  LIG1       -0.2430
      4 C          -2.0420    1.1420    0.0000 C.ar    1  LIG1        0.0883
      5 S          -1.2250    1.7210    0.0000 S.2     1  LIG1       -0.0748
      6 C          -2.9960    1.4500    0.0000 C.3     1  LIG1        0.0594
      7 C          -0.1580   -0.6290    0.0000 C.ar    1  LIG1        0.0180
      8 C          -0.5710   -1.5500    0.0000 C.ar    1  LIG1        0.0046
      9 C           0.0080   -2.3630    0.0000 C.ar    1  LIG1        0.0369
     10 C           1.0000   -2.2670    0.0000 C.ar    1  LIG1        0.1386
     11 C           1.4130   -1.3460    0.0000 C.ar    1  LIG1        0.0369
     12 C           0.8290   -0.5330    0.0000 C.ar    1  LIG1        0.0046
     13 O           1.5790   -3.0710    0.0000 O.3     1  LIG1       -0.4755
     14 C           2.5710   -2.9750    0.0000 C.3     1  LIG1        0.2055
     15 C           2.9920   -2.0670    0.0000 C.3     1  LIG1        0.0512
     16 C           0.5210    1.4130    0.0000 C.3     1  LIG1        0.0761
     17 C           0.7460    2.4000    0.0000 C.2     1  LIG1        0.0553
     18 O           0.0080    3.0750    0.0000 O.co2   1  LIG1       -0.5488
     19 O           1.7000    2.7040    0.0000 O.co2   1  LIG1       -0.5488
@<TRIPOS>BOND
     1     1     2   ar
     2     1     5   ar
     3     1    16    1
     4     2     3   ar
     5     2     7    1
     6     3     4   ar
     7     4     5   ar
     8     4     6    1
     9     7     8   ar
    10     7    12   ar
    11     8     9   ar
    12     9    10   ar
    13    10    11   ar
    14    10    13    1
    15    11    12   ar
    16    13    14    1
    17    14    15    1
    18    16    17    1
    19    17    18   ar
    20    17    19   ar
