@<TRIPOS>MOLECULE
33196_ChemDiv_7756-0497
 25 26 0 0 0
SMALL
GASTEIGER
Energy = 0

@<TRIPOS>ATOM
      1 C           0.8460    1.7500    0.0000 C.ar    1  LIG1        0.1876
      2 C           0.8460    0.7500    0.0000 C.ar    1  LIG1        0.0157
      3 C           1.7250    0.2380    0.0000 C.3     1  LIG1        0.0220
      4 C           2.5960   -0.2670    0.0000 C.3     1  LIG1        0.0045
      5 C           2.2330    1.1130    0.0000 C.3     1  LIG1        0.0045
      6 C           1.2080   -0.6290    0.0000 C.3     1  LIG1        0.0045
      7 C          -0.0130    0.2500    0.0000 C.ar    1  LIG1        0.0003
      8 C          -0.8750    0.7500    0.0000 C.ar    1  LIG1        0.0339
      9 C          -0.8750    1.7500    0.0000 C.ar    1  LIG1        0.0003
     10 C          -0.0130    2.2500    0.0000 C.ar    1  LIG1        0.0157
     11 C          -0.0130    3.2500    0.0000 C.3     1  LIG1        0.0220
     12 C          -1.0130    3.2500    0.0000 C.3     1  LIG1        0.0045
     13 C           0.9830    3.2500    0.0000 C.3     1  LIG1        0.0045
     14 C          -0.0130    4.2420    0.0000 C.3     1  LIG1        0.0045
     15 C          -1.7380    0.2500    0.0000 C.3     1  LIG1        0.1661
     16 N          -1.7380   -0.7500    0.0000 N.4     1  LIG1        0.3807
     17 C          -2.6000   -1.2500    0.0000 C.3     1  LIG1        0.1395
     18 C          -2.6000   -2.2460    0.0000 C.3     1  LIG1        0.0721
     19 C          -1.7380   -2.7460    0.0000 C.3     1  LIG1        0.0917
     20 C          -1.7380   -3.7420    0.0000 C.2     1  LIG1        0.2607
     21 O          -2.6000   -4.2420    0.0000 O.2     1  LIG1       -0.2717
     22 N          -0.8750   -4.2420    0.0000 N.am    1  LIG1       -0.0878
     23 C          -0.8750   -2.2460    0.0000 C.3     1  LIG1        0.0721
     24 C          -0.8750   -1.2500    0.0000 C.3     1  LIG1        0.1395
     25 O           1.7250    2.2580    0.0000 O.3     1  LIG1       -0.2872
@<TRIPOS>BOND
     1     1     2   ar
     2     1    10   ar
     3     1    25    1
     4     2     3    1
     5     2     7   ar
     6     3     4    1
     7     3     5    1
     8     3     6    1
     9     7     8   ar
    10     8     9   ar
    11     8    15    1
    12     9    10   ar
    13    10    11    1
    14    11    12    1
    15    11    13    1
    16    11    14    1
    17    15    16    1
    18    16    17    1
    19    16    24    1
    20    17    18    1
    21    18    19    1
    22    19    20    1
    23    19    23    1
    24    20    21    2
    25    20    22   am
    26    23    24    1
