@<TRIPOS>MOLECULE
33198_ChemDiv_7761-0004
 25 28 0 0 0
SMALL
GASTEIGER
Energy = 0

@<TRIPOS>ATOM
      1 S          -1.4630   -2.2920    0.0000 S.O2    1  LIG1        0.1804
      2 N          -0.8710   -1.4670    0.0000 N.2     1  LIG1        0.1001
      3 C          -1.4630   -0.6500    0.0000 C.2     1  LIG1        0.3944
      4 N          -1.1580    0.3040    0.0000 N.pl3   1  LIG1        0.0234
      5 C          -0.1790    0.5170    0.0000 C.ar    1  LIG1        0.2977
      6 N           0.5670   -0.1710    0.0000 N.ar    1  LIG1       -0.2000
      7 C           1.4330    0.3380    0.0000 C.ar    1  LIG1        0.0874
      8 C           1.2380    1.3170    0.0000 C.ar    1  LIG1        0.0297
      9 S           0.2330    1.4250    0.0000 S.2     1  LIG1       -0.0261
     10 C           1.9040    2.0580    0.0000 C.3     1  LIG1        0.0347
     11 C           1.5960    3.0040    0.0000 C.3     1  LIG1        0.0056
     12 C           2.3500   -0.0750    0.0000 C.ar    1  LIG1        0.0180
     13 C           3.1460    0.5130    0.0000 C.ar    1  LIG1        0.0015
     14 C           4.0630    0.1170    0.0000 C.ar    1  LIG1        0.0000
     15 C           4.1750   -0.8830    0.0000 C.ar    1  LIG1        0.0000
     16 C           3.3580   -1.4830    0.0000 C.ar    1  LIG1        0.0000
     17 C           2.4420   -1.0630    0.0000 C.ar    1  LIG1        0.0015
     18 C          -2.4330   -0.9710    0.0000 C.ar    1  LIG1        0.1094
     19 C          -2.4210   -1.9880    0.0000 C.ar    1  LIG1        0.1586
     20 C          -3.3130   -2.4880    0.0000 C.ar    1  LIG1        0.0228
     21 C          -4.1790   -1.9880    0.0000 C.ar    1  LIG1        0.0015
     22 C          -4.1790   -0.9710    0.0000 C.ar    1  LIG1        0.0003
     23 C          -3.3130   -0.4670    0.0000 C.ar    1  LIG1        0.0090
     24 O          -0.7040   -2.6830    0.0000 O.2     1  LIG1       -0.1251
     25 O          -2.1580   -3.0000    0.0000 O.2     1  LIG1       -0.1251
@<TRIPOS>BOND
     1     1     2    1
     2     1    19    1
     3     1    24    2
     4     1    25    2
     5     2     3    2
     6     3     4    1
     7     3    18    1
     8     4     5    1
     9     5     6   ar
    10     5     9   ar
    11     6     7   ar
    12     7     8   ar
    13     7    12    1
    14     8     9   ar
    15     8    10    1
    16    10    11    1
    17    12    13   ar
    18    12    17   ar
    19    13    14   ar
    20    14    15   ar
    21    15    16   ar
    22    16    17   ar
    23    18    19   ar
    24    18    23   ar
    25    19    20   ar
    26    20    21   ar
    27    21    22   ar
    28    22    23   ar
