@<TRIPOS>MOLECULE
33199_ChemDiv_6957-0029
 23 26 0 0 0
SMALL
GASTEIGER
Energy = 0

@<TRIPOS>ATOM
      1 N           2.5580   -0.7250    0.0000 N.ar    1  LIG1       -0.1893
      2 C           2.8630    0.2290    0.0000 C.ar    1  LIG1        0.2183
      3 S           2.0540    0.8210    0.0000 S.2     1  LIG1       -0.0261
      4 C           1.2420    0.2290    0.0000 C.ar    1  LIG1        0.1363
      5 N           1.5580   -0.7250    0.0000 N.ar    1  LIG1       -0.1554
      6 C           0.2960    0.5420    0.0000 C.ar    1  LIG1        0.0590
      7 C          -0.5170   -0.0420    0.0000 C.ar    1  LIG1        0.0423
      8 C          -1.3250    0.5500    0.0000 C.ar    1  LIG1        0.1457
      9 O          -1.0170    1.4920    0.0000 O.2     1  LIG1       -0.4577
     10 C          -0.0170    1.4920    0.0000 C.ar    1  LIG1        0.1252
     11 C           0.5790    2.3040    0.0000 C.3     1  LIG1        0.0725
     12 C          -2.2710    0.2330    0.0000 C.ar    1  LIG1        0.0459
     13 C          -3.0170    0.9130    0.0000 C.ar    1  LIG1        0.0606
     14 C          -3.9750    0.6000    0.0000 C.ar    1  LIG1        0.0124
     15 C          -4.1710   -0.3710    0.0000 C.ar    1  LIG1        0.0123
     16 C          -3.4250   -1.0540    0.0000 C.ar    1  LIG1        0.0578
     17 C          -2.4750   -0.7420    0.0000 C.ar    1  LIG1        0.0153
     18 CL         -3.6330   -2.0290    0.0000 Cl      1  LIG1       -0.0822
     19 CL         -2.8130    1.8830    0.0000 Cl      1  LIG1       -0.0821
     20 N           3.8670    0.2290    0.0000 N.ar    1  LIG1       -0.1203
     21 N           4.1670   -0.7250    0.0000 N.ar    1  LIG1       -0.1310
     22 C           3.3580   -1.3080    0.0000 C.ar    1  LIG1        0.1647
     23 C           3.3580   -2.3000    0.0000 C.3     1  LIG1        0.0757
@<TRIPOS>BOND
     1     1     2   ar
     2     1     5   ar
     3     1    22   ar
     4     2     3   ar
     5     2    20   ar
     6     3     4   ar
     7     4     5   ar
     8     4     6    1
     9     6     7   ar
    10     6    10   ar
    11     7     8   ar
    12     8     9   ar
    13     8    12    1
    14     9    10   ar
    15    10    11    1
    16    12    13   ar
    17    12    17   ar
    18    13    14   ar
    19    13    19    1
    20    14    15   ar
    21    15    16   ar
    22    16    17   ar
    23    16    18    1
    24    20    21   ar
    25    21    22   ar
    26    22    23    1
