@<TRIPOS>MOLECULE
33194_ChemDiv_7756-0152
 24 25 0 0 0
SMALL
GASTEIGER
Energy = 0

@<TRIPOS>ATOM
      1 C          -1.1330   -0.4630    0.0000 C.ar    1  LIG1        0.1446
      2 N          -1.7960    0.3000    0.0000 N.ar    1  LIG1       -0.2179
      3 C          -1.3000    1.1670    0.0000 C.ar    1  LIG1        0.1836
      4 S          -0.3170    0.9500    0.0000 S.2     1  LIG1       -0.0491
      5 C          -0.2330   -0.0460    0.0000 C.ar    1  LIG1        0.0620
      6 N          -1.5960    2.1130    0.0000 N.pl3   1  LIG1       -0.1886
      7 C          -0.9250    2.8420    0.0000 C.ar    1  LIG1        0.0726
      8 C           0.0460    2.6250    0.0000 C.ar    1  LIG1        0.0163
      9 C           0.7170    3.3750    0.0000 C.ar    1  LIG1       -0.0029
     10 C           0.4130    4.3170    0.0000 C.ar    1  LIG1       -0.0218
     11 C          -0.5630    4.5330    0.0000 C.ar    1  LIG1       -0.0029
     12 C          -1.2330    3.7880    0.0000 C.ar    1  LIG1        0.0163
     13 C           1.0790    5.0630    0.0000 C.3     1  LIG1        0.0310
     14 C          -1.3290   -1.4420    0.0000 C.2     1  LIG1        0.2831
     15 N          -0.5790   -2.1080    0.0000 N.am    1  LIG1       -0.2004
     16 C          -0.7790   -3.1000    0.0000 C.3     1  LIG1        0.1155
     17 C          -0.0130   -3.7630    0.0000 C.3     1  LIG1        0.0217
     18 C          -0.2130   -4.7420    0.0000 C.3     1  LIG1        0.0018
     19 C          -1.1500   -5.0630    0.0000 C.3     1  LIG1        0.0001
     20 C           0.9330   -3.4380    0.0000 C.3     1  LIG1        0.0018
     21 C           1.1330   -2.4580    0.0000 C.3     1  LIG1        0.0001
     22 C           2.0790   -2.1420    0.0000 C.3     1  LIG1        0.0000
     23 C           2.2750   -1.1630    0.0000 C.3     1  LIG1        0.0000
     24 O          -2.2790   -1.7750    0.0000 O.2     1  LIG1       -0.2667
@<TRIPOS>BOND
     1     1     2   ar
     2     1     5   ar
     3     1    14    1
     4     2     3   ar
     5     3     4   ar
     6     3     6    1
     7     4     5   ar
     8     6     7    1
     9     7     8   ar
    10     7    12   ar
    11     8     9   ar
    12     9    10   ar
    13    10    11   ar
    14    10    13    1
    15    11    12   ar
    16    14    15   am
    17    14    24    2
    18    15    16    1
    19    16    17    1
    20    17    18    1
    21    17    20    1
    22    18    19    1
    23    20    21    1
    24    21    22    1
    25    22    23    1
