@<TRIPOS>MOLECULE
33190_ChemDiv_7747-0567
 22 25 0 0 0
SMALL
GASTEIGER
Energy = 0

@<TRIPOS>ATOM
      1 P          -0.4750    1.4920    0.0000 P.3     1  LIG1        0.4093
      2 N           0.4830    1.7500    0.0000 N.pl3   1  LIG1       -0.1296
      3 C           1.1880    1.0540    0.0000 C.ar    1  LIG1        0.1875
      4 N           2.1460    1.3130    0.0000 N.ar    1  LIG1       -0.2225
      5 C           2.5960    0.3380    0.0000 C.ar    1  LIG1        0.0894
      6 C           1.8630   -0.4880    0.0000 C.ar    1  LIG1        0.0506
      7 S           1.0500   -0.0670    0.0000 S.2     1  LIG1       -0.0497
      8 C           2.2170   -1.3420    0.0000 C.ar    1  LIG1        0.0195
      9 C           3.2380   -1.5380    0.0000 C.ar    1  LIG1        0.0583
     10 C           3.8920   -0.7880    0.0000 C.ar    1  LIG1        0.0130
     11 C           3.5710    0.1460    0.0000 C.ar    1  LIG1        0.0205
     12 CL          3.5710   -2.4750    0.0000 Cl      1  LIG1       -0.0822
     13 O          -1.3290    1.9830    0.0000 O.3     1  LIG1       -0.4217
     14 C          -2.1830    1.4920    0.0000 C.ar    1  LIG1        0.1799
     15 C          -2.1830    0.5000    0.0000 C.ar    1  LIG1        0.1735
     16 O          -1.3290    0.0080    0.0000 O.3     1  LIG1       -0.4596
     17 C          -0.4750    0.5000    0.0000 C.3     1  LIG1        0.3252
     18 C          -3.0380    0.0080    0.0000 C.ar    1  LIG1        0.0401
     19 C          -3.8960    0.5000    0.0000 C.ar    1  LIG1        0.0033
     20 C          -3.8960    1.4920    0.0000 C.ar    1  LIG1        0.0033
     21 C          -3.0380    1.9830    0.0000 C.ar    1  LIG1        0.0405
     22 O          -0.6170    2.4790    0.0000 O.2     1  LIG1       -0.2485
@<TRIPOS>BOND
     1     1     2    1
     2     1    13    1
     3     1    17    1
     4     1    22    2
     5     2     3    1
     6     3     4   ar
     7     3     7   ar
     8     4     5   ar
     9     5     6   ar
    10     5    11   ar
    11     6     7   ar
    12     6     8   ar
    13     8     9   ar
    14     9    10   ar
    15     9    12    1
    16    10    11   ar
    17    13    14    1
    18    14    15   ar
    19    14    21   ar
    20    15    16    1
    21    15    18   ar
    22    16    17    1
    23    18    19   ar
    24    19    20   ar
    25    20    21   ar
