@<TRIPOS>MOLECULE
33203_ChemDiv_8017-7871
 30 34 0 0 0
SMALL
GASTEIGER
Energy = 0

@<TRIPOS>ATOM
      1 C           4.8040    0.7750    0.0000 C.ar    1  LIG1        0.3316
      2 N           3.8920    1.1830    0.0000 N.ar    1  LIG1       -0.2779
      3 C           3.2170    0.4460    0.0000 C.ar    1  LIG1        0.0811
      4 C           3.7290   -0.4290    0.0000 C.ar    1  LIG1        0.0795
      5 N           4.7040   -0.2170    0.0000 N.ar    1  LIG1       -0.2779
      6 C           5.5670   -0.7170    0.0000 C.3     1  LIG1        0.1351
      7 C           3.2170   -1.3040    0.0000 C.ar    1  LIG1        0.0158
      8 C           2.2040   -1.3040    0.0000 C.ar    1  LIG1       -0.0017
      9 C           1.7040   -0.4290    0.0000 C.ar    1  LIG1        0.1211
     10 S           0.6920   -0.4290    0.0000 S.O2    1  LIG1        0.0767
     11 O           0.6920   -1.4420    0.0000 O.2     1  LIG1       -0.1516
     12 O           0.6920    0.5830    0.0000 O.2     1  LIG1       -0.1516
     13 N          -0.3170   -0.4290    0.0000 N.3     1  LIG1       -0.0751
     14 C          -0.8290    0.4460    0.0000 C.3     1  LIG1        0.1474
     15 C          -1.8380    0.4460    0.0000 C.3     1  LIG1        0.1627
     16 O          -2.3290   -0.4380    0.0000 O.3     1  LIG1       -0.3569
     17 C          -3.3420   -0.4380    0.0000 C.3     1  LIG1        0.0928
     18 C          -3.9290   -0.8420    0.0000 C.3     1  LIG1        0.0272
     19 C          -5.0920   -0.5040    0.0000 C.3     1  LIG1        0.0023
     20 C          -5.6790   -1.1790    0.0000 C.3     1  LIG1        0.0002
     21 C          -4.7210   -0.9040    0.0000 C.3     1  LIG1        0.0023
     22 C          -3.8960   -1.1790    0.0000 C.3     1  LIG1        0.0272
     23 C          -4.7210    0.2080    0.0000 C.3     1  LIG1        0.0002
     24 C          -4.2170    1.0830    0.0000 C.3     1  LIG1        0.0023
     25 C          -3.3420    0.5710    0.0000 C.3     1  LIG1        0.0272
     26 C          -5.0920    0.5710    0.0000 C.3     1  LIG1        0.0002
     27 C           2.2130    0.4460    0.0000 C.ar    1  LIG1        0.0384
     28 C           1.7040   -2.1790    0.0000 C.3     1  LIG1        0.0325
     29 C           3.8920    2.1830    0.0000 C.3     1  LIG1        0.1351
     30 O           5.6750    1.2750    0.0000 O.2     1  LIG1       -0.2463
@<TRIPOS>BOND
     1     1     2   ar
     2     1     5   ar
     3     1    30    2
     4     2     3   ar
     5     2    29    1
     6     3     4   ar
     7     3    27   ar
     8     4     5   ar
     9     4     7   ar
    10     5     6    1
    11     7     8   ar
    12     8     9   ar
    13     8    28    1
    14     9    10    1
    15     9    27   ar
    16    10    11    2
    17    10    12    2
    18    10    13    1
    19    13    14    1
    20    14    15    1
    21    15    16    1
    22    16    17    1
    23    17    18    1
    24    17    22    1
    25    17    25    1
    26    18    19    1
    27    19    20    1
    28    19    26    1
    29    20    21    1
    30    21    22    1
    31    21    23    1
    32    23    24    1
    33    24    25    1
    34    24    26    1
