@<TRIPOS>MOLECULE
33209_ChemDiv_7210-2040
 24 28 0 0 0
SMALL
GASTEIGER
Energy = 0

@<TRIPOS>ATOM
      1 N          -0.1040    0.2830    0.0000 N.ar    1  LIG1       -0.2287
      2 C           0.7670    0.7790    0.0000 C.ar    1  LIG1        0.0825
      3 C           1.6330    0.2830    0.0000 C.ar    1  LIG1        0.0320
      4 C           1.6330   -0.7040    0.0000 C.ar    1  LIG1        0.0691
      5 N           0.7670   -1.2080    0.0000 N.pl3   1  LIG1       -0.2112
      6 C          -0.1040   -0.7080    0.0000 C.3     1  LIG1        0.2193
      7 C          -0.9710   -1.2130    0.0000 C.ar    1  LIG1        0.0235
      8 C          -1.8380   -0.7170    0.0000 C.ar    1  LIG1        0.0395
      9 C          -2.7040   -1.2130    0.0000 C.ar    1  LIG1        0.1762
     10 C          -2.7040   -2.2170    0.0000 C.ar    1  LIG1        0.1764
     11 O          -3.6630   -2.5250    0.0000 O.3     1  LIG1       -0.4346
     12 C          -4.2460   -1.7130    0.0000 C.3     1  LIG1        0.4294
     13 O          -3.6630   -0.9040    0.0000 O.3     1  LIG1       -0.4346
     14 C          -1.8380   -2.7170    0.0000 C.ar    1  LIG1        0.0400
     15 C          -0.9710   -2.2170    0.0000 C.ar    1  LIG1        0.0026
     16 C           2.5040   -1.2080    0.0000 C.ar    1  LIG1        0.0159
     17 C           3.3710   -0.7040    0.0000 C.ar    1  LIG1       -0.0029
     18 C           3.3710    0.2830    0.0000 C.ar    1  LIG1       -0.0217
     19 C           2.5040    0.7790    0.0000 C.ar    1  LIG1       -0.0015
     20 C           4.2420    0.7790    0.0000 C.3     1  LIG1        0.0310
     21 C           0.5580    1.7580    0.0000 C.ar    1  LIG1        0.0353
     22 C          -0.4380    1.8580    0.0000 C.ar    1  LIG1        0.0805
     23 N          -0.8500    0.9500    0.0000 N.ar    1  LIG1       -0.1719
     24 C          -0.9420    2.7210    0.0000 C.3     1  LIG1        0.0540
@<TRIPOS>BOND
     1     1     2   ar
     2     1     6    1
     3     1    23   ar
     4     2     3    1
     5     2    21   ar
     6     3     4   ar
     7     3    19   ar
     8     4     5    1
     9     4    16   ar
    10     5     6    1
    11     6     7    1
    12     7     8   ar
    13     7    15   ar
    14     8     9   ar
    15     9    10   ar
    16     9    13    1
    17    10    11    1
    18    10    14   ar
    19    11    12    1
    20    12    13    1
    21    14    15   ar
    22    16    17   ar
    23    17    18   ar
    24    18    19   ar
    25    18    20    1
    26    21    22   ar
    27    22    23   ar
    28    22    24    1
