@<TRIPOS>MOLECULE
33207_ChemDiv_7202-3144
 32 35 0 0 0
SMALL
GASTEIGER
Energy = 0

@<TRIPOS>ATOM
      1 S          -0.0040    0.0250    0.0000 S.O2    1  LIG1        0.0823
      2 N           0.8750   -0.4750    0.0000 N.am    1  LIG1       -0.1376
      3 C           1.7460    0.0380    0.0000 C.ar    1  LIG1        0.0771
      4 C           1.7460    1.0380    0.0000 C.ar    1  LIG1        0.0264
      5 C           2.6170    1.5330    0.0000 C.ar    1  LIG1        0.0713
      6 C           3.4750    1.0380    0.0000 C.ar    1  LIG1        0.1553
      7 O           4.2130    1.7170    0.0000 O.2     1  LIG1       -0.4159
      8 C           3.8170    2.6130    0.0000 C.ar    1  LIG1        0.3786
      9 S           2.8290    2.5170    0.0000 S.2     1  LIG1       -0.0033
     10 O           4.3330    3.4710    0.0000 O.2     1  LIG1       -0.2366
     11 C           3.4750    0.0380    0.0000 C.ar    1  LIG1        0.0364
     12 C           2.6170   -0.4580    0.0000 C.ar    1  LIG1        0.0184
     13 C           2.6170   -1.4670    0.0000 C.ar    1  LIG1        0.0014
     14 C           3.4750   -1.9630    0.0000 C.ar    1  LIG1        0.0000
     15 C           4.3420   -1.4670    0.0000 C.ar    1  LIG1        0.0001
     16 C           4.3420   -0.4580    0.0000 C.ar    1  LIG1        0.0031
     17 C           0.8750   -1.4670    0.0000 C.2     1  LIG1        0.2480
     18 O           0.0130   -1.9750    0.0000 O.2     1  LIG1       -0.2730
     19 C           1.7460   -1.9750    0.0000 C.3     1  LIG1        0.0872
     20 C           1.7460   -2.9670    0.0000 C.3     1  LIG1        0.0096
     21 C           2.6040   -3.4670    0.0000 C.3     1  LIG1        0.0005
     22 C          -0.8750    0.5250    0.0000 C.ar    1  LIG1        0.1258
     23 C          -1.7330    0.0250    0.0000 C.ar    1  LIG1        0.0202
     24 C          -2.6040    0.5250    0.0000 C.ar    1  LIG1        0.0025
     25 C          -2.6040    1.5210    0.0000 C.ar    1  LIG1        0.0141
     26 C          -3.4790    2.0250    0.0000 C.2     1  LIG1        0.0729
     27 O          -3.4880    3.0330    0.0000 O.co2   1  LIG1       -0.5446
     28 O          -4.3460    1.5290    0.0000 O.co2   1  LIG1       -0.5446
     29 C          -1.7380    2.0250    0.0000 C.ar    1  LIG1        0.0025
     30 C          -0.8790    1.5210    0.0000 C.ar    1  LIG1        0.0202
     31 O          -0.5000   -0.8460    0.0000 O.2     1  LIG1       -0.1493
     32 O           0.5000    0.9000    0.0000 O.2     1  LIG1       -0.1493
@<TRIPOS>BOND
     1     1     2    1
     2     1    22    1
     3     1    31    2
     4     1    32    2
     5     2     3    1
     6     2    17   am
     7     3     4   ar
     8     3    12   ar
     9     4     5   ar
    10     5     6   ar
    11     5     9   ar
    12     6     7   ar
    13     6    11   ar
    14     7     8   ar
    15     8     9   ar
    16     8    10    2
    17    11    12   ar
    18    11    16   ar
    19    12    13   ar
    20    13    14   ar
    21    14    15   ar
    22    15    16   ar
    23    17    18    2
    24    17    19    1
    25    19    20    1
    26    20    21    1
    27    22    23   ar
    28    22    30   ar
    29    23    24   ar
    30    24    25   ar
    31    25    26    1
    32    25    29   ar
    33    26    27   ar
    34    26    28   ar
    35    29    30   ar
