@<TRIPOS>MOLECULE
33201_ChemDiv_8017-7483
 22 23 0 0 0
SMALL
GASTEIGER
Energy = 0

@<TRIPOS>ATOM
      1 C           3.5460    0.1960    0.0000 C.ar    1  LIG1        0.3316
      2 N           2.9330   -0.6500    0.0000 N.ar    1  LIG1       -0.2779
      3 C           1.9330   -0.3290    0.0000 C.ar    1  LIG1        0.0811
      4 C           1.9290    0.7170    0.0000 C.ar    1  LIG1        0.0795
      5 N           2.9210    1.0420    0.0000 N.ar    1  LIG1       -0.2779
      6 C           3.2420    2.0420    0.0000 C.3     1  LIG1        0.1351
      7 C           1.0210    1.2290    0.0000 C.ar    1  LIG1        0.0158
      8 C           0.1210    0.7080    0.0000 C.ar    1  LIG1       -0.0017
      9 C           0.1210   -0.3380    0.0000 C.ar    1  LIG1        0.1211
     10 S          -0.7830   -0.8540    0.0000 S.O2    1  LIG1        0.0767
     11 O          -0.3920   -2.0380    0.0000 O.2     1  LIG1       -0.1516
     12 O          -1.0920    0.1460    0.0000 O.2     1  LIG1       -0.1516
     13 N          -1.5830   -1.1040    0.0000 N.3     1  LIG1       -0.0751
     14 C          -2.1960   -0.5420    0.0000 C.3     1  LIG1        0.1474
     15 C          -2.9960   -0.7920    0.0000 C.3     1  LIG1        0.1629
     16 O          -3.6080   -0.2170    0.0000 O.3     1  LIG1       -0.3522
     17 C          -4.4000   -0.4670    0.0000 C.3     1  LIG1        0.1423
     18 C          -4.5830   -1.2880    0.0000 C.3     1  LIG1        0.0346
     19 C           1.0210   -0.8630    0.0000 C.ar    1  LIG1        0.0384
     20 C          -0.7830    1.2290    0.0000 C.3     1  LIG1        0.0325
     21 C           3.2580   -1.6420    0.0000 C.3     1  LIG1        0.1351
     22 O           4.5790    0.2080    0.0000 O.2     1  LIG1       -0.2463
@<TRIPOS>BOND
     1     1     2   ar
     2     1     5   ar
     3     1    22    2
     4     2     3   ar
     5     2    21    1
     6     3     4   ar
     7     3    19   ar
     8     4     5   ar
     9     4     7   ar
    10     5     6    1
    11     7     8   ar
    12     8     9   ar
    13     8    20    1
    14     9    10    1
    15     9    19   ar
    16    10    11    2
    17    10    12    2
    18    10    13    1
    19    13    14    1
    20    14    15    1
    21    15    16    1
    22    16    17    1
    23    17    18    1
