@<TRIPOS>MOLECULE
33205_ChemDiv_7202-2540
 36 40 0 0 0
SMALL
GASTEIGER
Energy = 0

@<TRIPOS>ATOM
      1 S          -1.3170   -1.1580    0.0000 S.O2    1  LIG1        0.0840
      2 N          -0.3580   -0.8880    0.0000 N.am    1  LIG1       -0.1340
      3 C           0.3540   -1.5960    0.0000 C.2     1  LIG1        0.2714
      4 C           1.3210   -1.3290    0.0000 C.ar    1  LIG1        0.0554
      5 C           2.0330   -2.0330    0.0000 C.ar    1  LIG1        0.0043
      6 C           2.9920   -1.7670    0.0000 C.ar    1  LIG1       -0.0041
      7 C           3.2500   -0.8000    0.0000 C.ar    1  LIG1       -0.0218
      8 C           2.5420   -0.1000    0.0000 C.ar    1  LIG1       -0.0041
      9 C           1.5710   -0.3710    0.0000 C.ar    1  LIG1        0.0043
     10 C           4.2210   -0.5250    0.0000 C.3     1  LIG1        0.0310
     11 O           0.1000   -2.5540    0.0000 O.2     1  LIG1       -0.2680
     12 C          -0.1000    0.0670    0.0000 C.ar    1  LIG1        0.0770
     13 C          -0.8130    0.7710    0.0000 C.ar    1  LIG1        0.0199
     14 C          -0.5580    1.7210    0.0000 C.ar    1  LIG1        0.0412
     15 C          -1.1130    2.5580    0.0000 C.ar    1  LIG1        0.0680
     16 C          -0.4920    3.3460    0.0000 C.ar    1  LIG1        0.1260
     17 O           0.4460    2.9960    0.0000 O.2     1  LIG1       -0.4577
     18 C           0.4000    1.9960    0.0000 C.ar    1  LIG1        0.1450
     19 C           1.1130    1.3000    0.0000 C.ar    1  LIG1        0.0388
     20 C           0.8670    0.3250    0.0000 C.ar    1  LIG1        0.0198
     21 C          -0.7500    4.3170    0.0000 C.3     1  LIG1        0.0726
     22 C          -2.1170    2.6040    0.0000 C.2     1  LIG1        0.1762
     23 O          -2.6460    1.7540    0.0000 O.2     1  LIG1       -0.2912
     24 C          -2.5880    3.4790    0.0000 C.3     1  LIG1        0.0774
     25 C          -2.2830   -1.4210    0.0000 C.ar    1  LIG1        0.1433
     26 C          -2.5460   -2.3880    0.0000 C.ar    1  LIG1        0.1001
     27 N          -1.8460   -3.1000    0.0000 N.ar    1  LIG1       -0.2425
     28 C          -2.1000   -4.0420    0.0000 C.ar    1  LIG1        0.0989
     29 C          -3.0750   -4.3170    0.0000 C.ar    1  LIG1        0.0207
     30 C          -3.7790   -3.6040    0.0000 C.ar    1  LIG1        0.0031
     31 C          -3.5170   -2.6460    0.0000 C.ar    1  LIG1        0.0190
     32 C          -4.2250   -1.9290    0.0000 C.ar    1  LIG1        0.0016
     33 C          -3.9710   -0.9790    0.0000 C.ar    1  LIG1        0.0015
     34 C          -2.9830   -0.7080    0.0000 C.ar    1  LIG1        0.0218
     35 O          -1.5880   -0.1920    0.0000 O.2     1  LIG1       -0.1493
     36 O          -1.0540   -2.1170    0.0000 O.2     1  LIG1       -0.1493
@<TRIPOS>BOND
     1     1     2    1
     2     1    25    1
     3     1    35    2
     4     1    36    2
     5     2     3   am
     6     2    12    1
     7     3     4    1
     8     3    11    2
     9     4     5   ar
    10     4     9   ar
    11     5     6   ar
    12     6     7   ar
    13     7     8   ar
    14     7    10    1
    15     8     9   ar
    16    12    13   ar
    17    12    20   ar
    18    13    14   ar
    19    14    15   ar
    20    14    18   ar
    21    15    16   ar
    22    15    22    1
    23    16    17   ar
    24    16    21    1
    25    17    18   ar
    26    18    19   ar
    27    19    20   ar
    28    22    23    2
    29    22    24    1
    30    25    26   ar
    31    25    34   ar
    32    26    27   ar
    33    26    31   ar
    34    27    28   ar
    35    28    29   ar
    36    29    30   ar
    37    30    31   ar
    38    31    32   ar
    39    32    33   ar
    40    33    34   ar
