@<TRIPOS>MOLECULE
33215_ChemDiv_7213-0536
 17 19 0 0 0
SMALL
GASTEIGER
Energy = 0

@<TRIPOS>ATOM
      1 C          -0.9580    0.0210    0.0000 C.ar    1  LIG1        0.0544
      2 C          -0.0170    0.3290    0.0000 C.ar    1  LIG1        0.0419
      3 C           0.5630   -0.5170    0.0000 C.ar    1  LIG1        0.1453
      4 O          -0.0170   -1.2920    0.0000 O.2     1  LIG1       -0.4534
      5 C          -0.9580   -0.9960    0.0000 C.ar    1  LIG1        0.1480
      6 C          -1.8290   -1.4790    0.0000 C.ar    1  LIG1        0.0556
      7 C          -2.6960   -0.9960    0.0000 C.ar    1  LIG1        0.0935
      8 C          -2.6960    0.0210    0.0000 C.ar    1  LIG1        0.0363
      9 C          -1.8290    0.5210    0.0000 C.ar    1  LIG1        0.0934
     10 N          -1.8290    1.5080    0.0000 N.pl3   1  LIG1       -0.1279
     11 N          -3.5630   -1.5040    0.0000 N.pl3   1  LIG1       -0.1279
     12 C           1.5500   -0.4630    0.0000 C.ar    1  LIG1        0.0346
     13 C           2.0130    0.4250    0.0000 C.ar    1  LIG1        0.0030
     14 C           3.0210    0.5000    0.0000 C.ar    1  LIG1        0.0001
     15 C           3.5580   -0.3920    0.0000 C.ar    1  LIG1        0.0000
     16 C           3.0710   -1.2630    0.0000 C.ar    1  LIG1        0.0001
     17 C           2.0830   -1.2920    0.0000 C.ar    1  LIG1        0.0030
@<TRIPOS>BOND
     1     1     2   ar
     2     1     5   ar
     3     1     9   ar
     4     2     3   ar
     5     3     4   ar
     6     3    12    1
     7     4     5   ar
     8     5     6   ar
     9     6     7   ar
    10     7     8   ar
    11     7    11    1
    12     8     9   ar
    13     9    10    1
    14    12    13   ar
    15    12    17   ar
    16    13    14   ar
    17    14    15   ar
    18    15    16   ar
    19    16    17   ar
