@<TRIPOS>MOLECULE
33214_ChemDiv_7472-0186
 30 33 0 0 0
SMALL
GASTEIGER
Energy = 0

@<TRIPOS>ATOM
      1 C           0.9330    3.0130    0.0000 C.ar    1  LIG1        0.1554
      2 N           0.9460    4.0130    0.0000 N.ar    1  LIG1       -0.2271
      3 C           0.0750    4.5130    0.0000 C.ar    1  LIG1        0.1004
      4 C          -0.7920    4.0080    0.0000 C.ar    1  LIG1        0.0996
      5 N          -0.7920    3.0250    0.0000 N.ar    1  LIG1       -0.2348
      6 C           0.0670    2.5130    0.0000 C.ar    1  LIG1        0.1386
      7 S           0.0670    1.5080    0.0000 S.3     1  LIG1       -0.0823
      8 C          -0.8000    1.0210    0.0000 C.3     1  LIG1        0.1505
      9 C          -0.8000    0.0170    0.0000 C.2     1  LIG1        0.2570
     10 N          -1.6670   -0.4830    0.0000 N.am    1  LIG1       -0.1785
     11 C          -1.6670   -1.4830    0.0000 C.ar    1  LIG1        0.0735
     12 C          -0.7920   -1.9710    0.0000 C.ar    1  LIG1        0.0179
     13 C          -0.7880   -2.9750    0.0000 C.ar    1  LIG1        0.0179
     14 C          -1.6420   -3.4790    0.0000 C.ar    1  LIG1        0.0734
     15 N          -1.6210   -4.4880    0.0000 N.am    1  LIG1       -0.1792
     16 C          -2.4920   -5.0170    0.0000 C.2     1  LIG1        0.2461
     17 O          -3.3750   -4.5290    0.0000 O.2     1  LIG1       -0.2730
     18 C          -2.4750   -6.0080    0.0000 C.3     1  LIG1        0.0968
     19 C          -2.5130   -2.9920    0.0000 C.ar    1  LIG1        0.0179
     20 C          -2.5380   -1.9880    0.0000 C.ar    1  LIG1        0.0179
     21 O           0.0460   -0.4670    0.0000 O.2     1  LIG1       -0.2720
     22 C          -1.6540    4.5130    0.0000 C.ar    1  LIG1        0.0207
     23 C          -1.6540    5.5170    0.0000 C.ar    1  LIG1        0.0016
     24 C          -0.7880    6.0080    0.0000 C.ar    1  LIG1        0.0016
     25 C           0.0830    5.5040    0.0000 C.ar    1  LIG1        0.0207
     26 N           1.8000    2.5130    0.0000 N.pl3   1  LIG1       -0.2917
     27 C           2.7420    2.8880    0.0000 C.3     1  LIG1        0.0923
     28 C           3.3710    2.1170    0.0000 C.3     1  LIG1        0.0232
     29 C           2.8500    1.2790    0.0000 C.3     1  LIG1        0.0232
     30 C           1.8710    1.5170    0.0000 C.3     1  LIG1        0.0923
@<TRIPOS>BOND
     1     1     2   ar
     2     1     6   ar
     3     1    26    1
     4     2     3   ar
     5     3     4   ar
     6     3    25   ar
     7     4     5   ar
     8     4    22   ar
     9     5     6   ar
    10     6     7    1
    11     7     8    1
    12     8     9    1
    13     9    10   am
    14     9    21    2
    15    10    11    1
    16    11    12   ar
    17    11    20   ar
    18    12    13   ar
    19    13    14   ar
    20    14    15    1
    21    14    19   ar
    22    15    16   am
    23    16    17    2
    24    16    18    1
    25    19    20   ar
    26    22    23   ar
    27    23    24   ar
    28    24    25   ar
    29    26    27    1
    30    26    30    1
    31    27    28    1
    32    28    29    1
    33    29    30    1
