@<TRIPOS>MOLECULE
33219_ChemDiv_6969-0503
 25 28 0 0 0
SMALL
GASTEIGER
Energy = 0

@<TRIPOS>ATOM
      1 C           0.4290   -0.4170    0.0000 C.ar    1  LIG1        0.2713
      2 N           1.3040   -0.9170    0.0000 N.ar    1  LIG1       -0.1997
      3 N           2.2170   -0.5080    0.0000 N.ar    1  LIG1       -0.1672
      4 C           2.8830   -1.2540    0.0000 C.ar    1  LIG1        0.0806
      5 C           2.3880   -2.1210    0.0000 C.ar    1  LIG1        0.0313
      6 C           1.4130   -1.9080    0.0000 C.ar    1  LIG1        0.0652
      7 C           0.6710   -2.5830    0.0000 C.3     1  LIG1        0.0523
      8 C           3.8880   -1.1500    0.0000 C.3     1  LIG1        0.0540
      9 N          -0.4290   -0.9170    0.0000 N.ar    1  LIG1       -0.2072
     10 C          -1.2960   -0.4170    0.0000 C.ar    1  LIG1        0.1037
     11 C          -1.2960    0.5790    0.0000 C.ar    1  LIG1        0.1206
     12 N          -0.4290    1.0920    0.0000 N.ar    1  LIG1       -0.1435
     13 N           0.4290    0.5920    0.0000 N.ar    1  LIG1       -0.1080
     14 C          -2.1580    1.0790    0.0000 C.ar    1  LIG1        0.0209
     15 C          -2.1580    2.0880    0.0000 C.ar    1  LIG1        0.0016
     16 C          -3.0210    2.5880    0.0000 C.ar    1  LIG1        0.0000
     17 C          -3.8920    2.0880    0.0000 C.ar    1  LIG1        0.0000
     18 C          -3.8830    1.0790    0.0000 C.ar    1  LIG1        0.0000
     19 C          -3.0210    0.5920    0.0000 C.ar    1  LIG1        0.0016
     20 C          -2.1580   -0.9170    0.0000 C.ar    1  LIG1        0.0193
     21 C          -2.1580   -1.9080    0.0000 C.ar    1  LIG1        0.0015
     22 C          -3.0210   -2.4080    0.0000 C.ar    1  LIG1        0.0000
     23 C          -3.8920   -1.9080    0.0000 C.ar    1  LIG1        0.0000
     24 C          -3.8920   -0.9080    0.0000 C.ar    1  LIG1        0.0000
     25 C          -3.0250   -0.4080    0.0000 C.ar    1  LIG1        0.0015
@<TRIPOS>BOND
     1     1     2    1
     2     1     9   ar
     3     1    13   ar
     4     2     3   ar
     5     2     6   ar
     6     3     4   ar
     7     4     5   ar
     8     4     8    1
     9     5     6   ar
    10     6     7    1
    11     9    10   ar
    12    10    11   ar
    13    10    20    1
    14    11    12   ar
    15    11    14    1
    16    12    13   ar
    17    14    15   ar
    18    14    19   ar
    19    15    16   ar
    20    16    17   ar
    21    17    18   ar
    22    18    19   ar
    23    20    21   ar
    24    20    25   ar
    25    21    22   ar
    26    22    23   ar
    27    23    24   ar
    28    24    25   ar
