@<TRIPOS>MOLECULE
33211_ChemDiv_7210-2158
 25 29 0 0 0
SMALL
GASTEIGER
Energy = 0

@<TRIPOS>ATOM
      1 N          -0.1000    0.2750    0.0000 N.ar    1  LIG1       -0.2287
      2 C           0.7670    0.7750    0.0000 C.ar    1  LIG1        0.0824
      3 C           1.6330    0.2750    0.0000 C.ar    1  LIG1        0.0317
      4 C           1.6330   -0.7210    0.0000 C.ar    1  LIG1        0.0651
      5 N           0.7670   -1.2210    0.0000 N.pl3   1  LIG1       -0.2115
      6 C          -0.1000   -0.7210    0.0000 C.3     1  LIG1        0.2193
      7 C          -0.9670   -1.2210    0.0000 C.ar    1  LIG1        0.0235
      8 C          -1.8330   -0.7130    0.0000 C.ar    1  LIG1        0.0395
      9 C          -2.7000   -1.2170    0.0000 C.ar    1  LIG1        0.1762
     10 C          -2.7000   -2.2170    0.0000 C.ar    1  LIG1        0.1764
     11 O          -3.6540   -2.5250    0.0000 O.3     1  LIG1       -0.4346
     12 C          -4.2380   -1.7130    0.0000 C.3     1  LIG1        0.4294
     13 O          -3.6540   -0.9130    0.0000 O.3     1  LIG1       -0.4346
     14 C          -1.8330   -2.7250    0.0000 C.ar    1  LIG1        0.0400
     15 C          -0.9670   -2.2170    0.0000 C.ar    1  LIG1        0.0026
     16 C           2.5000   -1.2210    0.0000 C.ar    1  LIG1       -0.0072
     17 C           3.3670   -0.7210    0.0000 C.ar    1  LIG1       -0.0072
     18 C           3.3670    0.2750    0.0000 C.ar    1  LIG1       -0.0220
     19 C           2.5000    0.7750    0.0000 C.ar    1  LIG1       -0.0015
     20 C           4.2330    0.7750    0.0000 C.3     1  LIG1        0.0310
     21 C           2.5000   -2.2210    0.0000 C.3     1  LIG1        0.0324
     22 C           0.5580    1.7500    0.0000 C.ar    1  LIG1        0.0353
     23 C          -0.4380    1.8500    0.0000 C.ar    1  LIG1        0.0805
     24 N          -0.8420    0.9420    0.0000 N.ar    1  LIG1       -0.1719
     25 C          -0.9380    2.7290    0.0000 C.3     1  LIG1        0.0540
@<TRIPOS>BOND
     1     1     2   ar
     2     1     6    1
     3     1    24   ar
     4     2     3    1
     5     2    22   ar
     6     3     4   ar
     7     3    19   ar
     8     4     5    1
     9     4    16   ar
    10     5     6    1
    11     6     7    1
    12     7     8   ar
    13     7    15   ar
    14     8     9   ar
    15     9    10   ar
    16     9    13    1
    17    10    11    1
    18    10    14   ar
    19    11    12    1
    20    12    13    1
    21    14    15   ar
    22    16    17   ar
    23    16    21    1
    24    17    18   ar
    25    18    19   ar
    26    18    20    1
    27    22    23   ar
    28    23    24   ar
    29    23    25    1
