@<TRIPOS>MOLECULE
33217_ChemDiv_6960-0016
 27 29 0 0 0
SMALL
GASTEIGER
Energy = 0

@<TRIPOS>ATOM
      1 S           3.5000    0.8750    0.0000 S.O2    1  LIG1        0.0634
      2 C           2.5000    0.8580    0.0000 C.ar    1  LIG1        0.1224
      3 C           2.0000   -0.0040    0.0000 C.ar    1  LIG1        0.0264
      4 C           1.0080   -0.0210    0.0000 C.ar    1  LIG1        0.0775
      5 C           0.5250   -0.8880    0.0000 C.ar    1  LIG1        0.3457
      6 O          -0.4750   -0.9000    0.0000 O.2     1  LIG1       -0.4210
      7 C          -0.9880   -0.0460    0.0000 C.ar    1  LIG1        0.1500
      8 C          -0.5000    0.8290    0.0000 C.ar    1  LIG1        0.0350
      9 C           0.5000    0.8330    0.0000 C.ar    1  LIG1        0.0093
     10 C           0.9830    1.7080    0.0000 C.ar    1  LIG1        0.0017
     11 C           1.9830    1.7250    0.0000 C.ar    1  LIG1        0.0199
     12 C          -1.0170    1.6830    0.0000 C.ar    1  LIG1        0.0044
     13 C          -2.0210    1.6670    0.0000 C.ar    1  LIG1        0.0201
     14 C          -2.5080    0.7830    0.0000 C.ar    1  LIG1        0.1252
     15 S          -3.5040    0.7710    0.0000 S.O2    1  LIG1        0.0635
     16 N          -4.5130    0.7710    0.0000 N.3     1  LIG1       -0.1526
     17 C          -5.0080    1.6380    0.0000 C.3     1  LIG1        0.1150
     18 C          -5.0080   -0.0960    0.0000 C.3     1  LIG1        0.1150
     19 O          -4.0170    1.6330    0.0000 O.2     1  LIG1       -0.1528
     20 O          -4.0000   -0.0960    0.0000 O.2     1  LIG1       -0.1528
     21 C          -1.9830   -0.0630    0.0000 C.ar    1  LIG1        0.0575
     22 O           1.0330   -1.7540    0.0000 O.2     1  LIG1       -0.2445
     23 N           4.5000    0.8750    0.0000 N.3     1  LIG1       -0.1526
     24 C           5.0040    0.0080    0.0000 C.3     1  LIG1        0.1150
     25 C           4.9920    1.7420    0.0000 C.3     1  LIG1        0.1150
     26 O           4.0080    0.0130    0.0000 O.2     1  LIG1       -0.1528
     27 O           3.9920    1.7580    0.0000 O.2     1  LIG1       -0.1528
@<TRIPOS>BOND
     1     1     2    1
     2     1    23    1
     3     1    26    2
     4     1    27    2
     5     2     3   ar
     6     2    11   ar
     7     3     4   ar
     8     4     5   ar
     9     4     9   ar
    10     5     6   ar
    11     5    22    2
    12     6     7   ar
    13     7     8   ar
    14     7    21   ar
    15     8     9   ar
    16     8    12   ar
    17     9    10   ar
    18    10    11   ar
    19    12    13   ar
    20    13    14   ar
    21    14    15    1
    22    14    21   ar
    23    15    16    1
    24    15    19    2
    25    15    20    2
    26    16    17    1
    27    16    18    1
    28    23    24    1
    29    23    25    1
