@<TRIPOS>MOLECULE
33212_ChemDiv_7472-0094
 31 35 0 0 0
SMALL
GASTEIGER
Energy = 0

@<TRIPOS>ATOM
      1 C           1.6080    2.3250    0.0000 C.ar    1  LIG1        0.1554
      2 N           1.5920    3.3380    0.0000 N.ar    1  LIG1       -0.2271
      3 C           0.7000    3.8130    0.0000 C.ar    1  LIG1        0.1004
      4 C          -0.1630    3.2960    0.0000 C.ar    1  LIG1        0.0996
      5 N          -0.1330    2.2960    0.0000 N.ar    1  LIG1       -0.2348
      6 C           0.7460    1.8080    0.0000 C.ar    1  LIG1        0.1386
      7 S           0.7630    0.7920    0.0000 S.3     1  LIG1       -0.0823
      8 C          -0.0920    0.2750    0.0000 C.3     1  LIG1        0.1502
      9 C          -0.0750   -0.7290    0.0000 C.2     1  LIG1        0.2531
     10 N          -0.9380   -1.2250    0.0000 N.am    1  LIG1       -0.1998
     11 C          -0.9380   -2.2130    0.0000 C.3     1  LIG1        0.1416
     12 C          -1.8040   -2.7170    0.0000 C.ar    1  LIG1        0.0027
     13 C          -1.8040   -3.7170    0.0000 C.ar    1  LIG1        0.0376
     14 C          -2.6710   -4.2130    0.0000 C.ar    1  LIG1        0.1762
     15 C          -3.5380   -3.7170    0.0000 C.ar    1  LIG1        0.1764
     16 O          -4.2630   -4.3880    0.0000 O.3     1  LIG1       -0.4346
     17 C          -3.8500   -5.3000    0.0000 C.3     1  LIG1        0.4294
     18 O          -2.8830   -5.2040    0.0000 O.3     1  LIG1       -0.4346
     19 C          -3.5380   -2.7250    0.0000 C.ar    1  LIG1        0.0399
     20 C          -2.6710   -2.2130    0.0000 C.ar    1  LIG1        0.0008
     21 O           0.7170   -1.1960    0.0000 O.2     1  LIG1       -0.2724
     22 C          -1.0290    3.7670    0.0000 C.ar    1  LIG1        0.0207
     23 C          -1.0670    4.7670    0.0000 C.ar    1  LIG1        0.0016
     24 C          -0.2080    5.3000    0.0000 C.ar    1  LIG1        0.0016
     25 C           0.6880    4.8210    0.0000 C.ar    1  LIG1        0.0207
     26 N           2.4960    1.8540    0.0000 N.pl3   1  LIG1       -0.2917
     27 C           3.3460    2.3710    0.0000 C.3     1  LIG1        0.0922
     28 C           4.2290    1.8960    0.0000 C.3     1  LIG1        0.0215
     29 C           4.2580    0.8790    0.0000 C.3     1  LIG1        0.0035
     30 C           3.3920    0.3630    0.0000 C.3     1  LIG1        0.0215
     31 C           2.5080    0.8460    0.0000 C.3     1  LIG1        0.0922
@<TRIPOS>BOND
     1     1     2   ar
     2     1     6   ar
     3     1    26    1
     4     2     3   ar
     5     3     4   ar
     6     3    25   ar
     7     4     5   ar
     8     4    22   ar
     9     5     6   ar
    10     6     7    1
    11     7     8    1
    12     8     9    1
    13     9    10   am
    14     9    21    2
    15    10    11    1
    16    11    12    1
    17    12    13   ar
    18    12    20   ar
    19    13    14   ar
    20    14    15   ar
    21    14    18    1
    22    15    16    1
    23    15    19   ar
    24    16    17    1
    25    17    18    1
    26    19    20   ar
    27    22    23   ar
    28    23    24   ar
    29    24    25   ar
    30    26    27    1
    31    26    31    1
    32    27    28    1
    33    28    29    1
    34    29    30    1
    35    30    31    1
