@<TRIPOS>MOLECULE
33216_ChemDiv_D264-0275
 25 27 0 0 0
SMALL
GASTEIGER
Energy = 0

@<TRIPOS>ATOM
      1 N          -2.5880   -1.2630    0.0000 N.pl3   1  LIG1       -0.2920
      2 C          -3.4500   -1.7630    0.0000 C.ar    1  LIG1        0.1511
      3 N          -4.3250   -1.2630    0.0000 N.ar    1  LIG1       -0.2259
      4 C          -5.1880   -1.7630    0.0000 C.ar    1  LIG1        0.1210
      5 C          -5.1880   -2.7630    0.0000 C.ar    1  LIG1        0.1196
      6 N          -4.3250   -3.2630    0.0000 N.ar    1  LIG1       -0.2378
      7 C          -3.4500   -2.7630    0.0000 C.ar    1  LIG1        0.1331
      8 C          -1.7250   -1.7630    0.0000 C.3     1  LIG1        0.0927
      9 C          -0.8500   -1.2630    0.0000 C.3     1  LIG1        0.0307
     10 C          -0.8500   -0.2580    0.0000 C.3     1  LIG1        0.0820
     11 C           0.0170    0.2630    0.0000 C.2     1  LIG1        0.2452
     12 N           0.0080    1.2540    0.0000 N.am    1  LIG1       -0.1792
     13 C           0.8710    1.7540    0.0000 C.ar    1  LIG1        0.0734
     14 C           0.8710    2.7420    0.0000 C.ar    1  LIG1        0.0179
     15 C           1.7210    3.2420    0.0000 C.ar    1  LIG1        0.0179
     16 C           2.5960    2.7500    0.0000 C.ar    1  LIG1        0.0734
     17 N           3.4540    3.2630    0.0000 N.am    1  LIG1       -0.1792
     18 C           4.3210    2.7630    0.0000 C.2     1  LIG1        0.2461
     19 O           4.3330    1.7630    0.0000 O.2     1  LIG1       -0.2730
     20 C           5.1830    3.2670    0.0000 C.3     1  LIG1        0.0968
     21 C           2.5960    1.7540    0.0000 C.ar    1  LIG1        0.0179
     22 C           1.7330    1.2540    0.0000 C.ar    1  LIG1        0.0179
     23 O           0.8920   -0.2460    0.0000 O.2     1  LIG1       -0.2730
     24 C          -1.7250    0.2420    0.0000 C.3     1  LIG1        0.0307
     25 C          -2.5880   -0.2580    0.0000 C.3     1  LIG1        0.0927
@<TRIPOS>BOND
     1     1     2    1
     2     1     8    1
     3     1    25    1
     4     2     3   ar
     5     2     7   ar
     6     3     4   ar
     7     4     5   ar
     8     5     6   ar
     9     6     7   ar
    10     8     9    1
    11     9    10    1
    12    10    11    1
    13    10    24    1
    14    11    12   am
    15    11    23    2
    16    12    13    1
    17    13    14   ar
    18    13    22   ar
    19    14    15   ar
    20    15    16   ar
    21    16    17    1
    22    16    21   ar
    23    17    18   am
    24    18    19    2
    25    18    20    1
    26    21    22   ar
    27    24    25    1
