@<TRIPOS>MOLECULE
33227_ChemDiv_7009-0146
 20 23 0 0 0
SMALL
GASTEIGER
Energy = 0

@<TRIPOS>ATOM
      1 N           0.0750    0.9670    0.0000 N.ar    1  LIG1       -0.1854
      2 C           0.8830    1.5670    0.0000 C.ar    1  LIG1        0.2186
      3 S           1.7040    0.9750    0.0000 S.2     1  LIG1       -0.0262
      4 C           1.4000    0.0170    0.0000 C.ar    1  LIG1        0.1337
      5 N           0.3920    0.0130    0.0000 N.ar    1  LIG1       -0.1552
      6 C           1.9920   -0.7830    0.0000 C.ar    1  LIG1        0.0287
      7 C           1.5920   -1.7000    0.0000 C.ar    1  LIG1        0.0227
      8 C           2.1830   -2.5000    0.0000 C.ar    1  LIG1        0.0990
      9 N           3.1790   -2.3880    0.0000 N.ar    1  LIG1       -0.2423
     10 C           3.5790   -1.4710    0.0000 C.ar    1  LIG1        0.0990
     11 C           2.9790   -0.6710    0.0000 C.ar    1  LIG1        0.0227
     12 N           0.5710    2.5040    0.0000 N.ar    1  LIG1       -0.1199
     13 N          -0.4250    2.5040    0.0000 N.ar    1  LIG1       -0.1264
     14 C          -0.7380    1.5500    0.0000 C.ar    1  LIG1        0.1870
     15 C          -1.6830    1.2460    0.0000 C.ar    1  LIG1        0.0377
     16 C          -1.8830    0.2750    0.0000 C.ar    1  LIG1        0.0031
     17 C          -2.8290   -0.0380    0.0000 C.ar    1  LIG1        0.0001
     18 C          -3.5830    0.6290    0.0000 C.ar    1  LIG1        0.0000
     19 C          -3.3710    1.6040    0.0000 C.ar    1  LIG1        0.0001
     20 C          -2.4170    1.9170    0.0000 C.ar    1  LIG1        0.0031
@<TRIPOS>BOND
     1     1     2   ar
     2     1     5   ar
     3     1    14   ar
     4     2     3   ar
     5     2    12   ar
     6     3     4   ar
     7     4     5   ar
     8     4     6    1
     9     6     7   ar
    10     6    11   ar
    11     7     8   ar
    12     8     9   ar
    13     9    10   ar
    14    10    11   ar
    15    12    13   ar
    16    13    14   ar
    17    14    15    1
    18    15    16   ar
    19    15    20   ar
    20    16    17   ar
    21    17    18   ar
    22    18    19   ar
    23    19    20   ar
