@<TRIPOS>MOLECULE
33225_ChemDiv_7009-0141
 23 27 0 0 0
SMALL
GASTEIGER
Energy = 0

@<TRIPOS>ATOM
      1 N          -0.5380    1.2420    0.0000 N.ar    1  LIG1       -0.1854
      2 C           0.2750    1.8380    0.0000 C.ar    1  LIG1        0.2186
      3 S           1.0920    1.2500    0.0000 S.2     1  LIG1       -0.0262
      4 C           0.7880    0.2920    0.0000 C.ar    1  LIG1        0.1337
      5 N          -0.2210    0.2880    0.0000 N.ar    1  LIG1       -0.1552
      6 C           1.3790   -0.5130    0.0000 C.ar    1  LIG1        0.0288
      7 C           2.3670   -0.3960    0.0000 C.ar    1  LIG1        0.0423
      8 C           2.9630   -1.1960    0.0000 C.ar    1  LIG1        0.1765
      9 C           2.5710   -2.1130    0.0000 C.ar    1  LIG1        0.1764
     10 O           3.3290   -2.7750    0.0000 O.3     1  LIG1       -0.4346
     11 C           4.1880   -2.2580    0.0000 C.3     1  LIG1        0.4294
     12 O           3.9630   -1.2880    0.0000 O.3     1  LIG1       -0.4346
     13 C           1.5710   -2.2250    0.0000 C.ar    1  LIG1        0.0403
     14 C           0.9790   -1.4250    0.0000 C.ar    1  LIG1        0.0054
     15 N          -0.0330    2.7790    0.0000 N.ar    1  LIG1       -0.1199
     16 N          -1.0330    2.7790    0.0000 N.ar    1  LIG1       -0.1264
     17 C          -1.3420    1.8290    0.0000 C.ar    1  LIG1        0.1870
     18 C          -2.2960    1.5170    0.0000 C.ar    1  LIG1        0.0377
     19 C          -3.0330    2.1880    0.0000 C.ar    1  LIG1        0.0031
     20 C          -3.9790    1.8830    0.0000 C.ar    1  LIG1        0.0001
     21 C          -4.1920    0.9000    0.0000 C.ar    1  LIG1        0.0000
     22 C          -3.4420    0.2380    0.0000 C.ar    1  LIG1        0.0001
     23 C          -2.4960    0.5460    0.0000 C.ar    1  LIG1        0.0031
@<TRIPOS>BOND
     1     1     2   ar
     2     1     5   ar
     3     1    17   ar
     4     2     3   ar
     5     2    15   ar
     6     3     4   ar
     7     4     5   ar
     8     4     6    1
     9     6     7   ar
    10     6    14   ar
    11     7     8   ar
    12     8     9   ar
    13     8    12    1
    14     9    10    1
    15     9    13   ar
    16    10    11    1
    17    11    12    1
    18    13    14   ar
    19    15    16   ar
    20    16    17   ar
    21    17    18    1
    22    18    19   ar
    23    18    23   ar
    24    19    20   ar
    25    20    21   ar
    26    21    22   ar
    27    22    23   ar
