@<TRIPOS>MOLECULE
33224_ChemDiv_7790-1307
 30 33 0 0 0
SMALL
GASTEIGER
Energy = 0

@<TRIPOS>ATOM
      1 C           1.8130   -1.2130    0.0000 C.ar    1  LIG1        0.1253
      2 C           1.3250   -0.3330    0.0000 C.ar    1  LIG1        0.0955
      3 N           0.3460   -0.5330    0.0000 N.ar    1  LIG1       -0.2226
      4 C           0.2210   -1.5290    0.0000 C.ar    1  LIG1        0.1793
      5 S           1.1330   -1.9540    0.0000 S.2     1  LIG1       -0.0436
      6 N          -0.6580   -2.0130    0.0000 N.pl3   1  LIG1       -0.2144
      7 C          -1.5130   -1.4880    0.0000 C.3     1  LIG1        0.1190
      8 C          -2.3880   -1.9710    0.0000 C.3     1  LIG1        0.0511
      9 C          -3.2380   -1.4670    0.0000 C.2     1  LIG1       -0.0034
     10 C          -3.3250   -0.4710    0.0000 C.2     1  LIG1        0.0006
     11 C          -4.2960   -0.2540    0.0000 C.2     1  LIG1        0.0776
     12 N          -4.8040   -1.1040    0.0000 N.2     1  LIG1       -0.2445
     13 C          -4.1460   -1.8500    0.0000 C.2     1  LIG1        0.0943
     14 C          -4.5880    0.7170    0.0000 C.2     1  LIG1        0.0216
     15 C          -3.9040    1.4460    0.0000 C.2     1  LIG1        0.0342
     16 C          -2.9330    1.2290    0.0000 C.2     1  LIG1        0.1207
     17 C          -2.6460    0.2710    0.0000 C.3     1  LIG1        0.0914
     18 O          -2.2540    1.9580    0.0000 O.2     1  LIG1       -0.4753
     19 C          -1.2830    1.7290    0.0000 C.3     1  LIG1        0.2520
     20 C           1.7500    0.5750    0.0000 C.ar    1  LIG1        0.0184
     21 C           2.7420    0.6420    0.0000 C.ar    1  LIG1        0.0015
     22 C           3.1670    1.5500    0.0000 C.ar    1  LIG1        0.0000
     23 C           2.6000    2.3830    0.0000 C.ar    1  LIG1        0.0000
     24 C           1.5880    2.2790    0.0000 C.ar    1  LIG1        0.0000
     25 C           1.1790    1.3830    0.0000 C.ar    1  LIG1        0.0015
     26 C           2.8040   -1.3380    0.0000 C.2     1  LIG1        0.3489
     27 O           3.4080   -0.5330    0.0000 O.2     1  LIG1       -0.2443
     28 O           3.1960   -2.2540    0.0000 O.3     1  LIG1       -0.4451
     29 C           4.1920   -2.3790    0.0000 C.3     1  LIG1        0.2089
     30 C           4.8000   -1.5790    0.0000 C.3     1  LIG1        0.0513
@<TRIPOS>BOND
     1     1     2   ar
     2     1     5   ar
     3     1    26    1
     4     2     3   ar
     5     2    20    1
     6     3     4   ar
     7     4     5   ar
     8     4     6    1
     9     6     7    1
    10     7     8    1
    11     8     9    1
    12     9    10    2
    13     9    13    1
    14    10    11    1
    15    10    17    1
    16    11    12    1
    17    11    14    2
    18    12    13    2
    19    14    15    1
    20    15    16    2
    21    16    17    1
    22    16    18    1
    23    18    19    1
    24    20    21   ar
    25    20    25   ar
    26    21    22   ar
    27    22    23   ar
    28    23    24   ar
    29    24    25   ar
    30    26    27    2
    31    26    28    1
    32    28    29    1
    33    29    30    1
