@<TRIPOS>MOLECULE
33223_ChemDiv_6995-0178
 25 27 0 0 0
SMALL
GASTEIGER
Energy = 0

@<TRIPOS>ATOM
      1 S           2.1040    0.8210    0.0000 S.O2    1  LIG1        0.0648
      2 N           1.1580    0.4540    0.0000 N.3     1  LIG1       -0.1337
      3 C           0.9040   -0.5130    0.0000 C.3     1  LIG1        0.1918
      4 N          -0.0920   -0.5670    0.0000 N.am    1  LIG1       -0.2619
      5 C          -0.7170   -1.3420    0.0000 C.2     1  LIG1        0.2381
      6 C          -1.7080   -1.2040    0.0000 C.3     1  LIG1        0.1491
      7 S          -2.3290   -1.9790    0.0000 S.3     1  LIG1       -0.0768
      8 C          -3.3170   -1.8380    0.0000 C.ar    1  LIG1        0.1596
      9 S          -4.0370   -2.5380    0.0000 S.2     1  LIG1       -0.0435
     10 C          -4.9130   -2.0790    0.0000 C.ar    1  LIG1        0.1120
     11 N          -4.7460   -1.0960    0.0000 N.ar    1  LIG1       -0.1448
     12 N          -3.7670   -0.9500    0.0000 N.ar    1  LIG1       -0.1347
     13 C          -5.8500   -2.4170    0.0000 C.3     1  LIG1        0.0614
     14 O          -0.3460   -2.2750    0.0000 O.2     1  LIG1       -0.2739
     15 C          -0.4540    0.3670    0.0000 C.3     1  LIG1        0.1139
     16 C           0.3170    0.9920    0.0000 C.3     1  LIG1        0.1192
     17 C           3.0420    1.1830    0.0000 C.ar    1  LIG1        0.1222
     18 C           3.8210    0.5630    0.0000 C.ar    1  LIG1        0.0196
     19 C           4.7500    0.9250    0.0000 C.ar    1  LIG1       -0.0029
     20 C           4.9080    1.9130    0.0000 C.ar    1  LIG1       -0.0218
     21 C           4.1290    2.5420    0.0000 C.ar    1  LIG1       -0.0029
     22 C           3.2000    2.1710    0.0000 C.ar    1  LIG1        0.0196
     23 C           5.8460    2.2880    0.0000 C.3     1  LIG1        0.0310
     24 O           2.4670   -0.1290    0.0000 O.2     1  LIG1       -0.1527
     25 O           1.7420    1.7580    0.0000 O.2     1  LIG1       -0.1527
@<TRIPOS>BOND
     1     1     2    1
     2     1    17    1
     3     1    24    2
     4     1    25    2
     5     2     3    1
     6     2    16    1
     7     3     4    1
     8     4     5   am
     9     4    15    1
    10     5     6    1
    11     5    14    2
    12     6     7    1
    13     7     8    1
    14     8     9   ar
    15     8    12   ar
    16     9    10   ar
    17    10    11   ar
    18    10    13    1
    19    11    12   ar
    20    15    16    1
    21    17    18   ar
    22    17    22   ar
    23    18    19   ar
    24    19    20   ar
    25    20    21   ar
    26    20    23    1
    27    21    22   ar
