@<TRIPOS>MOLECULE
33221_ChemDiv_6979-0554
 22 24 0 0 0
SMALL
GASTEIGER
Energy = 0

@<TRIPOS>ATOM
      1 N          -3.0000   -1.3500    0.0000 N.ar    1  LIG1       -0.1893
      2 C          -3.0000   -0.3500    0.0000 C.ar    1  LIG1        0.2183
      3 S          -2.0460   -0.0380    0.0000 S.2     1  LIG1       -0.0262
      4 C          -1.4500   -0.8460    0.0000 C.ar    1  LIG1        0.1336
      5 N          -2.0460   -1.6580    0.0000 N.ar    1  LIG1       -0.1555
      6 C          -0.4540   -0.8460    0.0000 C.ar    1  LIG1        0.0269
      7 C           0.0460    0.0170    0.0000 C.ar    1  LIG1        0.0183
      8 C           1.0460    0.0170    0.0000 C.ar    1  LIG1        0.0694
      9 N           1.5420    0.8830    0.0000 N.am    1  LIG1       -0.1795
     10 C           2.5380    0.8830    0.0000 C.2     1  LIG1        0.2455
     11 O           3.0420    0.0170    0.0000 O.2     1  LIG1       -0.2730
     12 C           3.0420    1.7460    0.0000 C.3     1  LIG1        0.0872
     13 C           4.0370    1.7460    0.0000 C.3     1  LIG1        0.0096
     14 C           4.5380    2.6130    0.0000 C.3     1  LIG1        0.0005
     15 C           1.5420   -0.8460    0.0000 C.ar    1  LIG1       -0.0065
     16 C           1.0460   -1.7080    0.0000 C.ar    1  LIG1       -0.0029
     17 C           0.0460   -1.7080    0.0000 C.ar    1  LIG1        0.0018
     18 C           2.5380   -0.8460    0.0000 C.3     1  LIG1        0.0324
     19 N          -3.9540   -0.0380    0.0000 N.ar    1  LIG1       -0.1203
     20 N          -4.5420   -0.8460    0.0000 N.ar    1  LIG1       -0.1310
     21 C          -3.9540   -1.6580    0.0000 C.ar    1  LIG1        0.1647
     22 C          -4.2580   -2.6080    0.0000 C.3     1  LIG1        0.0757
@<TRIPOS>BOND
     1     1     2   ar
     2     1     5   ar
     3     1    21   ar
     4     2     3   ar
     5     2    19   ar
     6     3     4   ar
     7     4     5   ar
     8     4     6    1
     9     6     7   ar
    10     6    17   ar
    11     7     8   ar
    12     8     9    1
    13     8    15   ar
    14     9    10   am
    15    10    11    2
    16    10    12    1
    17    12    13    1
    18    13    14    1
    19    15    16   ar
    20    15    18    1
    21    16    17   ar
    22    19    20   ar
    23    20    21   ar
    24    21    22    1
