@<TRIPOS>MOLECULE
33233_ChemDiv_8017-4202
 21 24 0 0 0
SMALL
GASTEIGER
Energy = 0

@<TRIPOS>ATOM
      1 C          -1.5540    0.3670    0.0000 C.ar    1  LIG1        0.1453
      2 O          -2.1420   -0.4420    0.0000 O.2     1  LIG1       -0.4535
      3 C          -3.0920   -0.1380    0.0000 C.ar    1  LIG1        0.1453
      4 C          -3.0920    0.8580    0.0000 C.ar    1  LIG1        0.0376
      5 C          -2.1420    1.1670    0.0000 C.ar    1  LIG1        0.0405
      6 C          -3.9540    1.3540    0.0000 C.ar    1  LIG1        0.0031
      7 C          -4.8210    0.8540    0.0000 C.ar    1  LIG1        0.0002
      8 C          -4.8130   -0.1540    0.0000 C.ar    1  LIG1        0.0031
      9 C          -3.9460   -0.6420    0.0000 C.ar    1  LIG1        0.0375
     10 C          -0.5460    0.3670    0.0000 C.ar    1  LIG1        0.0346
     11 C          -0.0540   -0.5000    0.0000 C.ar    1  LIG1        0.0044
     12 C           0.9540   -0.5000    0.0000 C.ar    1  LIG1        0.0167
     13 C           1.4540    0.3710    0.0000 C.ar    1  LIG1        0.0734
     14 N           2.4580    0.3790    0.0000 N.am    1  LIG1       -0.1792
     15 C           2.9580   -0.4790    0.0000 C.2     1  LIG1        0.2451
     16 C           3.9540   -0.4790    0.0000 C.3     1  LIG1        0.0786
     17 C           4.8170   -0.9750    0.0000 C.3     1  LIG1        0.0096
     18 C           4.8130    0.0250    0.0000 C.3     1  LIG1        0.0096
     19 O           2.4670   -1.3500    0.0000 O.2     1  LIG1       -0.2730
     20 C           0.9420    1.2420    0.0000 C.ar    1  LIG1        0.0167
     21 C          -0.0580    1.2330    0.0000 C.ar    1  LIG1        0.0044
@<TRIPOS>BOND
     1     1     2   ar
     2     1     5   ar
     3     1    10    1
     4     2     3   ar
     5     3     4   ar
     6     3     9   ar
     7     4     5   ar
     8     4     6   ar
     9     6     7   ar
    10     7     8   ar
    11     8     9   ar
    12    10    11   ar
    13    10    21   ar
    14    11    12   ar
    15    12    13   ar
    16    13    14    1
    17    13    20   ar
    18    14    15   am
    19    15    16    1
    20    15    19    2
    21    16    17    1
    22    16    18    1
    23    17    18    1
    24    20    21   ar
