@<TRIPOS>MOLECULE
33232_ChemDiv_7839-0006
 19 21 0 0 0
SMALL
GASTEIGER
Energy = 0

@<TRIPOS>ATOM
      1 N           1.6130    0.0170    0.0000 N.3     1  LIG1       -0.1227
      2 S           0.6330    0.0080    0.0000 S.O2    1  LIG1        0.0657
      3 C          -0.3460    0.0080    0.0000 C.ar    1  LIG1        0.1225
      4 C          -0.8380    0.8580    0.0000 C.ar    1  LIG1        0.0230
      5 C          -1.8170    0.8580    0.0000 C.ar    1  LIG1        0.0383
      6 C          -2.3080    0.0080    0.0000 C.ar    1  LIG1        0.1388
      7 C          -1.8170   -0.8420    0.0000 C.ar    1  LIG1        0.0383
      8 C          -0.8380   -0.8420    0.0000 C.ar    1  LIG1        0.0230
      9 O          -3.2750    0.0170    0.0000 O.3     1  LIG1       -0.4714
     10 C          -3.7670   -0.8290    0.0000 C.3     1  LIG1        0.2525
     11 O           0.6420    0.9830    0.0000 O.2     1  LIG1       -0.1527
     12 O           0.6330   -0.9710    0.0000 O.2     1  LIG1       -0.1527
     13 C           2.0290   -0.8750    0.0000 C.3     1  LIG1        0.1731
     14 N           2.9960   -1.0920    0.0000 N.3     1  LIG1       -0.2422
     15 C           2.4880   -0.0290    0.0000 C.3     1  LIG1        0.1516
     16 N           3.0000    1.0960    0.0000 N.3     1  LIG1       -0.2422
     17 C           2.0460    0.8880    0.0000 C.3     1  LIG1        0.1731
     18 C           3.7630    0.4750    0.0000 C.3     1  LIG1        0.0920
     19 C           3.7500   -0.5000    0.0000 C.3     1  LIG1        0.0920
@<TRIPOS>BOND
     1     1     2    1
     2     1    13    1
     3     1    17    1
     4     2     3    1
     5     2    11    2
     6     2    12    2
     7     3     4   ar
     8     3     8   ar
     9     4     5   ar
    10     5     6   ar
    11     6     7   ar
    12     6     9    1
    13     7     8   ar
    14     9    10    1
    15    13    14    1
    16    14    15    1
    17    14    19    1
    18    15    16    1
    19    16    17    1
    20    16    18    1
    21    18    19    1
