@<TRIPOS>MOLECULE
33236_ChemDiv_D274-0213
 25 29 0 0 0
SMALL
GASTEIGER
Energy = 0

@<TRIPOS>ATOM
      1 C           2.4630    1.0080    0.0000 C.3     1  LIG1        0.0786
      2 N           1.6000    0.4960    0.0000 N.am    1  LIG1       -0.2088
      3 C           0.7460    0.9960    0.0000 C.2     1  LIG1        0.2409
      4 C          -0.1130    0.4960    0.0000 C.3     1  LIG1        0.0816
      5 C          -0.1130   -0.5170    0.0000 C.3     1  LIG1        0.0306
      6 C          -0.9880   -1.0250    0.0000 C.3     1  LIG1        0.0927
      7 N          -1.8580   -0.5170    0.0000 N.pl3   1  LIG1       -0.2920
      8 C          -2.7210   -1.0130    0.0000 C.ar    1  LIG1        0.1511
      9 N          -3.5830   -0.5040    0.0000 N.ar    1  LIG1       -0.2259
     10 C          -4.4460   -1.0040    0.0000 C.ar    1  LIG1        0.1210
     11 C          -4.4500   -2.0040    0.0000 C.ar    1  LIG1        0.1196
     12 N          -3.5830   -2.5040    0.0000 N.ar    1  LIG1       -0.2378
     13 C          -2.7210   -2.0040    0.0000 C.ar    1  LIG1        0.1331
     14 C          -1.8580    0.4960    0.0000 C.3     1  LIG1        0.0927
     15 C          -0.9880    0.9880    0.0000 C.3     1  LIG1        0.0306
     16 O           0.7460    1.9960    0.0000 O.2     1  LIG1       -0.2734
     17 C           2.4580    2.0000    0.0000 C.3     1  LIG1        0.0200
     18 C           3.3250    2.5080    0.0000 C.3     1  LIG1        0.0017
     19 C           4.1960    2.0080    0.0000 C.3     1  LIG1        0.0001
     20 C           4.1960    1.0080    0.0000 C.3     1  LIG1        0.0017
     21 C           3.3380    0.5080    0.0000 C.3     1  LIG1        0.0200
     22 C           4.4460    0.0460    0.0000 C.3     1  LIG1        0.0001
     23 C           3.5830    0.5460    0.0000 C.3     1  LIG1        0.0017
     24 C           2.7210    0.0380    0.0000 C.3     1  LIG1        0.0200
     25 C           3.5830    1.5380    0.0000 C.3     1  LIG1        0.0001
@<TRIPOS>BOND
     1     1     2    1
     2     1    17    1
     3     1    21    1
     4     1    24    1
     5     2     3   am
     6     3     4    1
     7     3    16    2
     8     4     5    1
     9     4    15    1
    10     5     6    1
    11     6     7    1
    12     7     8    1
    13     7    14    1
    14     8     9   ar
    15     8    13   ar
    16     9    10   ar
    17    10    11   ar
    18    11    12   ar
    19    12    13   ar
    20    14    15    1
    21    17    18    1
    22    18    19    1
    23    18    25    1
    24    19    20    1
    25    20    21    1
    26    20    22    1
    27    22    23    1
    28    23    24    1
    29    23    25    1
