@<TRIPOS>MOLECULE
33230_ChemDiv_7839-0005
 18 20 0 0 0
SMALL
GASTEIGER
Energy = 0

@<TRIPOS>ATOM
      1 N           1.3750    0.0170    0.0000 N.3     1  LIG1       -0.1227
      2 S           0.3960    0.0080    0.0000 S.O2    1  LIG1        0.0657
      3 C          -0.5830    0.0080    0.0000 C.ar    1  LIG1        0.1224
      4 C          -1.0710    0.8540    0.0000 C.ar    1  LIG1        0.0222
      5 C          -2.0500    0.8540    0.0000 C.ar    1  LIG1        0.0310
      6 C          -2.5420    0.0080    0.0000 C.ar    1  LIG1        0.1402
      7 C          -2.0630   -0.8420    0.0000 C.ar    1  LIG1        0.0310
      8 C          -1.0710   -0.8420    0.0000 C.ar    1  LIG1        0.0222
      9 F          -3.5170    0.0170    0.0000 F       1  LIG1       -0.2042
     10 O           0.4000    0.9790    0.0000 O.2     1  LIG1       -0.1527
     11 O           0.3960   -0.9710    0.0000 O.2     1  LIG1       -0.1527
     12 C           1.7880   -0.8750    0.0000 C.3     1  LIG1        0.1731
     13 N           2.7500   -1.0920    0.0000 N.3     1  LIG1       -0.2422
     14 C           2.2420   -0.0290    0.0000 C.3     1  LIG1        0.1516
     15 N           2.7580    1.0960    0.0000 N.3     1  LIG1       -0.2422
     16 C           1.8040    0.8880    0.0000 C.3     1  LIG1        0.1731
     17 C           3.5130    0.4750    0.0000 C.3     1  LIG1        0.0920
     18 C           3.5000   -0.5000    0.0000 C.3     1  LIG1        0.0920
@<TRIPOS>BOND
     1     1     2    1
     2     1    12    1
     3     1    16    1
     4     2     3    1
     5     2    10    2
     6     2    11    2
     7     3     4   ar
     8     3     8   ar
     9     4     5   ar
    10     5     6   ar
    11     6     7   ar
    12     6     9    1
    13     7     8   ar
    14    12    13    1
    15    13    14    1
    16    13    18    1
    17    14    15    1
    18    15    16    1
    19    15    17    1
    20    17    18    1
