@<TRIPOS>MOLECULE
33245_ChemDiv_7229-0019
 20 23 0 0 0
SMALL
GASTEIGER
Energy = 0

@<TRIPOS>ATOM
      1 C           0.1710   -0.9210    0.0000 C.ar    1  LIG1        0.2297
      2 C          -0.4210   -0.1040    0.0000 C.ar    1  LIG1        0.0551
      3 C          -0.0210    0.8000    0.0000 C.ar    1  LIG1        0.0078
      4 C           0.9750    0.9040    0.0000 C.ar    1  LIG1        0.0382
      5 C           1.5630    0.1040    0.0000 C.ar    1  LIG1        0.1890
      6 O           1.1670   -0.8170    0.0000 O.2     1  LIG1       -0.4328
      7 C           2.5580    0.2130    0.0000 C.ar    1  LIG1        0.2683
      8 C           2.9670    1.1330    0.0000 C.ar    1  LIG1        0.2374
      9 C           2.3630    1.9330    0.0000 C.ar    1  LIG1        0.0456
     10 C           1.3750    1.8250    0.0000 C.ar    1  LIG1        0.0065
     11 O           3.9580    1.2380    0.0000 O.3     1  LIG1       -0.2830
     12 O           3.1460   -0.6040    0.0000 O.3     1  LIG1       -0.2798
     13 C          -1.3710   -0.4250    0.0000 C.ar    1  LIG1        0.0227
     14 C          -1.3710   -1.4210    0.0000 C.ar    1  LIG1        0.0846
     15 N          -0.4130   -1.7380    0.0000 N.ar    1  LIG1       -0.2114
     16 C          -2.2420   -1.9290    0.0000 C.ar    1  LIG1        0.0197
     17 C          -3.1000   -1.4210    0.0000 C.ar    1  LIG1        0.0082
     18 C          -3.1000   -0.4330    0.0000 C.ar    1  LIG1        0.0347
     19 C          -2.2420    0.0750    0.0000 C.ar    1  LIG1        0.0083
     20 BR         -3.9630    0.0670    0.0000 Br      1  LIG1       -0.0490
@<TRIPOS>BOND
     1     1     2    1
     2     1     6   ar
     3     1    15   ar
     4     2     3   ar
     5     2    13   ar
     6     3     4   ar
     7     4     5   ar
     8     4    10   ar
     9     5     6   ar
    10     5     7   ar
    11     7     8   ar
    12     7    12    1
    13     8     9   ar
    14     8    11    1
    15     9    10   ar
    16    13    14   ar
    17    13    19   ar
    18    14    15   ar
    19    14    16   ar
    20    16    17   ar
    21    17    18   ar
    22    18    19   ar
    23    18    20    1
