@<TRIPOS>MOLECULE
33244_ChemDiv_E229-0143
 26 29 0 0 0
SMALL
GASTEIGER
Energy = 0

@<TRIPOS>ATOM
      1 C          -0.8710    1.7130    0.0000 C.ar    1  LIG1        0.1479
      2 N          -1.7380    1.2130    0.0000 N.ar    1  LIG1       -0.2277
      3 C          -2.6040    1.7130    0.0000 C.ar    1  LIG1        0.0988
      4 C          -2.6040    2.7130    0.0000 C.ar    1  LIG1        0.0818
      5 N          -1.7380    3.2130    0.0000 N.ar    1  LIG1       -0.3011
      6 C          -0.8710    2.7130    0.0000 C.ar    1  LIG1        0.0959
      7 C          -0.1250    3.3830    0.0000 C.ar    1  LIG1        0.0219
      8 C          -0.5380    4.2920    0.0000 C.ar    1  LIG1        0.0206
      9 C          -1.5250    4.1920    0.0000 C.ar    1  LIG1        0.0802
     10 C          -3.4580    3.2130    0.0000 C.ar    1  LIG1        0.0190
     11 C          -4.3380    2.7130    0.0000 C.ar    1  LIG1        0.0016
     12 C          -4.3380    1.7130    0.0000 C.ar    1  LIG1        0.0016
     13 C          -3.4580    1.2130    0.0000 C.ar    1  LIG1        0.0206
     14 N          -0.0080    1.2130    0.0000 N.pl3   1  LIG1       -0.2921
     15 C           0.8580    1.7130    0.0000 C.3     1  LIG1        0.0927
     16 C           1.7250    1.2130    0.0000 C.3     1  LIG1        0.0306
     17 C           1.7250    0.2080    0.0000 C.3     1  LIG1        0.0816
     18 C           2.6000   -0.2920    0.0000 C.2     1  LIG1        0.2411
     19 O           3.4670    0.2080    0.0000 O.2     1  LIG1       -0.2734
     20 N           2.6170   -1.2920    0.0000 N.am    1  LIG1       -0.2027
     21 C           3.4750   -1.7920    0.0000 C.3     1  LIG1        0.1471
     22 C           3.4750   -2.7920    0.0000 C.3     1  LIG1        0.1656
     23 O           4.3330   -3.2920    0.0000 O.3     1  LIG1       -0.3492
     24 C           4.3330   -4.2920    0.0000 C.3     1  LIG1        0.1742
     25 C           0.8500   -0.2920    0.0000 C.3     1  LIG1        0.0306
     26 C          -0.0080    0.2080    0.0000 C.3     1  LIG1        0.0927
@<TRIPOS>BOND
     1     1     2   ar
     2     1     6   ar
     3     1    14    1
     4     2     3   ar
     5     3     4   ar
     6     3    13   ar
     7     4     5   ar
     8     4    10   ar
     9     5     6   ar
    10     5     9   ar
    11     6     7   ar
    12     7     8   ar
    13     8     9   ar
    14    10    11   ar
    15    11    12   ar
    16    12    13   ar
    17    14    15    1
    18    14    26    1
    19    15    16    1
    20    16    17    1
    21    17    18    1
    22    17    25    1
    23    18    19    2
    24    18    20   am
    25    20    21    1
    26    21    22    1
    27    22    23    1
    28    23    24    1
    29    25    26    1
