@<TRIPOS>MOLECULE
33246_ChemDiv_E229-0163
 30 34 0 0 0
SMALL
GASTEIGER
Energy = 0

@<TRIPOS>ATOM
      1 C          -1.7420    1.2080    0.0000 C.ar    1  LIG1        0.1479
      2 N          -2.6080    0.7080    0.0000 N.ar    1  LIG1       -0.2277
      3 C          -3.4750    1.2080    0.0000 C.ar    1  LIG1        0.0988
      4 C          -3.4750    2.2080    0.0000 C.ar    1  LIG1        0.0818
      5 N          -2.6080    2.7080    0.0000 N.ar    1  LIG1       -0.3011
      6 C          -1.7420    2.2080    0.0000 C.ar    1  LIG1        0.0959
      7 C          -1.0000    2.8830    0.0000 C.ar    1  LIG1        0.0219
      8 C          -1.4080    3.7920    0.0000 C.ar    1  LIG1        0.0206
      9 C          -2.4000    3.6920    0.0000 C.ar    1  LIG1        0.0802
     10 C          -4.3290    2.7080    0.0000 C.ar    1  LIG1        0.0190
     11 C          -5.2080    2.2080    0.0000 C.ar    1  LIG1        0.0016
     12 C          -5.2080    1.2080    0.0000 C.ar    1  LIG1        0.0016
     13 C          -4.3290    0.7080    0.0000 C.ar    1  LIG1        0.0206
     14 N          -0.8830    0.7080    0.0000 N.pl3   1  LIG1       -0.2921
     15 C          -0.8830   -0.2880    0.0000 C.3     1  LIG1        0.0927
     16 C          -0.0250   -0.7880    0.0000 C.3     1  LIG1        0.0306
     17 C           0.8500   -0.2880    0.0000 C.3     1  LIG1        0.0816
     18 C           1.7210   -0.7880    0.0000 C.2     1  LIG1        0.2409
     19 N           1.7380   -1.7880    0.0000 N.am    1  LIG1       -0.2072
     20 C           2.6000   -2.2880    0.0000 C.3     1  LIG1        0.0953
     21 C           3.4670   -1.7880    0.0000 C.3     1  LIG1        0.0200
     22 C           4.3330   -2.2880    0.0000 C.3     1  LIG1        0.0017
     23 C           4.3330   -3.2880    0.0000 C.3     1  LIG1        0.0001
     24 C           3.4540   -3.7880    0.0000 C.3     1  LIG1        0.0018
     25 C           2.6000   -3.2880    0.0000 C.3     1  LIG1        0.0217
     26 C           5.2040   -1.7880    0.0000 C.3     1  LIG1        0.0001
     27 C           3.4670   -0.7880    0.0000 C.3     1  LIG1        0.0018
     28 O           2.5880   -0.2880    0.0000 O.2     1  LIG1       -0.2734
     29 C           0.8500    0.7080    0.0000 C.3     1  LIG1        0.0306
     30 C          -0.0170    1.2080    0.0000 C.3     1  LIG1        0.0927
@<TRIPOS>BOND
     1     1     2   ar
     2     1     6   ar
     3     1    14    1
     4     2     3   ar
     5     3     4   ar
     6     3    13   ar
     7     4     5   ar
     8     4    10   ar
     9     5     6   ar
    10     5     9   ar
    11     6     7   ar
    12     7     8   ar
    13     8     9   ar
    14    10    11   ar
    15    11    12   ar
    16    12    13   ar
    17    14    15    1
    18    14    30    1
    19    15    16    1
    20    16    17    1
    21    17    18    1
    22    17    29    1
    23    18    19   am
    24    18    28    2
    25    19    20    1
    26    20    21    1
    27    20    25    1
    28    21    22    1
    29    21    27    1
    30    22    23    1
    31    22    26    1
    32    23    24    1
    33    24    25    1
    34    29    30    1
