@<TRIPOS>MOLECULE
33249_ChemDiv_7010-0073
 26 30 0 0 0
SMALL
GASTEIGER
Energy = 0

@<TRIPOS>ATOM
      1 N           0.4710   -1.3000    0.0000 N.ar    1  LIG1       -0.2225
      2 C           1.4790   -1.2790    0.0000 C.ar    1  LIG1        0.1943
      3 N           1.9500   -0.4080    0.0000 N.ar    1  LIG1       -0.2205
      4 C           2.9580   -0.6330    0.0000 C.ar    1  LIG1        0.0895
      5 C           3.0460   -1.6330    0.0000 C.ar    1  LIG1        0.0500
      6 S           2.1250   -2.0210    0.0000 S.2     1  LIG1       -0.0472
      7 C           3.9380   -2.0500    0.0000 C.ar    1  LIG1        0.0081
      8 C           4.7750   -1.4830    0.0000 C.ar    1  LIG1        0.0006
      9 C           4.6790   -0.4710    0.0000 C.ar    1  LIG1        0.0016
     10 C           3.7750   -0.0670    0.0000 C.ar    1  LIG1        0.0197
     11 C          -0.0460   -0.4420    0.0000 C.ar    1  LIG1        0.0016
     12 C          -1.0250   -0.6880    0.0000 C.ar    1  LIG1        0.0393
     13 C          -1.8080   -0.0670    0.0000 C.3     1  LIG1        0.2154
     14 O          -1.7750    0.9290    0.0000 O.3     1  LIG1       -0.4399
     15 C          -2.7170    1.2710    0.0000 C.2     1  LIG1        0.3415
     16 C          -3.3080    0.5000    0.0000 C.ar    1  LIG1        0.0754
     17 C          -2.7580   -0.3210    0.0000 C.ar    1  LIG1        0.0279
     18 C          -3.2080   -1.2250    0.0000 C.ar    1  LIG1       -0.0003
     19 C          -4.2210   -1.2880    0.0000 C.ar    1  LIG1       -0.0002
     20 C          -4.7790   -0.4500    0.0000 C.ar    1  LIG1        0.0002
     21 C          -4.3250    0.4380    0.0000 C.ar    1  LIG1        0.0062
     22 O          -3.0170    2.2170    0.0000 O.2     1  LIG1       -0.2449
     23 C          -1.0880   -1.6630    0.0000 C.ar    1  LIG1        0.0793
     24 N          -0.1750   -2.0630    0.0000 N.ar    1  LIG1       -0.1691
     25 C          -1.9380   -2.2130    0.0000 C.3     1  LIG1        0.0537
     26 O           0.3290    0.4920    0.0000 O.co2   1  LIG1       -0.8597
@<TRIPOS>BOND
     1     1     2    1
     2     1    11   ar
     3     1    24   ar
     4     2     3   ar
     5     2     6   ar
     6     3     4   ar
     7     4     5   ar
     8     4    10   ar
     9     5     6   ar
    10     5     7   ar
    11     7     8   ar
    12     8     9   ar
    13     9    10   ar
    14    11    12   ar
    15    11    26    1
    16    12    13    1
    17    12    23   ar
    18    13    14    1
    19    13    17    1
    20    14    15    1
    21    15    16    1
    22    15    22    2
    23    16    17   ar
    24    16    21   ar
    25    17    18   ar
    26    18    19   ar
    27    19    20   ar
    28    20    21   ar
    29    23    24   ar
    30    23    25    1
