@<TRIPOS>MOLECULE
33242_ChemDiv_E229-0140
 31 35 0 0 0
SMALL
GASTEIGER
Energy = 0

@<TRIPOS>ATOM
      1 C          -1.2330    2.5040    0.0000 C.ar    1  LIG1        0.1479
      2 N          -2.1000    2.0040    0.0000 N.ar    1  LIG1       -0.2277
      3 C          -2.9670    2.5040    0.0000 C.ar    1  LIG1        0.0988
      4 C          -2.9670    3.5040    0.0000 C.ar    1  LIG1        0.0818
      5 N          -2.1000    4.0000    0.0000 N.ar    1  LIG1       -0.3011
      6 C          -1.2330    3.5040    0.0000 C.ar    1  LIG1        0.0959
      7 C          -0.4880    4.1750    0.0000 C.ar    1  LIG1        0.0219
      8 C          -0.9000    5.0880    0.0000 C.ar    1  LIG1        0.0206
      9 C          -1.8920    4.9830    0.0000 C.ar    1  LIG1        0.0802
     10 C          -3.8250    4.0000    0.0000 C.ar    1  LIG1        0.0190
     11 C          -4.7040    3.5040    0.0000 C.ar    1  LIG1        0.0016
     12 C          -4.7040    2.5040    0.0000 C.ar    1  LIG1        0.0016
     13 C          -3.8250    2.0040    0.0000 C.ar    1  LIG1        0.0206
     14 N          -0.3710    2.0040    0.0000 N.pl3   1  LIG1       -0.2921
     15 C           0.4830    2.5040    0.0000 C.3     1  LIG1        0.0927
     16 C           1.3500    2.0040    0.0000 C.3     1  LIG1        0.0306
     17 C           1.3500    1.0040    0.0000 C.3     1  LIG1        0.0816
     18 C           2.2290    0.5040    0.0000 C.2     1  LIG1        0.2410
     19 O           3.0880    1.0040    0.0000 O.2     1  LIG1       -0.2734
     20 N           2.2290   -0.5000    0.0000 N.am    1  LIG1       -0.2054
     21 C           3.0880   -1.0080    0.0000 C.3     1  LIG1        0.1169
     22 C           3.0880   -2.0000    0.0000 C.3     1  LIG1        0.0449
     23 C           3.9540   -2.5000    0.0000 C.3     1  LIG1        0.0952
     24 N           3.9540   -3.5000    0.0000 N.am    1  LIG1       -0.2795
     25 C           3.0880   -4.0000    0.0000 C.2     1  LIG1        0.2257
     26 O           2.1710   -3.5960    0.0000 O.2     1  LIG1       -0.2749
     27 C           3.3040   -4.9830    0.0000 C.3     1  LIG1        0.0870
     28 C           4.2880   -5.0880    0.0000 C.3     1  LIG1        0.0311
     29 C           4.7000   -4.1790    0.0000 C.3     1  LIG1        0.0939
     30 C           0.4830    0.5040    0.0000 C.3     1  LIG1        0.0306
     31 C          -0.3710    1.0040    0.0000 C.3     1  LIG1        0.0927
@<TRIPOS>BOND
     1     1     2   ar
     2     1     6   ar
     3     1    14    1
     4     2     3   ar
     5     3     4   ar
     6     3    13   ar
     7     4     5   ar
     8     4    10   ar
     9     5     6   ar
    10     5     9   ar
    11     6     7   ar
    12     7     8   ar
    13     8     9   ar
    14    10    11   ar
    15    11    12   ar
    16    12    13   ar
    17    14    15    1
    18    14    31    1
    19    15    16    1
    20    16    17    1
    21    17    18    1
    22    17    30    1
    23    18    19    2
    24    18    20   am
    25    20    21    1
    26    21    22    1
    27    22    23    1
    28    23    24    1
    29    24    25   am
    30    24    29    1
    31    25    26    2
    32    25    27    1
    33    27    28    1
    34    28    29    1
    35    30    31    1
