@<TRIPOS>MOLECULE
33248_ChemDiv_E229-0242
 37 42 0 0 0
SMALL
GASTEIGER
Energy = 0

@<TRIPOS>ATOM
      1 C          -2.6000    3.4670    0.0000 C.ar    1  LIG1        0.1479
      2 N          -3.4670    2.9670    0.0000 N.ar    1  LIG1       -0.2277
      3 C          -4.3330    3.4670    0.0000 C.ar    1  LIG1        0.0988
      4 C          -4.3330    4.4630    0.0000 C.ar    1  LIG1        0.0818
      5 N          -3.4670    4.9630    0.0000 N.ar    1  LIG1       -0.3011
      6 C          -2.6000    4.4630    0.0000 C.ar    1  LIG1        0.0959
      7 C          -1.8580    5.1330    0.0000 C.ar    1  LIG1        0.0219
      8 C          -2.2670    6.0460    0.0000 C.ar    1  LIG1        0.0206
      9 C          -3.2580    5.9460    0.0000 C.ar    1  LIG1        0.0802
     10 C          -5.1920    4.9630    0.0000 C.ar    1  LIG1        0.0190
     11 C          -6.0630    4.4630    0.0000 C.ar    1  LIG1        0.0016
     12 C          -6.0630    3.4670    0.0000 C.ar    1  LIG1        0.0016
     13 C          -5.1920    2.9670    0.0000 C.ar    1  LIG1        0.0206
     14 N          -1.7420    2.9670    0.0000 N.pl3   1  LIG1       -0.2921
     15 C          -1.7420    1.9670    0.0000 C.3     1  LIG1        0.0927
     16 C          -0.8830    1.4670    0.0000 C.3     1  LIG1        0.0306
     17 C          -0.0080    1.9670    0.0000 C.3     1  LIG1        0.0816
     18 C           0.8630    1.4670    0.0000 C.2     1  LIG1        0.2412
     19 O           1.7290    1.9670    0.0000 O.2     1  LIG1       -0.2734
     20 N           0.8790    0.4670    0.0000 N.am    1  LIG1       -0.1990
     21 C           1.7420   -0.0330    0.0000 C.3     1  LIG1        0.1775
     22 C           1.7420   -1.0330    0.0000 C.3     1  LIG1        0.1624
     23 N           2.5960   -1.5330    0.0000 N.4     1  LIG1        0.3786
     24 C           2.5960   -2.5330    0.0000 C.3     1  LIG1        0.1386
     25 C           3.4630   -3.0330    0.0000 C.3     1  LIG1        0.0632
     26 C           4.3290   -2.5330    0.0000 C.3     1  LIG1        0.0162
     27 C           5.1960   -3.0460    0.0000 C.3     1  LIG1        0.0268
     28 C           5.1960   -4.0460    0.0000 C.ar    1  LIG1       -0.0222
     29 C           4.3290   -4.5460    0.0000 C.ar    1  LIG1       -0.0043
     30 C           4.3290   -5.5460    0.0000 C.ar    1  LIG1       -0.0003
     31 C           5.1960   -6.0460    0.0000 C.ar    1  LIG1       -0.0000
     32 C           6.0630   -5.5460    0.0000 C.ar    1  LIG1       -0.0003
     33 C           6.0630   -4.5460    0.0000 C.ar    1  LIG1       -0.0043
     34 C           4.3290   -1.5330    0.0000 C.3     1  LIG1        0.0632
     35 C           3.4630   -1.0330    0.0000 C.3     1  LIG1        0.1386
     36 C          -0.0080    2.9670    0.0000 C.3     1  LIG1        0.0306
     37 C          -0.8750    3.4670    0.0000 C.3     1  LIG1        0.0927
@<TRIPOS>BOND
     1     1     2   ar
     2     1     6   ar
     3     1    14    1
     4     2     3   ar
     5     3     4   ar
     6     3    13   ar
     7     4     5   ar
     8     4    10   ar
     9     5     6   ar
    10     5     9   ar
    11     6     7   ar
    12     7     8   ar
    13     8     9   ar
    14    10    11   ar
    15    11    12   ar
    16    12    13   ar
    17    14    15    1
    18    14    37    1
    19    15    16    1
    20    16    17    1
    21    17    18    1
    22    17    36    1
    23    18    19    2
    24    18    20   am
    25    20    21    1
    26    21    22    1
    27    22    23    1
    28    23    24    1
    29    23    35    1
    30    24    25    1
    31    25    26    1
    32    26    27    1
    33    26    34    1
    34    27    28    1
    35    28    29   ar
    36    28    33   ar
    37    29    30   ar
    38    30    31   ar
    39    31    32   ar
    40    32    33   ar
    41    34    35    1
    42    36    37    1
