@<TRIPOS>MOLECULE
33240_ChemDiv_E229-0034
 34 39 0 0 0
SMALL
GASTEIGER
Energy = 0

@<TRIPOS>ATOM
      1 C          -1.3170    2.7080    0.0000 C.ar    1  LIG1        0.1479
      2 N          -2.1830    2.2080    0.0000 N.ar    1  LIG1       -0.2277
      3 C          -3.0460    2.7080    0.0000 C.ar    1  LIG1        0.0988
      4 C          -3.0460    3.7080    0.0000 C.ar    1  LIG1        0.0818
      5 N          -2.1830    4.2040    0.0000 N.ar    1  LIG1       -0.3011
      6 C          -1.3170    3.7080    0.0000 C.ar    1  LIG1        0.0959
      7 C          -0.5710    4.3750    0.0000 C.ar    1  LIG1        0.0219
      8 C          -0.9830    5.2880    0.0000 C.ar    1  LIG1        0.0206
      9 C          -1.9710    5.1880    0.0000 C.ar    1  LIG1        0.0802
     10 C          -3.9040    4.2040    0.0000 C.ar    1  LIG1        0.0190
     11 C          -4.7790    3.7080    0.0000 C.ar    1  LIG1        0.0016
     12 C          -4.7790    2.7080    0.0000 C.ar    1  LIG1        0.0016
     13 C          -3.9040    2.2080    0.0000 C.ar    1  LIG1        0.0206
     14 N          -0.4500    2.2080    0.0000 N.pl3   1  LIG1       -0.2921
     15 C          -0.4500    1.2080    0.0000 C.3     1  LIG1        0.0927
     16 C           0.4130    0.7080    0.0000 C.3     1  LIG1        0.0306
     17 C           1.2790    1.2080    0.0000 C.3     1  LIG1        0.0801
     18 C           2.1500    0.7080    0.0000 C.2     1  LIG1        0.2253
     19 N           2.1500   -0.2880    0.0000 N.am    1  LIG1       -0.2795
     20 C           1.2830   -0.7880    0.0000 C.3     1  LIG1        0.0934
     21 C           1.2830   -1.7880    0.0000 C.3     1  LIG1        0.0219
     22 C           2.1500   -2.2880    0.0000 C.3     1  LIG1        0.0078
     23 C           2.1630   -3.2880    0.0000 C.3     1  LIG1        0.0265
     24 C           3.0250   -3.7880    0.0000 C.ar    1  LIG1       -0.0222
     25 C           3.0330   -4.7880    0.0000 C.ar    1  LIG1       -0.0043
     26 C           3.8920   -5.2880    0.0000 C.ar    1  LIG1       -0.0003
     27 C           4.7750   -4.7830    0.0000 C.ar    1  LIG1       -0.0000
     28 C           4.7670   -3.7710    0.0000 C.ar    1  LIG1       -0.0003
     29 C           3.8920   -3.2830    0.0000 C.ar    1  LIG1       -0.0043
     30 C           3.0080   -1.7880    0.0000 C.3     1  LIG1        0.0219
     31 C           3.0080   -0.7880    0.0000 C.3     1  LIG1        0.0934
     32 O           3.0080    1.2080    0.0000 O.2     1  LIG1       -0.2749
     33 C           1.2790    2.2080    0.0000 C.3     1  LIG1        0.0306
     34 C           0.4130    2.7080    0.0000 C.3     1  LIG1        0.0927
@<TRIPOS>BOND
     1     1     2   ar
     2     1     6   ar
     3     1    14    1
     4     2     3   ar
     5     3     4   ar
     6     3    13   ar
     7     4     5   ar
     8     4    10   ar
     9     5     6   ar
    10     5     9   ar
    11     6     7   ar
    12     7     8   ar
    13     8     9   ar
    14    10    11   ar
    15    11    12   ar
    16    12    13   ar
    17    14    15    1
    18    14    34    1
    19    15    16    1
    20    16    17    1
    21    17    18    1
    22    17    33    1
    23    18    19   am
    24    18    32    2
    25    19    20    1
    26    19    31    1
    27    20    21    1
    28    21    22    1
    29    22    23    1
    30    22    30    1
    31    23    24    1
    32    24    25   ar
    33    24    29   ar
    34    25    26   ar
    35    26    27   ar
    36    27    28   ar
    37    28    29   ar
    38    30    31    1
    39    33    34    1
