@<TRIPOS>MOLECULE
33253_ChemDiv_7028-0026
 23 26 0 0 0
SMALL
GASTEIGER
Energy = 0

@<TRIPOS>ATOM
      1 C          -1.1380   -0.6670    0.0000 C.ar    1  LIG1        0.3457
      2 C          -0.5000    0.0920    0.0000 C.ar    1  LIG1        0.0763
      3 C          -0.8210    1.0330    0.0000 C.ar    1  LIG1        0.0092
      4 C          -1.7920    1.2250    0.0000 C.ar    1  LIG1        0.0349
      5 C          -2.4580    0.4710    0.0000 C.ar    1  LIG1        0.1487
      6 O          -2.1210   -0.4830    0.0000 O.2     1  LIG1       -0.4210
      7 C          -3.4330    0.6540    0.0000 C.ar    1  LIG1        0.0376
      8 C          -3.7580    1.6040    0.0000 C.ar    1  LIG1        0.0031
      9 C          -3.1040    2.3670    0.0000 C.ar    1  LIG1        0.0002
     10 C          -2.1170    2.1670    0.0000 C.ar    1  LIG1        0.0030
     11 C          -0.1710    1.7960    0.0000 C.ar    1  LIG1        0.0005
     12 C           0.8170    1.6040    0.0000 C.ar    1  LIG1        0.0045
     13 C           1.1380    0.6540    0.0000 C.ar    1  LIG1        0.0538
     14 C           2.1210    0.4710    0.0000 C.2     1  LIG1        0.2490
     15 N           2.4420   -0.4790    0.0000 N.am    1  LIG1       -0.2761
     16 C           3.4250   -0.6630    0.0000 C.3     1  LIG1        0.0937
     17 C           3.7540   -1.6040    0.0000 C.3     1  LIG1        0.0216
     18 C           3.0920   -2.3630    0.0000 C.3     1  LIG1        0.0035
     19 C           2.1080   -2.1630    0.0000 C.3     1  LIG1        0.0216
     20 C           1.7880   -1.2250    0.0000 C.3     1  LIG1        0.0937
     21 O           2.7710    1.2250    0.0000 O.2     1  LIG1       -0.2699
     22 C           0.4830   -0.1000    0.0000 C.ar    1  LIG1        0.0110
     23 O          -0.8170   -1.6130    0.0000 O.2     1  LIG1       -0.2445
@<TRIPOS>BOND
     1     1     2   ar
     2     1     6   ar
     3     1    23    2
     4     2     3   ar
     5     2    22   ar
     6     3     4   ar
     7     3    11   ar
     8     4     5   ar
     9     4    10   ar
    10     5     6   ar
    11     5     7   ar
    12     7     8   ar
    13     8     9   ar
    14     9    10   ar
    15    11    12   ar
    16    12    13   ar
    17    13    14    1
    18    13    22   ar
    19    14    15   am
    20    14    21    2
    21    15    16    1
    22    15    20    1
    23    16    17    1
    24    17    18    1
    25    18    19    1
    26    19    20    1
