@<TRIPOS>MOLECULE
33255_ChemDiv_C038-0097
 21 23 0 0 0
SMALL
GASTEIGER
Energy = 0

@<TRIPOS>ATOM
      1 C           1.2960    0.5040    0.0000 C.ar    1  LIG1        0.0914
      2 C           1.2960   -0.5000    0.0000 C.2     1  LIG1        0.2521
      3 N           0.4250   -1.0000    0.0000 N.am    1  LIG1       -0.2760
      4 C          -0.4250   -0.5000    0.0000 C.3     1  LIG1        0.0937
      5 C          -1.2920   -1.0000    0.0000 C.3     1  LIG1        0.0199
      6 C          -1.2920   -2.0040    0.0000 C.3     1  LIG1        0.0034
      7 C          -0.4250   -2.5040    0.0000 C.3     1  LIG1        0.0199
      8 C           0.4250   -2.0040    0.0000 C.3     1  LIG1        0.0937
      9 C          -0.4250   -3.5040    0.0000 C.3     1  LIG1        0.0018
     10 C          -2.1670   -0.4880    0.0000 C.3     1  LIG1        0.0018
     11 O           2.1630   -1.0000    0.0000 O.2     1  LIG1       -0.2698
     12 C           0.4250    1.0000    0.0000 C.ar    1  LIG1        0.0137
     13 C           0.4250    2.0040    0.0000 C.ar    1  LIG1        0.0763
     14 C           1.2960    2.5040    0.0000 C.ar    1  LIG1        0.3458
     15 O           2.1630    2.0040    0.0000 O.2     1  LIG1       -0.4177
     16 C           2.1630    1.0000    0.0000 C.ar    1  LIG1        0.1875
     17 O           1.2960    3.5080    0.0000 O.2     1  LIG1       -0.2445
     18 C          -0.4250    2.5040    0.0000 C.ar    1  LIG1        0.0065
     19 C          -1.2920    2.0040    0.0000 C.ar    1  LIG1        0.0002
     20 C          -1.2920    1.0000    0.0000 C.ar    1  LIG1        0.0000
     21 C          -0.4250    0.5040    0.0000 C.ar    1  LIG1        0.0005
@<TRIPOS>BOND
     1     1     2    1
     2     1    12   ar
     3     1    16   ar
     4     2     3   am
     5     2    11    2
     6     3     4    1
     7     3     8    1
     8     4     5    1
     9     5     6    1
    10     5    10    1
    11     6     7    1
    12     7     8    1
    13     7     9    1
    14    12    13   ar
    15    12    21   ar
    16    13    14   ar
    17    13    18   ar
    18    14    15   ar
    19    14    17    2
    20    15    16   ar
    21    18    19   ar
    22    19    20   ar
    23    20    21   ar
