@<TRIPOS>MOLECULE
33259_ChemDiv_8013-3201
 14 15 0 0 0
SMALL
GASTEIGER
Energy = 0

@<TRIPOS>ATOM
      1 N           0.9380    0.8540    0.0000 N.am    1  LIG1       -0.1419
      2 C           0.1170    0.3750    0.0000 C.2     1  LIG1        0.2164
      3 O          -0.7130    0.8580    0.0000 O.2     1  LIG1       -0.4602
      4 C          -0.7040    1.8130    0.0000 C.3     1  LIG1        0.2041
      5 C           0.9420    1.8080    0.0000 C.2     1  LIG1        0.2843
      6 O           1.6170    2.4790    0.0000 O.2     1  LIG1       -0.2691
      7 C          -1.3790    2.4880    0.0000 C.3     1  LIG1        0.0533
      8 C          -1.6210    2.0790    0.0000 C.3     1  LIG1        0.0533
      9 C           0.1170   -0.5790    0.0000 C.ar    1  LIG1        0.0507
     10 C          -0.7130   -1.0500    0.0000 C.ar    1  LIG1        0.0044
     11 C          -0.7170   -2.0040    0.0000 C.ar    1  LIG1        0.0001
     12 C           0.1130   -2.4830    0.0000 C.ar    1  LIG1        0.0000
     13 C           0.9420   -2.0040    0.0000 C.ar    1  LIG1        0.0001
     14 C           0.9380   -1.0500    0.0000 C.ar    1  LIG1        0.0044
@<TRIPOS>BOND
     1     1     2    2
     2     1     5   am
     3     2     3    1
     4     2     9    1
     5     3     4    1
     6     4     5    1
     7     4     7    1
     8     4     8    1
     9     5     6    2
    10     9    10   ar
    11     9    14   ar
    12    10    11   ar
    13    11    12   ar
    14    12    13   ar
    15    13    14   ar
