@<TRIPOS>MOLECULE
33257_ChemDiv_7031-1739
 17 19 0 0 0
SMALL
GASTEIGER
Energy = 0

@<TRIPOS>ATOM
      1 C          -1.8380    0.5830    0.0000 C.3     1  LIG1        0.1294
      2 N          -1.0380    1.1630    0.0000 N.2     1  LIG1       -0.2377
      3 C          -0.2210    0.5830    0.0000 C.2     1  LIG1        0.2206
      4 O          -0.5330   -0.3790    0.0000 O.2     1  LIG1       -0.4564
      5 C          -1.5330   -0.3790    0.0000 C.3     1  LIG1        0.2237
      6 C          -2.1290   -1.1880    0.0000 C.2     1  LIG1        0.0919
      7 O          -3.1130   -1.0830    0.0000 O.co2   1  LIG1       -0.5455
      8 O          -1.7130   -2.1040    0.0000 O.co2   1  LIG1       -0.5455
      9 C           0.7330    0.8830    0.0000 C.ar    1  LIG1        0.0537
     10 C           1.4380    0.1750    0.0000 C.ar    1  LIG1        0.0160
     11 C           2.4040    0.4330    0.0000 C.ar    1  LIG1        0.0578
     12 CL          3.1080   -0.2710    0.0000 Cl      1  LIG1       -0.0822
     13 C           2.6630    1.4000    0.0000 C.ar    1  LIG1        0.0114
     14 C           1.9500    2.1080    0.0000 C.ar    1  LIG1        0.0010
     15 C           0.9830    1.8420    0.0000 C.ar    1  LIG1        0.0047
     16 C          -2.3380    1.4460    0.0000 C.3     1  LIG1        0.0286
     17 C          -2.8330    0.5830    0.0000 C.3     1  LIG1        0.0286
@<TRIPOS>BOND
     1     1     2    1
     2     1     5    1
     3     1    16    1
     4     1    17    1
     5     2     3    2
     6     3     4    1
     7     3     9    1
     8     4     5    1
     9     5     6    1
    10     6     7   ar
    11     6     8   ar
    12     9    10   ar
    13     9    15   ar
    14    10    11   ar
    15    11    12    1
    16    11    13   ar
    17    13    14   ar
    18    14    15   ar
    19    16    17    1
