@<TRIPOS>MOLECULE
33251_ChemDiv_7026-0126
 27 30 0 0 0
SMALL
GASTEIGER
Energy = 0

@<TRIPOS>ATOM
      1 C           1.0330    0.0330    0.0000 C.ar    1  LIG1        0.0797
      2 C           1.1790    1.0040    0.0000 C.ar    1  LIG1        0.2845
      3 N           2.1330    1.3790    0.0000 N.ar    1  LIG1       -0.2074
      4 C           2.9290    0.7330    0.0000 C.ar    1  LIG1        0.0875
      5 C           2.7580   -0.2460    0.0000 C.ar    1  LIG1        0.0176
      6 C           1.8290   -0.5960    0.0000 C.ar    1  LIG1       -0.0099
      7 C           1.6580   -1.6250    0.0000 C.3     1  LIG1        0.0318
      8 C           3.5580   -0.8710    0.0000 C.ar    1  LIG1        0.0414
      9 C           4.4830   -0.5170    0.0000 C.ar    1  LIG1        0.1765
     10 C           4.6330    0.4880    0.0000 C.ar    1  LIG1        0.1779
     11 C           3.8580    1.1040    0.0000 C.ar    1  LIG1        0.0594
     12 O           5.6380    0.6290    0.0000 O.3     1  LIG1       -0.4346
     13 C           6.0830   -0.2210    0.0000 C.3     1  LIG1        0.4294
     14 O           5.4130   -0.9460    0.0000 O.3     1  LIG1       -0.4346
     15 O           0.3830    1.6290    0.0000 O.2     1  LIG1       -0.2647
     16 S           0.1040   -0.3170    0.0000 S.3     1  LIG1       -0.0994
     17 C          -0.6750    0.3080    0.0000 C.3     1  LIG1        0.1491
     18 C          -1.5960   -0.0420    0.0000 C.2     1  LIG1        0.2569
     19 N          -2.3960    0.5830    0.0000 N.am    1  LIG1       -0.1785
     20 C          -3.3250    0.2170    0.0000 C.ar    1  LIG1        0.0734
     21 C          -3.4580   -0.7580    0.0000 C.ar    1  LIG1        0.0171
     22 C          -4.3630   -1.1420    0.0000 C.ar    1  LIG1        0.0080
     23 C          -5.1750   -0.5710    0.0000 C.ar    1  LIG1        0.0347
     24 BR         -6.0830   -0.9540    0.0000 Br      1  LIG1       -0.0490
     25 C          -5.0330    0.4210    0.0000 C.ar    1  LIG1        0.0080
     26 C          -4.1380    0.8080    0.0000 C.ar    1  LIG1        0.0171
     27 O          -1.7750   -1.0170    0.0000 O.2     1  LIG1       -0.2720
@<TRIPOS>BOND
     1     1     2   ar
     2     1     6   ar
     3     1    16    1
     4     2     3   ar
     5     2    15    2
     6     3     4   ar
     7     4     5   ar
     8     4    11   ar
     9     5     6   ar
    10     5     8   ar
    11     6     7    1
    12     8     9   ar
    13     9    10   ar
    14     9    14    1
    15    10    11   ar
    16    10    12    1
    17    12    13    1
    18    13    14    1
    19    16    17    1
    20    17    18    1
    21    18    19   am
    22    18    27    2
    23    19    20    1
    24    20    21   ar
    25    20    26   ar
    26    21    22   ar
    27    22    23   ar
    28    23    24    1
    29    23    25   ar
    30    25    26   ar
