@<TRIPOS>MOLECULE
33263_ChemDiv_8016-9732
 14 15 0 0 0
SMALL
GASTEIGER
Energy = 0

@<TRIPOS>ATOM
      1 N           0.4040    0.5710    0.0000 N.2     1  LIG1       -0.2354
      2 C           0.1920   -0.4040    0.0000 C.2     1  LIG1        0.2204
      3 O           1.0630   -0.9040    0.0000 O.2     1  LIG1       -0.4583
      4 C           1.8040   -0.2380    0.0000 C.3     1  LIG1        0.2318
      5 C           1.3920    0.6830    0.0000 C.3     1  LIG1        0.1582
      6 C           0.9000    1.5460    0.0000 C.3     1  LIG1        0.2080
      7 O           1.3920    2.4080    0.0000 O.3     1  LIG1       -0.2182
      8 C           2.4000    0.6830    0.0000 C.3     1  LIG1        0.0310
      9 C          -0.6670   -0.9040    0.0000 C.ar    1  LIG1        0.0528
     10 C          -0.6670   -1.9040    0.0000 C.ar    1  LIG1        0.0046
     11 C          -1.5330   -2.4040    0.0000 C.ar    1  LIG1        0.0002
     12 C          -2.4040   -1.9040    0.0000 C.ar    1  LIG1        0.0000
     13 C          -2.4040   -0.9040    0.0000 C.ar    1  LIG1        0.0002
     14 C          -1.5330   -0.4040    0.0000 C.ar    1  LIG1        0.0046
@<TRIPOS>BOND
     1     1     2    2
     2     1     5    1
     3     2     3    1
     4     2     9    1
     5     3     4    1
     6     4     5    1
     7     5     6    1
     8     5     8    1
     9     6     7    1
    10     9    10   ar
    11     9    14   ar
    12    10    11   ar
    13    11    12   ar
    14    12    13   ar
    15    13    14   ar
