@<TRIPOS>MOLECULE
33269_ChemDiv_7238-1412
 27 30 0 0 0
SMALL
GASTEIGER
Energy = 0

@<TRIPOS>ATOM
      1 N          -0.8710   -1.6420    0.0000 N.ar    1  LIG1       -0.2034
      2 C          -1.7380   -1.1420    0.0000 C.ar    1  LIG1        0.2112
      3 S          -1.7380   -0.1420    0.0000 S.3     1  LIG1       -0.0635
      4 C          -0.8710    0.3630    0.0000 C.3     1  LIG1        0.1567
      5 C           0.0040   -0.1420    0.0000 C.3     1  LIG1        0.1534
      6 N           0.0040   -1.1420    0.0000 N.pl3   1  LIG1       -0.1536
      7 C           0.8670    0.3580    0.0000 C.ar    1  LIG1        0.0010
      8 C           1.7330   -0.1420    0.0000 C.ar    1  LIG1        0.0072
      9 C           2.6000    0.3580    0.0000 C.ar    1  LIG1        0.0682
     10 C           2.6000    1.3580    0.0000 C.ar    1  LIG1        0.1448
     11 C           1.7210    1.8580    0.0000 C.ar    1  LIG1        0.0371
     12 C           0.8670    1.3580    0.0000 C.ar    1  LIG1        0.0006
     13 O           3.4630    1.8670    0.0000 O.3     1  LIG1       -0.4709
     14 C           3.4630    2.8670    0.0000 C.3     1  LIG1        0.2525
     15 BR          3.4670   -0.1420    0.0000 Br      1  LIG1       -0.0459
     16 C          -0.8710    1.3630    0.0000 C.2     1  LIG1        0.2380
     17 N          -1.7380    1.8580    0.0000 N.am    1  LIG1       -0.2736
     18 C          -1.7380    2.8630    0.0000 C.3     1  LIG1        0.1255
     19 C          -2.6000    3.3630    0.0000 C.3     1  LIG1        0.1636
     20 O          -3.4670    2.8630    0.0000 O.3     1  LIG1       -0.3501
     21 C          -3.4710    1.8580    0.0000 C.3     1  LIG1        0.1636
     22 C          -2.6040    1.3580    0.0000 C.3     1  LIG1        0.1255
     23 O          -0.0080    1.8670    0.0000 O.2     1  LIG1       -0.2739
     24 N          -2.4710   -1.8080    0.0000 N.ar    1  LIG1       -0.1208
     25 N          -2.0710   -2.7210    0.0000 N.ar    1  LIG1       -0.1312
     26 C          -1.0750   -2.6130    0.0000 C.ar    1  LIG1        0.1623
     27 C          -0.4000   -3.3580    0.0000 C.3     1  LIG1        0.0756
@<TRIPOS>BOND
     1     1     2   ar
     2     1     6    1
     3     1    26   ar
     4     2     3    1
     5     2    24   ar
     6     3     4    1
     7     4     5    1
     8     4    16    1
     9     5     6    1
    10     5     7    1
    11     7     8   ar
    12     7    12   ar
    13     8     9   ar
    14     9    10   ar
    15     9    15    1
    16    10    11   ar
    17    10    13    1
    18    11    12   ar
    19    13    14    1
    20    16    17   am
    21    16    23    2
    22    17    18    1
    23    17    22    1
    24    18    19    1
    25    19    20    1
    26    20    21    1
    27    21    22    1
    28    24    25   ar
    29    25    26   ar
    30    26    27    1
