@<TRIPOS>MOLECULE
33261_ChemDiv_8016-9711
 17 18 0 0 0
SMALL
GASTEIGER
Energy = 0

@<TRIPOS>ATOM
      1 N           1.0210    0.5710    0.0000 N.2     1  LIG1       -0.2327
      2 C           0.8170   -0.4040    0.0000 C.2     1  LIG1        0.2205
      3 O           1.6830   -0.9040    0.0000 O.2     1  LIG1       -0.4582
      4 C           2.4210   -0.2380    0.0000 C.3     1  LIG1        0.2345
      5 C           2.0130    0.6750    0.0000 C.3     1  LIG1        0.1884
      6 C           3.0170    0.6750    0.0000 C.3     1  LIG1        0.2107
      7 O           3.5170    1.5460    0.0000 O.3     1  LIG1       -0.2181
      8 C           1.5170    1.5460    0.0000 C.3     1  LIG1        0.2107
      9 O           2.0130    2.4080    0.0000 O.3     1  LIG1       -0.2181
     10 C          -0.0580   -0.9040    0.0000 C.ar    1  LIG1        0.0530
     11 C          -0.9210   -0.4040    0.0000 C.ar    1  LIG1        0.0077
     12 C          -1.7880   -0.9040    0.0000 C.ar    1  LIG1        0.0371
     13 C          -1.7880   -1.9040    0.0000 C.ar    1  LIG1        0.1387
     14 C          -0.9210   -2.4040    0.0000 C.ar    1  LIG1        0.0371
     15 C          -0.0580   -1.9040    0.0000 C.ar    1  LIG1        0.0077
     16 O          -2.6500   -2.4040    0.0000 O.3     1  LIG1       -0.4714
     17 C          -3.5210   -1.9040    0.0000 C.3     1  LIG1        0.2525
@<TRIPOS>BOND
     1     1     2    2
     2     1     5    1
     3     2     3    1
     4     2    10    1
     5     3     4    1
     6     4     5    1
     7     5     6    1
     8     5     8    1
     9     6     7    1
    10     8     9    1
    11    10    11   ar
    12    10    15   ar
    13    11    12   ar
    14    12    13   ar
    15    13    14   ar
    16    13    16    1
    17    14    15   ar
    18    16    17    1
