@<TRIPOS>MOLECULE
33267_ChemDiv_7238-1220
 26 29 0 0 0
SMALL
GASTEIGER
Energy = 0

@<TRIPOS>ATOM
      1 N          -2.2670   -1.2500    0.0000 N.ar    1  LIG1       -0.2034
      2 C          -2.2670   -0.2500    0.0000 C.ar    1  LIG1        0.2112
      3 S          -1.4040    0.2500    0.0000 S.3     1  LIG1       -0.0635
      4 C          -0.5290   -0.2500    0.0000 C.3     1  LIG1        0.1567
      5 C          -0.5290   -1.2500    0.0000 C.3     1  LIG1        0.1533
      6 N          -1.4040   -1.7500    0.0000 N.pl3   1  LIG1       -0.1536
      7 C           0.3330   -1.7460    0.0000 C.ar    1  LIG1        0.0006
      8 C           0.3330   -2.7500    0.0000 C.ar    1  LIG1        0.0006
      9 C           1.1960   -3.2500    0.0000 C.ar    1  LIG1        0.0366
     10 C           2.0670   -2.7500    0.0000 C.ar    1  LIG1        0.1387
     11 C           2.0630   -1.7460    0.0000 C.ar    1  LIG1        0.0366
     12 C           1.1960   -1.2500    0.0000 C.ar    1  LIG1        0.0006
     13 O           2.9290   -3.2460    0.0000 O.3     1  LIG1       -0.4714
     14 C           3.7920   -2.7330    0.0000 C.3     1  LIG1        0.2525
     15 C           0.3330    0.2540    0.0000 C.2     1  LIG1        0.2380
     16 N           0.3250    1.2540    0.0000 N.am    1  LIG1       -0.2736
     17 C           1.2040    1.7500    0.0000 C.3     1  LIG1        0.1255
     18 C           1.2040    2.7500    0.0000 C.3     1  LIG1        0.1636
     19 O           0.3330    3.2540    0.0000 O.3     1  LIG1       -0.3501
     20 C          -0.5420    2.7540    0.0000 C.3     1  LIG1        0.1636
     21 C          -0.5420    1.7500    0.0000 C.3     1  LIG1        0.1255
     22 O           1.2040   -0.2460    0.0000 O.2     1  LIG1       -0.2739
     23 N          -3.2130    0.0540    0.0000 N.ar    1  LIG1       -0.1208
     24 N          -3.7960   -0.7500    0.0000 N.ar    1  LIG1       -0.1312
     25 C          -3.2130   -1.5540    0.0000 C.ar    1  LIG1        0.1623
     26 C          -3.5250   -2.5080    0.0000 C.3     1  LIG1        0.0756
@<TRIPOS>BOND
     1     1     2   ar
     2     1     6    1
     3     1    25   ar
     4     2     3    1
     5     2    23   ar
     6     3     4    1
     7     4     5    1
     8     4    15    1
     9     5     6    1
    10     5     7    1
    11     7     8   ar
    12     7    12   ar
    13     8     9   ar
    14     9    10   ar
    15    10    11   ar
    16    10    13    1
    17    11    12   ar
    18    13    14    1
    19    15    16   am
    20    15    22    2
    21    16    17    1
    22    16    21    1
    23    17    18    1
    24    18    19    1
    25    19    20    1
    26    20    21    1
    27    23    24   ar
    28    24    25   ar
    29    25    26    1
