@<TRIPOS>MOLECULE
33270_ChemDiv_7516-0319
 20 21 0 0 0
SMALL
GASTEIGER
Energy = 0

@<TRIPOS>ATOM
      1 N          -1.2250   -0.0210    0.0000 N.ar    1  LIG1       -0.1891
      2 S          -0.2380   -0.0500    0.0000 S.O2    1  LIG1        0.0871
      3 C           0.7630   -0.0750    0.0000 C.ar    1  LIG1        0.1279
      4 C           1.2750    0.7790    0.0000 C.ar    1  LIG1        0.0235
      5 C           2.2750    0.7500    0.0000 C.ar    1  LIG1        0.0383
      6 C           2.7580   -0.1210    0.0000 C.ar    1  LIG1        0.1388
      7 C           2.2380   -0.9750    0.0000 C.ar    1  LIG1        0.0383
      8 C           1.2420   -0.9540    0.0000 C.ar    1  LIG1        0.0235
      9 O           3.7500   -0.1500    0.0000 O.3     1  LIG1       -0.4714
     10 C           4.2250   -1.0290    0.0000 C.3     1  LIG1        0.2525
     11 O          -0.2080    0.9460    0.0000 O.2     1  LIG1       -0.1475
     12 O          -0.2500   -1.0500    0.0000 O.2     1  LIG1       -0.1475
     13 C          -1.7500   -0.8790    0.0000 C.ar    1  LIG1        0.1748
     14 N          -2.7460   -0.8630    0.0000 N.ar    1  LIG1       -0.5734
     15 C          -3.2330    0.0250    0.0000 C.ar    1  LIG1        0.1193
     16 C          -2.7040    0.8750    0.0000 C.ar    1  LIG1        0.1752
     17 C          -1.7040    0.8580    0.0000 C.ar    1  LIG1        0.1322
     18 F          -3.1920    1.7630    0.0000 F       1  LIG1       -0.2012
     19 O          -4.2290    0.0420    0.0000 O.2     1  LIG1       -0.3097
     20 O          -1.2710   -1.7580    0.0000 O.2     1  LIG1       -0.2915
@<TRIPOS>BOND
     1     1     2    1
     2     1    13   ar
     3     1    17   ar
     4     2     3    1
     5     2    11    2
     6     2    12    2
     7     3     4   ar
     8     3     8   ar
     9     4     5   ar
    10     5     6   ar
    11     6     7   ar
    12     6     9    1
    13     7     8   ar
    14     9    10    1
    15    13    14   ar
    16    13    20    2
    17    14    15   ar
    18    15    16   ar
    19    15    19    2
    20    16    17   ar
    21    16    18    1
