@<TRIPOS>MOLECULE
33275_ChemDiv_7249-0013
 13 14 0 0 0
SMALL
GASTEIGER
Energy = 0

@<TRIPOS>ATOM
      1 N           0.5290   -0.8880    0.0000 N.ar    1  LIG1       -0.2213
      2 C           0.5290    0.1290    0.0000 C.ar    1  LIG1        0.0929
      3 C          -0.3380    0.6210    0.0000 C.ar    1  LIG1        0.0571
      4 C          -0.3380    1.6380    0.0000 C.ar    1  LIG1        0.1971
      5 O           0.5290    2.1580    0.0000 O.3     1  LIG1       -0.2865
      6 C          -1.1960    2.1330    0.0000 C.ar    1  LIG1        0.0421
      7 C          -2.0540    1.6380    0.0000 C.ar    1  LIG1        0.0033
      8 C          -2.0540    0.6460    0.0000 C.ar    1  LIG1        0.0003
      9 C          -1.1960    0.1290    0.0000 C.ar    1  LIG1        0.0047
     10 C           1.4750    0.4330    0.0000 C.ar    1  LIG1        0.0574
     11 S           2.0500   -0.3880    0.0000 S.2     1  LIG1       -0.0479
     12 C           1.4750   -1.1790    0.0000 C.ar    1  LIG1        0.2006
     13 N           1.7960   -2.1540    0.0000 N.pl3   1  LIG1       -0.0998
@<TRIPOS>BOND
     1     1     2   ar
     2     1    12   ar
     3     2     3    1
     4     2    10   ar
     5     3     4   ar
     6     3     9   ar
     7     4     5    1
     8     4     6   ar
     9     6     7   ar
    10     7     8   ar
    11     8     9   ar
    12    10    11   ar
    13    11    12   ar
    14    12    13    1
