@<TRIPOS>MOLECULE
33271_ChemDiv_7238-1476
 25 28 0 0 0
SMALL
GASTEIGER
Energy = 0

@<TRIPOS>ATOM
      1 N          -1.8380   -1.2500    0.0000 N.ar    1  LIG1       -0.2034
      2 C          -1.8380   -0.2540    0.0000 C.ar    1  LIG1        0.2112
      3 S          -0.9710    0.2500    0.0000 S.3     1  LIG1       -0.0635
      4 C          -0.1000   -0.2500    0.0000 C.3     1  LIG1        0.1567
      5 C          -0.1000   -1.2500    0.0000 C.3     1  LIG1        0.1533
      6 N          -0.9630   -1.7380    0.0000 N.pl3   1  LIG1       -0.1536
      7 C           0.7710   -1.7380    0.0000 C.ar    1  LIG1        0.0003
      8 C           0.7670   -2.7500    0.0000 C.ar    1  LIG1       -0.0028
      9 C           1.6290   -3.2500    0.0000 C.ar    1  LIG1       -0.0045
     10 C           2.5000   -2.7500    0.0000 C.ar    1  LIG1       -0.0219
     11 C           2.5000   -1.7380    0.0000 C.ar    1  LIG1       -0.0045
     12 C           1.6290   -1.2500    0.0000 C.ar    1  LIG1       -0.0028
     13 C           3.3630   -3.2500    0.0000 C.3     1  LIG1        0.0310
     14 C           0.7710    0.2500    0.0000 C.2     1  LIG1        0.2380
     15 N           0.7670    1.2540    0.0000 N.am    1  LIG1       -0.2736
     16 C           1.6330    1.7540    0.0000 C.3     1  LIG1        0.1255
     17 C           1.6330    2.7540    0.0000 C.3     1  LIG1        0.1636
     18 O           0.7710    3.2540    0.0000 O.3     1  LIG1       -0.3501
     19 C          -0.1080    2.7630    0.0000 C.3     1  LIG1        0.1636
     20 C          -0.1080    1.7540    0.0000 C.3     1  LIG1        0.1255
     21 O           1.6330   -0.2380    0.0000 O.2     1  LIG1       -0.2739
     22 N          -2.7790    0.0540    0.0000 N.ar    1  LIG1       -0.1208
     23 N          -3.3670   -0.7540    0.0000 N.ar    1  LIG1       -0.1312
     24 C          -2.7750   -1.5580    0.0000 C.ar    1  LIG1        0.1623
     25 C          -3.0830   -2.5040    0.0000 C.3     1  LIG1        0.0756
@<TRIPOS>BOND
     1     1     2   ar
     2     1     6    1
     3     1    24   ar
     4     2     3    1
     5     2    22   ar
     6     3     4    1
     7     4     5    1
     8     4    14    1
     9     5     6    1
    10     5     7    1
    11     7     8   ar
    12     7    12   ar
    13     8     9   ar
    14     9    10   ar
    15    10    11   ar
    16    10    13    1
    17    11    12   ar
    18    14    15   am
    19    14    21    2
    20    15    16    1
    21    15    20    1
    22    16    17    1
    23    17    18    1
    24    18    19    1
    25    19    20    1
    26    22    23   ar
    27    23    24   ar
    28    24    25    1
