@<TRIPOS>MOLECULE
33279_ChemDiv_7272-0281
 23 25 0 0 0
SMALL
GASTEIGER
Energy = 0

@<TRIPOS>ATOM
      1 N           0.8790    1.7290    0.0000 N.ar    1  LIG1       -0.2215
      2 C           0.8790    0.7210    0.0000 C.ar    1  LIG1        0.1441
      3 N           0.0000    0.2210    0.0000 N.ar    1  LIG1       -0.3138
      4 C          -0.8670    0.7290    0.0000 C.ar    1  LIG1        0.0411
      5 C          -0.8670    1.7290    0.0000 C.ar    1  LIG1        0.0434
      6 C           0.0000    2.2330    0.0000 C.ar    1  LIG1        0.1177
      7 S           0.0130    3.2290    0.0000 S.2     1  LIG1       -0.0302
      8 C          -1.7380    2.2330    0.0000 C.3     1  LIG1        0.1715
      9 O          -2.6000    1.7290    0.0000 O.3     1  LIG1       -0.3533
     10 C          -2.6000    0.7290    0.0000 C.3     1  LIG1        0.0988
     11 C          -1.7380    0.2210    0.0000 C.3     1  LIG1        0.0708
     12 C          -3.4670    0.2330    0.0000 C.3     1  LIG1        0.0300
     13 C          -2.8630   -0.2380    0.0000 C.3     1  LIG1        0.0300
     14 C          -0.4880   -0.6420    0.0000 C.3     1  LIG1        0.1391
     15 C           0.0130   -1.5040    0.0000 C.3     1  LIG1        0.1667
     16 O          -0.4830   -2.3630    0.0000 O.3     1  LIG1       -0.3490
     17 C           0.0170   -3.2250    0.0000 C.3     1  LIG1        0.1742
     18 C           1.7380    0.2210    0.0000 C.ar    1  LIG1        0.0342
     19 C           1.7330   -0.7670    0.0000 C.ar    1  LIG1        0.0030
     20 C           2.5960   -1.2750    0.0000 C.ar    1  LIG1        0.0001
     21 C           3.4630   -0.7750    0.0000 C.ar    1  LIG1        0.0000
     22 C           3.4630    0.2210    0.0000 C.ar    1  LIG1        0.0001
     23 C           2.6000    0.7210    0.0000 C.ar    1  LIG1        0.0030
@<TRIPOS>BOND
     1     1     2   ar
     2     1     6   ar
     3     2     3   ar
     4     2    18    1
     5     3     4   ar
     6     3    14    1
     7     4     5   ar
     8     4    11    1
     9     5     6   ar
    10     5     8    1
    11     6     7    2
    12     8     9    1
    13     9    10    1
    14    10    11    1
    15    10    12    1
    16    10    13    1
    17    14    15    1
    18    15    16    1
    19    16    17    1
    20    18    19   ar
    21    18    23   ar
    22    19    20   ar
    23    20    21   ar
    24    21    22   ar
    25    22    23   ar
