@<TRIPOS>MOLECULE
33277_ChemDiv_8017-6830
 17 19 0 0 0
SMALL
GASTEIGER
Energy = 0

@<TRIPOS>ATOM
      1 N          -2.4330    0.0710    0.0000 N.ar    1  LIG1       -0.1886
      2 N          -3.0250    0.8830    0.0000 N.ar    1  LIG1       -0.0385
      3 N          -3.9750    0.5710    0.0000 N.ar    1  LIG1       -0.0222
      4 N          -3.9750   -0.4290    0.0000 N.ar    1  LIG1       -0.1045
      5 C          -3.0250   -0.7420    0.0000 C.ar    1  LIG1        0.2258
      6 C          -1.4330    0.0710    0.0000 C.ar    1  LIG1        0.0863
      7 C          -0.9330    0.9330    0.0000 C.ar    1  LIG1        0.0193
      8 C           0.0710    0.9330    0.0000 C.ar    1  LIG1        0.0031
      9 C           0.5710    0.0710    0.0000 C.ar    1  LIG1        0.0183
     10 C           1.5710    0.0710    0.0000 C.ar    1  LIG1        0.0898
     11 N           2.1580   -0.7380    0.0000 N.ar    1  LIG1       -0.2214
     12 C           3.1080   -0.4290    0.0000 C.ar    1  LIG1        0.2006
     13 S           3.1080    0.5710    0.0000 S.2     1  LIG1       -0.0479
     14 C           2.1580    0.8830    0.0000 C.ar    1  LIG1        0.0573
     15 N           3.9710   -0.9290    0.0000 N.pl3   1  LIG1       -0.0998
     16 C           0.0710   -0.7920    0.0000 C.ar    1  LIG1        0.0031
     17 C          -0.9330   -0.7920    0.0000 C.ar    1  LIG1        0.0193
@<TRIPOS>BOND
     1     1     2   ar
     2     1     5   ar
     3     1     6    1
     4     2     3   ar
     5     3     4   ar
     6     4     5   ar
     7     6     7   ar
     8     6    17   ar
     9     7     8   ar
    10     8     9   ar
    11     9    10    1
    12     9    16   ar
    13    10    11   ar
    14    10    14   ar
    15    11    12   ar
    16    12    13   ar
    17    12    15    1
    18    13    14   ar
    19    16    17   ar
