@<TRIPOS>MOLECULE
33276_ChemDiv_7567-0155
 29 32 0 0 0
SMALL
GASTEIGER
Energy = 0

@<TRIPOS>ATOM
      1 C          -2.1130   -1.6750    0.0000 C.ar    1  LIG1        0.3159
      2 N          -2.7040   -2.4750    0.0000 N.ar    1  LIG1       -0.1930
      3 C          -3.6500   -2.1670    0.0000 C.ar    1  LIG1        0.1202
      4 C          -3.6500   -1.1670    0.0000 C.ar    1  LIG1        0.1661
      5 O          -2.7040   -0.8540    0.0000 O.2     1  LIG1       -0.4225
      6 C          -4.5210   -0.6580    0.0000 C.ar    1  LIG1        0.0392
      7 C          -5.3830   -1.1670    0.0000 C.ar    1  LIG1        0.0032
      8 C          -5.3830   -2.1670    0.0000 C.ar    1  LIG1        0.0018
      9 C          -4.5210   -2.6670    0.0000 C.ar    1  LIG1        0.0224
     10 N          -1.1170   -1.6750    0.0000 N.pl3   1  LIG1       -0.1253
     11 C          -0.6170   -0.8130    0.0000 C.ar    1  LIG1        0.2443
     12 N           0.3830   -0.8130    0.0000 N.ar    1  LIG1       -0.2153
     13 C           0.8830    0.0540    0.0000 C.ar    1  LIG1        0.0810
     14 C           0.3830    0.9210    0.0000 C.ar    1  LIG1        0.1092
     15 C           0.8920    1.8000    0.0000 C.2     1  LIG1        0.3439
     16 O           0.3830    2.6630    0.0000 O.2     1  LIG1       -0.2448
     17 O           1.8960    1.8080    0.0000 O.3     1  LIG1       -0.4454
     18 C           2.3960    2.6710    0.0000 C.3     1  LIG1        0.2089
     19 C           3.3960    2.6710    0.0000 C.3     1  LIG1        0.0513
     20 C          -0.6170    0.9210    0.0000 C.ar    1  LIG1        0.1095
     21 N          -1.1170    0.0540    0.0000 N.ar    1  LIG1       -0.2103
     22 C           1.8830    0.0420    0.0000 C.3     1  LIG1        0.1110
     23 S           2.3830   -0.8250    0.0000 S.3     1  LIG1       -0.0692
     24 C           3.3830   -0.8250    0.0000 C.ar    1  LIG1        0.1904
     25 N           3.8750   -1.6880    0.0000 N.ar    1  LIG1       -0.2196
     26 C           4.8750   -1.6880    0.0000 C.ar    1  LIG1        0.1027
     27 C           5.3790   -0.8250    0.0000 C.ar    1  LIG1        0.0414
     28 C           4.8750    0.0380    0.0000 C.ar    1  LIG1        0.1027
     29 N           3.8790    0.0380    0.0000 N.ar    1  LIG1       -0.2196
@<TRIPOS>BOND
     1     1     2   ar
     2     1     5   ar
     3     1    10    1
     4     2     3   ar
     5     3     4   ar
     6     3     9   ar
     7     4     5   ar
     8     4     6   ar
     9     6     7   ar
    10     7     8   ar
    11     8     9   ar
    12    10    11    1
    13    11    12   ar
    14    11    21   ar
    15    12    13   ar
    16    13    14   ar
    17    13    22    1
    18    14    15    1
    19    14    20   ar
    20    15    16    2
    21    15    17    1
    22    17    18    1
    23    18    19    1
    24    20    21   ar
    25    22    23    1
    26    23    24    1
    27    24    25   ar
    28    24    29   ar
    29    25    26   ar
    30    26    27   ar
    31    27    28   ar
    32    28    29   ar
