@<TRIPOS>MOLECULE
33278_ChemDiv_7571-0719
 21 22 0 0 0
SMALL
GASTEIGER
Energy = 0

@<TRIPOS>ATOM
      1 C          -1.5000   -0.0040    0.0000 C.3     1  LIG1        0.2332
      2 C          -0.5000   -0.0040    0.0000 C.2     1  LIG1        0.2773
      3 N           0.0000   -0.8670    0.0000 N.am    1  LIG1       -0.1967
      4 C           1.0040   -0.8670    0.0000 C.3     1  LIG1        0.1565
      5 C           1.4960   -1.7210    0.0000 C.2     1  LIG1        0.0723
      6 O           2.4960   -1.7330    0.0000 O.co2   1  LIG1       -0.5474
      7 O           1.0040   -2.5960    0.0000 O.co2   1  LIG1       -0.5474
      8 O           0.0000    0.8710    0.0000 O.2     1  LIG1       -0.2700
      9 C          -1.5000   -1.0040    0.0000 C.ar    1  LIG1        0.0174
     10 C          -0.6330   -1.4960    0.0000 C.ar    1  LIG1       -0.0011
     11 C          -0.6380   -2.4960    0.0000 C.ar    1  LIG1       -0.0002
     12 C          -1.5000   -2.9960    0.0000 C.ar    1  LIG1       -0.0000
     13 C          -2.3710   -2.4830    0.0000 C.ar    1  LIG1       -0.0002
     14 C          -2.3630   -1.4830    0.0000 C.ar    1  LIG1       -0.0011
     15 C          -1.5000    1.0000    0.0000 C.ar    1  LIG1        0.0174
     16 C          -2.3630    1.5000    0.0000 C.ar    1  LIG1       -0.0011
     17 C          -2.3630    2.5000    0.0000 C.ar    1  LIG1       -0.0002
     18 C          -1.5000    3.0000    0.0000 C.ar    1  LIG1       -0.0000
     19 C          -0.6250    2.5000    0.0000 C.ar    1  LIG1       -0.0002
     20 C          -0.6250    1.5000    0.0000 C.ar    1  LIG1       -0.0011
     21 O          -2.5000   -0.0040    0.0000 O.3     1  LIG1       -0.2072
@<TRIPOS>BOND
     1     1     2    1
     2     1     9    1
     3     1    15    1
     4     1    21    1
     5     2     3   am
     6     2     8    2
     7     3     4    1
     8     4     5    1
     9     5     6   ar
    10     5     7   ar
    11     9    10   ar
    12     9    14   ar
    13    10    11   ar
    14    11    12   ar
    15    12    13   ar
    16    13    14   ar
    17    15    16   ar
    18    15    20   ar
    19    16    17   ar
    20    17    18   ar
    21    18    19   ar
    22    19    20   ar
