@<TRIPOS>MOLECULE
33273_ChemDiv_7238-1604
 30 34 0 0 0
SMALL
GASTEIGER
Energy = 0

@<TRIPOS>ATOM
      1 N          -0.8040    0.8630    0.0000 N.ar    1  LIG1       -0.1995
      2 C          -0.3040    1.7290    0.0000 C.ar    1  LIG1        0.2115
      3 S           0.6960    1.7330    0.0000 S.3     1  LIG1       -0.0635
      4 C           1.2000    0.8630    0.0000 C.3     1  LIG1        0.1567
      5 C           0.6960    0.0000    0.0000 C.3     1  LIG1        0.1534
      6 N          -0.3040    0.0000    0.0000 N.pl3   1  LIG1       -0.1534
      7 C           1.2000   -0.8670    0.0000 C.ar    1  LIG1        0.0004
      8 C           0.6960   -1.7290    0.0000 C.ar    1  LIG1       -0.0017
      9 C           1.2000   -2.5920    0.0000 C.ar    1  LIG1        0.0111
     10 C           2.2000   -2.6040    0.0000 C.ar    1  LIG1        0.0577
     11 C           2.7000   -1.7290    0.0000 C.ar    1  LIG1        0.0111
     12 C           2.2000   -0.8670    0.0000 C.ar    1  LIG1       -0.0017
     13 CL          2.7000   -3.4670    0.0000 Cl      1  LIG1       -0.0822
     14 C           2.2000    0.8670    0.0000 C.2     1  LIG1        0.2380
     15 N           2.7000    1.7330    0.0000 N.am    1  LIG1       -0.2736
     16 C           3.7000    1.7330    0.0000 C.3     1  LIG1        0.1255
     17 C           4.2000    2.5960    0.0000 C.3     1  LIG1        0.1636
     18 O           3.7000    3.4710    0.0000 O.3     1  LIG1       -0.3501
     19 C           2.7000    3.4710    0.0000 C.3     1  LIG1        0.1636
     20 C           2.2000    2.6080    0.0000 C.3     1  LIG1        0.1255
     21 O           2.7080    0.0000    0.0000 O.2     1  LIG1       -0.2739
     22 N          -0.9710    2.4710    0.0000 N.ar    1  LIG1       -0.1205
     23 N          -1.8790    2.0630    0.0000 N.ar    1  LIG1       -0.1266
     24 C          -1.7750    1.0750    0.0000 C.ar    1  LIG1        0.1847
     25 C          -2.5170    0.4000    0.0000 C.ar    1  LIG1        0.0375
     26 C          -3.4630    0.7130    0.0000 C.ar    1  LIG1        0.0031
     27 C          -4.2040    0.0460    0.0000 C.ar    1  LIG1        0.0001
     28 C          -4.0000   -0.9380    0.0000 C.ar    1  LIG1        0.0000
     29 C          -3.0380   -1.2420    0.0000 C.ar    1  LIG1        0.0001
     30 C          -2.3040   -0.5710    0.0000 C.ar    1  LIG1        0.0031
@<TRIPOS>BOND
     1     1     2   ar
     2     1     6    1
     3     1    24   ar
     4     2     3    1
     5     2    22   ar
     6     3     4    1
     7     4     5    1
     8     4    14    1
     9     5     6    1
    10     5     7    1
    11     7     8   ar
    12     7    12   ar
    13     8     9   ar
    14     9    10   ar
    15    10    11   ar
    16    10    13    1
    17    11    12   ar
    18    14    15   am
    19    14    21    2
    20    15    16    1
    21    15    20    1
    22    16    17    1
    23    17    18    1
    24    18    19    1
    25    19    20    1
    26    22    23   ar
    27    23    24   ar
    28    24    25    1
    29    25    26   ar
    30    25    30   ar
    31    26    27   ar
    32    27    28   ar
    33    28    29   ar
    34    29    30   ar
