@<TRIPOS>MOLECULE
33283_ChemDiv_8016-9793
 16 17 0 0 0
SMALL
GASTEIGER
Energy = 0

@<TRIPOS>ATOM
      1 N           0.9130    0.9580    0.0000 N.2     1  LIG1       -0.2361
      2 C           1.2170    0.0080    0.0000 C.2     1  LIG1        0.2416
      3 O           2.2170    0.0080    0.0000 O.2     1  LIG1       -0.4588
      4 C           2.5290    0.9580    0.0000 C.3     1  LIG1        0.2316
      5 C           1.7170    1.5460    0.0000 C.3     1  LIG1        0.1580
      6 C           2.4170    2.2580    0.0000 C.3     1  LIG1        0.2080
      7 O           2.1540    3.2210    0.0000 O.3     1  LIG1       -0.2182
      8 C           0.7420    1.8080    0.0000 C.3     1  LIG1        0.0310
      9 C           0.6290   -0.8000    0.0000 C.3     1  LIG1        0.2888
     10 O          -0.3630   -0.6920    0.0000 O.3     1  LIG1       -0.4655
     11 C          -0.9500   -1.5040    0.0000 C.ar    1  LIG1        0.1393
     12 C          -1.9460   -1.3920    0.0000 C.ar    1  LIG1        0.0369
     13 C          -2.5330   -2.2000    0.0000 C.ar    1  LIG1        0.0031
     14 C          -2.1330   -3.1170    0.0000 C.ar    1  LIG1        0.0002
     15 C          -1.1330   -3.2170    0.0000 C.ar    1  LIG1        0.0031
     16 C          -0.5460   -2.4040    0.0000 C.ar    1  LIG1        0.0369
@<TRIPOS>BOND
     1     1     2    2
     2     1     5    1
     3     2     3    1
     4     2     9    1
     5     3     4    1
     6     4     5    1
     7     5     6    1
     8     5     8    1
     9     6     7    1
    10     9    10    1
    11    10    11    1
    12    11    12   ar
    13    11    16   ar
    14    12    13   ar
    15    13    14   ar
    16    14    15   ar
    17    15    16   ar
