@<TRIPOS>MOLECULE
33287_ChemDiv_8016-9839
 17 18 0 0 0
SMALL
GASTEIGER
Energy = 0

@<TRIPOS>ATOM
      1 N           1.0210    0.6960    0.0000 N.2     1  LIG1       -0.2327
      2 C           2.0130    0.8080    0.0000 C.3     1  LIG1        0.1884
      3 C           2.4290   -0.0960    0.0000 C.3     1  LIG1        0.2345
      4 O           1.6920   -0.7790    0.0000 O.2     1  LIG1       -0.4582
      5 C           0.8210   -0.2830    0.0000 C.2     1  LIG1        0.2206
      6 C          -0.0460   -0.7830    0.0000 C.2     1  LIG1        0.0573
      7 C          -0.9130   -0.2920    0.0000 C.2     1  LIG1        0.0048
      8 C          -1.7790   -0.7960    0.0000 C.ar    1  LIG1        0.0002
      9 C          -2.6460   -0.2960    0.0000 C.ar    1  LIG1        0.0000
     10 C          -3.5080   -0.7960    0.0000 C.ar    1  LIG1        0.0000
     11 C          -3.5080   -1.7960    0.0000 C.ar    1  LIG1        0.0000
     12 C          -2.6460   -2.2960    0.0000 C.ar    1  LIG1        0.0000
     13 C          -1.7710   -1.7960    0.0000 C.ar    1  LIG1        0.0000
     14 C           2.5080    1.6830    0.0000 C.3     1  LIG1        0.2107
     15 O           3.5040    1.6880    0.0000 O.3     1  LIG1       -0.2181
     16 C           1.1460    1.3000    0.0000 C.3     1  LIG1        0.2107
     17 O           1.1330    2.3000    0.0000 O.3     1  LIG1       -0.2181
@<TRIPOS>BOND
     1     1     2    1
     2     1     5    2
     3     2     3    1
     4     2    14    1
     5     2    16    1
     6     3     4    1
     7     4     5    1
     8     5     6    1
     9     6     7    2
    10     7     8    1
    11     8     9   ar
    12     8    13   ar
    13     9    10   ar
    14    10    11   ar
    15    11    12   ar
    16    12    13   ar
    17    14    15    1
    18    16    17    1
