@<TRIPOS>MOLECULE
33281_ChemDiv_8016-9741
 17 18 0 0 0
SMALL
GASTEIGER
Energy = 0

@<TRIPOS>ATOM
      1 N           1.0170    0.5710    0.0000 N.2     1  LIG1       -0.2334
      2 C           2.0080    0.6830    0.0000 C.3     1  LIG1        0.1882
      3 C           2.4170   -0.2380    0.0000 C.3     1  LIG1        0.2343
      4 O           1.6790   -0.9040    0.0000 O.2     1  LIG1       -0.4587
      5 C           0.8130   -0.4040    0.0000 C.2     1  LIG1        0.2417
      6 C          -0.0580   -0.9040    0.0000 C.3     1  LIG1        0.2888
      7 O          -0.9210   -0.4040    0.0000 O.3     1  LIG1       -0.4655
      8 C          -1.7880   -0.9040    0.0000 C.ar    1  LIG1        0.1393
      9 C          -2.6580   -0.4040    0.0000 C.ar    1  LIG1        0.0369
     10 C          -3.5210   -0.9040    0.0000 C.ar    1  LIG1        0.0031
     11 C          -3.5210   -1.9040    0.0000 C.ar    1  LIG1        0.0002
     12 C          -2.6580   -2.4040    0.0000 C.ar    1  LIG1        0.0031
     13 C          -1.7880   -1.9040    0.0000 C.ar    1  LIG1        0.0369
     14 C           1.5130    1.5460    0.0000 C.3     1  LIG1        0.2107
     15 O           2.0080    2.4080    0.0000 O.3     1  LIG1       -0.2181
     16 C           3.0130    0.6830    0.0000 C.3     1  LIG1        0.2107
     17 O           3.5170    1.5460    0.0000 O.3     1  LIG1       -0.2181
@<TRIPOS>BOND
     1     1     2    1
     2     1     5    2
     3     2     3    1
     4     2    14    1
     5     2    16    1
     6     3     4    1
     7     4     5    1
     8     5     6    1
     9     6     7    1
    10     7     8    1
    11     8     9   ar
    12     8    13   ar
    13     9    10   ar
    14    10    11   ar
    15    11    12   ar
    16    12    13   ar
    17    14    15    1
    18    16    17    1
