@<TRIPOS>MOLECULE
33282_ChemDiv_8001-2800
 27 29 0 0 0
SMALL
GASTEIGER
Energy = 0

@<TRIPOS>ATOM
      1 C          -0.4960    0.0250    0.0000 C.ar    1  LIG1        0.1145
      2 C           0.5080    0.1130    0.0000 C.ar    1  LIG1        0.1286
      3 N           0.7210    1.0460    0.0000 N.ar    1  LIG1       -0.0768
      4 O          -0.1040    1.5880    0.0000 O.2     1  LIG1       -0.3532
      5 C          -0.8880    0.9330    0.0000 C.ar    1  LIG1        0.1812
      6 C          -1.8420    1.1960    0.0000 C.ar    1  LIG1        0.0374
      7 C          -2.0830    2.1670    0.0000 C.ar    1  LIG1        0.0031
      8 C          -3.0460    2.4130    0.0000 C.ar    1  LIG1        0.0001
      9 C          -3.7670    1.7290    0.0000 C.ar    1  LIG1        0.0000
     10 C          -3.5130    0.7580    0.0000 C.ar    1  LIG1        0.0001
     11 C          -2.5500    0.5040    0.0000 C.ar    1  LIG1        0.0031
     12 C           1.1170   -0.6710    0.0000 C.ar    1  LIG1        0.0382
     13 C           2.1080   -0.5250    0.0000 C.ar    1  LIG1        0.1071
     14 S           2.4540    0.3960    0.0000 S.O2    1  LIG1        0.0055
     15 C           2.8250    1.3630    0.0000 C.3     1  LIG1        0.1151
     16 C           3.1920    2.3040    0.0000 C.3     1  LIG1        0.0240
     17 C           3.7630    1.0000    0.0000 C.3     1  LIG1        0.0240
     18 C           1.8710    1.7250    0.0000 C.3     1  LIG1        0.0240
     19 O           3.4000    0.0420    0.0000 O.2     1  LIG1       -0.1687
     20 O           1.5040    0.7580    0.0000 O.2     1  LIG1       -0.1687
     21 C           2.7290   -1.3130    0.0000 C.ar    1  LIG1        0.0184
     22 C           2.3540   -2.2540    0.0000 C.ar    1  LIG1        0.0013
     23 C           1.3790   -2.4080    0.0000 C.ar    1  LIG1        0.0001
     24 C           0.7540   -1.6040    0.0000 C.ar    1  LIG1        0.0029
     25 C          -0.9960   -0.8170    0.0000 C.2     1  LIG1        0.2888
     26 O          -0.5130   -1.6920    0.0000 O.2     1  LIG1       -0.2665
     27 N          -1.9960   -0.7960    0.0000 N.am    1  LIG1       -0.0836
@<TRIPOS>BOND
     1     1     2   ar
     2     1     5   ar
     3     1    25    1
     4     2     3   ar
     5     2    12    1
     6     3     4   ar
     7     4     5   ar
     8     5     6    1
     9     6     7   ar
    10     6    11   ar
    11     7     8   ar
    12     8     9   ar
    13     9    10   ar
    14    10    11   ar
    15    12    13   ar
    16    12    24   ar
    17    13    14    1
    18    13    21   ar
    19    14    15    1
    20    14    19    2
    21    14    20    2
    22    15    16    1
    23    15    17    1
    24    15    18    1
    25    21    22   ar
    26    22    23   ar
    27    23    24   ar
    28    25    26    2
    29    25    27   am
