@<TRIPOS>MOLECULE
33297_ChemDiv_7272-0283
 29 32 0 0 0
SMALL
GASTEIGER
Energy = 0

@<TRIPOS>ATOM
      1 N           0.4500    2.1630    0.0000 N.ar    1  LIG1       -0.2215
      2 C           0.4500    1.1500    0.0000 C.ar    1  LIG1        0.1442
      3 N          -0.4250    0.6500    0.0000 N.ar    1  LIG1       -0.3106
      4 C          -1.3000    1.1540    0.0000 C.ar    1  LIG1        0.0412
      5 C          -1.3000    2.1630    0.0000 C.ar    1  LIG1        0.0434
      6 C          -0.4250    2.6630    0.0000 C.ar    1  LIG1        0.1177
      7 S          -0.4250    3.6630    0.0000 S.2     1  LIG1       -0.0302
      8 C          -2.1710    2.6630    0.0000 C.3     1  LIG1        0.1715
      9 O          -3.0330    2.1630    0.0000 O.3     1  LIG1       -0.3533
     10 C          -3.0330    1.1540    0.0000 C.3     1  LIG1        0.0988
     11 C          -2.1710    0.6500    0.0000 C.3     1  LIG1        0.0708
     12 C          -3.9040    0.6670    0.0000 C.3     1  LIG1        0.0300
     13 C          -3.3000    0.1960    0.0000 C.3     1  LIG1        0.0300
     14 C          -0.9210   -0.2130    0.0000 C.3     1  LIG1        0.1698
     15 C          -0.4250   -1.0750    0.0000 C.3     1  LIG1        0.1637
     16 N          -0.9130   -1.9380    0.0000 N.4     1  LIG1        0.3828
     17 C          -1.9130   -1.9380    0.0000 C.3     1  LIG1        0.1714
     18 C          -2.4080   -2.7960    0.0000 C.3     1  LIG1        0.2047
     19 O          -1.9130   -3.6580    0.0000 O.3     1  LIG1       -0.3411
     20 C          -0.9130   -3.6500    0.0000 C.3     1  LIG1        0.2047
     21 C          -0.4130   -2.7880    0.0000 C.3     1  LIG1        0.1714
     22 C           1.3130    0.6500    0.0000 C.ar    1  LIG1        0.0344
     23 C           1.3040   -0.3420    0.0000 C.ar    1  LIG1        0.0061
     24 C           2.1670   -0.8500    0.0000 C.ar    1  LIG1        0.0370
     25 C           3.0380   -0.3500    0.0000 C.ar    1  LIG1        0.1387
     26 C           3.0380    0.6500    0.0000 C.ar    1  LIG1        0.0370
     27 C           2.1750    1.1500    0.0000 C.ar    1  LIG1        0.0061
     28 O           3.9000   -0.8500    0.0000 O.3     1  LIG1       -0.4714
     29 C           3.9000   -1.8460    0.0000 C.3     1  LIG1        0.2525
@<TRIPOS>BOND
     1     1     2   ar
     2     1     6   ar
     3     2     3   ar
     4     2    22    1
     5     3     4   ar
     6     3    14    1
     7     4     5   ar
     8     4    11    1
     9     5     6   ar
    10     5     8    1
    11     6     7    2
    12     8     9    1
    13     9    10    1
    14    10    11    1
    15    10    12    1
    16    10    13    1
    17    14    15    1
    18    15    16    1
    19    16    17    1
    20    16    21    1
    21    17    18    1
    22    18    19    1
    23    19    20    1
    24    20    21    1
    25    22    23   ar
    26    22    27   ar
    27    23    24   ar
    28    24    25   ar
    29    25    26   ar
    30    25    28    1
    31    26    27   ar
    32    28    29    1
