@<TRIPOS>MOLECULE
33291_ChemDiv_7062-0645
 20 22 0 0 0
SMALL
GASTEIGER
Energy = 0

@<TRIPOS>ATOM
      1 C           1.1460   -0.5630    0.0000 C.ar    1  LIG1        0.2080
      2 C           0.2830   -1.0630    0.0000 C.ar    1  LIG1        0.0969
      3 C           0.2830   -2.0630    0.0000 C.ar    1  LIG1        0.2822
      4 N          -0.5880   -2.5670    0.0000 N.ar    1  LIG1       -0.2078
      5 C          -1.4540   -2.0630    0.0000 C.ar    1  LIG1        0.0842
      6 C          -1.4540   -1.0630    0.0000 C.ar    1  LIG1        0.0180
      7 C          -0.5880   -0.5630    0.0000 C.ar    1  LIG1        0.0095
      8 C          -2.3210   -0.5630    0.0000 C.ar    1  LIG1        0.0012
      9 C          -3.1880   -1.0630    0.0000 C.ar    1  LIG1       -0.0042
     10 C          -3.1880   -2.0630    0.0000 C.ar    1  LIG1       -0.0204
     11 C          -2.3210   -2.5670    0.0000 C.ar    1  LIG1        0.0150
     12 C          -4.0460   -2.5670    0.0000 C.3     1  LIG1        0.0311
     13 O           1.1460   -2.5670    0.0000 O.3     1  LIG1       -0.2651
     14 N           1.2500    0.4250    0.0000 N.ar    1  LIG1       -0.1885
     15 C           2.2330    0.6330    0.0000 C.ar    1  LIG1        0.2668
     16 O           2.7290   -0.2250    0.0000 O.2     1  LIG1       -0.3344
     17 N           2.0630   -0.9670    0.0000 N.ar    1  LIG1       -0.0558
     18 C           2.6420    1.5460    0.0000 C.3     1  LIG1        0.2300
     19 O           3.6330    1.6580    0.0000 O.3     1  LIG1       -0.3416
     20 C           4.0420    2.5710    0.0000 C.3     1  LIG1        0.1748
@<TRIPOS>BOND
     1     1     2    1
     2     1    14   ar
     3     1    17   ar
     4     2     3   ar
     5     2     7   ar
     6     3     4   ar
     7     3    13    1
     8     4     5   ar
     9     5     6   ar
    10     5    11   ar
    11     6     7   ar
    12     6     8   ar
    13     8     9   ar
    14     9    10   ar
    15    10    11   ar
    16    10    12    1
    17    14    15   ar
    18    15    16   ar
    19    15    18    1
    20    16    17   ar
    21    18    19    1
    22    19    20    1
