@<TRIPOS>MOLECULE
33299_ChemDiv_7272-0284
 25 27 0 0 0
SMALL
GASTEIGER
Energy = 0

@<TRIPOS>ATOM
      1 N           0.8750    2.1670    0.0000 N.ar    1  LIG1       -0.2215
      2 C           0.8750    1.1500    0.0000 C.ar    1  LIG1        0.1440
      3 N           0.0080    0.6540    0.0000 N.ar    1  LIG1       -0.3162
      4 C          -0.8630    1.1580    0.0000 C.ar    1  LIG1        0.0410
      5 C          -0.8630    2.1670    0.0000 C.ar    1  LIG1        0.0434
      6 C           0.0080    2.6670    0.0000 C.ar    1  LIG1        0.1177
      7 S           0.0130    3.6630    0.0000 S.2     1  LIG1       -0.0302
      8 C          -1.7420    2.6670    0.0000 C.3     1  LIG1        0.1715
      9 O          -2.6040    2.1670    0.0000 O.3     1  LIG1       -0.3533
     10 C          -2.6040    1.1580    0.0000 C.3     1  LIG1        0.0988
     11 C          -1.7420    0.6540    0.0000 C.3     1  LIG1        0.0708
     12 C          -3.4670    0.6670    0.0000 C.3     1  LIG1        0.0300
     13 C          -2.8630    0.2000    0.0000 C.3     1  LIG1        0.0300
     14 C          -0.4880   -0.2080    0.0000 C.3     1  LIG1        0.1133
     15 C           0.0130   -1.0710    0.0000 C.3     1  LIG1        0.0872
     16 C          -0.4880   -1.9330    0.0000 C.3     1  LIG1        0.1412
     17 N           0.0130   -2.7960    0.0000 N.4     1  LIG1        0.3867
     18 C          -0.4880   -3.6580    0.0000 C.3     1  LIG1        0.2025
     19 C           1.0130   -2.7960    0.0000 C.3     1  LIG1        0.2025
     20 C           1.7380    0.6540    0.0000 C.ar    1  LIG1        0.0342
     21 C           1.7380   -0.3420    0.0000 C.ar    1  LIG1        0.0030
     22 C           2.6000   -0.8460    0.0000 C.ar    1  LIG1        0.0001
     23 C           3.4630   -0.3460    0.0000 C.ar    1  LIG1        0.0000
     24 C           3.4630    0.6540    0.0000 C.ar    1  LIG1        0.0001
     25 C           2.6000    1.1500    0.0000 C.ar    1  LIG1        0.0030
@<TRIPOS>BOND
     1     1     2   ar
     2     1     6   ar
     3     2     3   ar
     4     2    20    1
     5     3     4   ar
     6     3    14    1
     7     4     5   ar
     8     4    11    1
     9     5     6   ar
    10     5     8    1
    11     6     7    2
    12     8     9    1
    13     9    10    1
    14    10    11    1
    15    10    12    1
    16    10    13    1
    17    14    15    1
    18    15    16    1
    19    16    17    1
    20    17    18    1
    21    17    19    1
    22    20    21   ar
    23    20    25   ar
    24    21    22   ar
    25    22    23   ar
    26    23    24   ar
    27    24    25   ar
