@<TRIPOS>MOLECULE
33295_ChemDiv_7080-0012
 26 29 0 0 0
SMALL
GASTEIGER
Energy = 0

@<TRIPOS>ATOM
      1 S          -0.4460   -0.5000    0.0000 S.O2    1  LIG1        0.0149
      2 C          -0.4460   -1.5000    0.0000 C.3     1  LIG1        0.1841
      3 C           0.4210   -2.0000    0.0000 C.ar    1  LIG1        0.0415
      4 C           0.4210   -3.0000    0.0000 C.ar    1  LIG1        0.1434
      5 O          -0.4460   -3.4960    0.0000 O.3     1  LIG1       -0.4540
      6 C          -1.3080   -3.0000    0.0000 C.ar    1  LIG1        0.1432
      7 C          -1.3080   -2.0000    0.0000 C.ar    1  LIG1        0.0385
      8 C          -2.1710   -1.5000    0.0000 C.ar    1  LIG1        0.0007
      9 C          -3.0420   -2.0000    0.0000 C.ar    1  LIG1       -0.0001
     10 C          -3.0420   -3.0000    0.0000 C.ar    1  LIG1        0.0031
     11 C          -2.1710   -3.4960    0.0000 C.ar    1  LIG1        0.0372
     12 C           1.2830   -3.4960    0.0000 C.ar    1  LIG1        0.0403
     13 C           2.1540   -3.0000    0.0000 C.ar    1  LIG1        0.0400
     14 C           2.1540   -2.0000    0.0000 C.ar    1  LIG1        0.1387
     15 C           1.2830   -1.5000    0.0000 C.ar    1  LIG1        0.0376
     16 O           3.0290   -1.5000    0.0000 O.3     1  LIG1       -0.4714
     17 C           3.0380   -0.5000    0.0000 C.3     1  LIG1        0.2525
     18 C          -0.4500    0.5000    0.0000 C.ar    1  LIG1        0.1063
     19 C           0.4290    1.0000    0.0000 C.ar    1  LIG1        0.0180
     20 C           0.4210    2.0040    0.0000 C.ar    1  LIG1       -0.0029
     21 C          -0.4460    2.5040    0.0000 C.ar    1  LIG1       -0.0218
     22 C          -1.3080    2.0040    0.0000 C.ar    1  LIG1       -0.0029
     23 C          -1.3080    1.0000    0.0000 C.ar    1  LIG1        0.0180
     24 C          -0.4460    3.5000    0.0000 C.3     1  LIG1        0.0310
     25 O           0.5460   -0.5000    0.0000 O.2     1  LIG1       -0.1680
     26 O          -1.4500   -0.5000    0.0000 O.2     1  LIG1       -0.1680
@<TRIPOS>BOND
     1     1     2    1
     2     1    18    1
     3     1    25    2
     4     1    26    2
     5     2     3    1
     6     2     7    1
     7     3     4   ar
     8     3    15   ar
     9     4     5    1
    10     4    12   ar
    11     5     6    1
    12     6     7   ar
    13     6    11   ar
    14     7     8   ar
    15     8     9   ar
    16     9    10   ar
    17    10    11   ar
    18    12    13   ar
    19    13    14   ar
    20    14    15   ar
    21    14    16    1
    22    16    17    1
    23    18    19   ar
    24    18    23   ar
    25    19    20   ar
    26    20    21   ar
    27    21    22   ar
    28    21    24    1
    29    22    23   ar
