@<TRIPOS>MOLECULE
33293_ChemDiv_7074-0055
 21 23 0 0 0
SMALL
GASTEIGER
Energy = 0

@<TRIPOS>ATOM
      1 N          -0.2750   -1.8210    0.0000 N.ar    1  LIG1       -0.2855
      2 C           0.3130   -2.6250    0.0000 C.ar    1  LIG1        0.2925
      3 S          -0.2630   -3.4420    0.0000 S.2     1  LIG1       -0.0260
      4 C          -1.2250   -3.1330    0.0000 C.ar    1  LIG1        0.0497
      5 C          -1.2290   -2.1250    0.0000 C.ar    1  LIG1        0.0693
      6 C          -2.0960   -1.6380    0.0000 C.ar    1  LIG1        0.0178
      7 C          -2.9540   -2.1380    0.0000 C.ar    1  LIG1        0.0015
      8 C          -2.9540   -3.1380    0.0000 C.ar    1  LIG1        0.0006
      9 C          -2.0920   -3.6420    0.0000 C.ar    1  LIG1        0.0081
     10 O           1.3170   -2.6130    0.0000 O.2     1  LIG1       -0.2594
     11 C           0.0250   -0.8670    0.0000 C.3     1  LIG1        0.1392
     12 C           1.0040   -0.6580    0.0000 C.ar    1  LIG1        0.0345
     13 C           1.2960    0.2960    0.0000 C.ar    1  LIG1        0.1363
     14 O           0.5790    1.0080    0.0000 O.3     1  LIG1       -0.4757
     15 C           0.8420    1.9710    0.0000 C.3     1  LIG1        0.2054
     16 C           0.1330    2.6750    0.0000 C.3     1  LIG1        0.0473
     17 C           0.3920    3.6460    0.0000 C.3     1  LIG1        0.0040
     18 C           2.2710    0.5080    0.0000 C.ar    1  LIG1        0.0366
     19 C           2.9500   -0.2330    0.0000 C.ar    1  LIG1        0.0031
     20 C           2.6420   -1.1750    0.0000 C.ar    1  LIG1       -0.0001
     21 C           1.6710   -1.3920    0.0000 C.ar    1  LIG1        0.0006
@<TRIPOS>BOND
     1     1     2   ar
     2     1     5   ar
     3     1    11    1
     4     2     3   ar
     5     2    10    2
     6     3     4   ar
     7     4     5   ar
     8     4     9   ar
     9     5     6   ar
    10     6     7   ar
    11     7     8   ar
    12     8     9   ar
    13    11    12    1
    14    12    13   ar
    15    12    21   ar
    16    13    14    1
    17    13    18   ar
    18    14    15    1
    19    15    16    1
    20    16    17    1
    21    18    19   ar
    22    19    20   ar
    23    20    21   ar
