@<TRIPOS>MOLECULE
33307_ChemDiv_7272-0308
 27 29 0 0 0
SMALL
GASTEIGER
Energy = 0

@<TRIPOS>ATOM
      1 N           0.4500    1.7250    0.0000 N.ar    1  LIG1       -0.2215
      2 C           0.4500    0.7210    0.0000 C.ar    1  LIG1        0.1442
      3 N          -0.4210    0.2210    0.0000 N.ar    1  LIG1       -0.3106
      4 C          -1.3000    0.7290    0.0000 C.ar    1  LIG1        0.0412
      5 C          -1.3000    1.7250    0.0000 C.ar    1  LIG1        0.0434
      6 C          -0.4210    2.2290    0.0000 C.ar    1  LIG1        0.1177
      7 S          -0.4210    3.2250    0.0000 S.2     1  LIG1       -0.0302
      8 C          -2.1630    2.2290    0.0000 C.3     1  LIG1        0.1715
      9 O          -3.0250    1.7250    0.0000 O.3     1  LIG1       -0.3533
     10 C          -3.0250    0.7290    0.0000 C.3     1  LIG1        0.0988
     11 C          -2.1630    0.2210    0.0000 C.3     1  LIG1        0.0708
     12 C          -3.0330   -0.2670    0.0000 C.3     1  LIG1        0.0300
     13 C          -3.8960    0.2290    0.0000 C.3     1  LIG1        0.0300
     14 C           0.0750   -0.6420    0.0000 C.3     1  LIG1        0.1698
     15 C          -0.4210   -1.5000    0.0000 C.3     1  LIG1        0.1635
     16 N           0.0750   -2.3630    0.0000 N.4     1  LIG1        0.3788
     17 C          -0.4210   -3.2210    0.0000 C.3     1  LIG1        0.1389
     18 C          -1.4210   -3.2210    0.0000 C.3     1  LIG1        0.0688
     19 C           1.0710   -2.3500    0.0000 C.3     1  LIG1        0.1389
     20 C           1.5710   -3.2210    0.0000 C.3     1  LIG1        0.0688
     21 C           1.3000    0.2290    0.0000 C.ar    1  LIG1        0.0341
     22 C           1.3000   -0.7670    0.0000 C.ar    1  LIG1        0.0027
     23 C           2.1580   -1.2750    0.0000 C.ar    1  LIG1       -0.0042
     24 C           3.0290   -0.7670    0.0000 C.ar    1  LIG1       -0.0218
     25 C           3.0290    0.2630    0.0000 C.ar    1  LIG1       -0.0042
     26 C           2.1710    0.7210    0.0000 C.ar    1  LIG1        0.0027
     27 C           3.8920   -1.2790    0.0000 C.3     1  LIG1        0.0310
@<TRIPOS>BOND
     1     1     2   ar
     2     1     6   ar
     3     2     3   ar
     4     2    21    1
     5     3     4   ar
     6     3    14    1
     7     4     5   ar
     8     4    11    1
     9     5     6   ar
    10     5     8    1
    11     6     7    2
    12     8     9    1
    13     9    10    1
    14    10    11    1
    15    10    12    1
    16    10    13    1
    17    14    15    1
    18    15    16    1
    19    16    17    1
    20    16    19    1
    21    17    18    1
    22    19    20    1
    23    21    22   ar
    24    21    26   ar
    25    22    23   ar
    26    23    24   ar
    27    24    25   ar
    28    24    27    1
    29    25    26   ar
