@<TRIPOS>MOLECULE
33309_ChemDiv_8016-5438
 31 34 0 0 0
SMALL
GASTEIGER
Energy = 0

@<TRIPOS>ATOM
      1 N           0.8630    3.0080    0.0000 N.ar    1  LIG1       -0.2215
      2 C           0.8630    2.0000    0.0000 C.ar    1  LIG1        0.1440
      3 N           0.0000    1.5080    0.0000 N.ar    1  LIG1       -0.3161
      4 C          -0.8670    2.0000    0.0000 C.ar    1  LIG1        0.0410
      5 C          -0.8670    3.0080    0.0000 C.ar    1  LIG1        0.0434
      6 C           0.0000    3.5080    0.0000 C.ar    1  LIG1        0.1177
      7 S           0.0000    4.5000    0.0000 S.2     1  LIG1       -0.0302
      8 C          -1.7290    3.5080    0.0000 C.3     1  LIG1        0.1715
      9 O          -2.6040    3.0080    0.0000 O.3     1  LIG1       -0.3533
     10 C          -2.6040    2.0000    0.0000 C.3     1  LIG1        0.0988
     11 C          -1.7290    1.5080    0.0000 C.3     1  LIG1        0.0708
     12 C          -3.4670    1.5080    0.0000 C.3     1  LIG1        0.0300
     13 C          -2.0960    1.1380    0.0000 C.3     1  LIG1        0.0300
     14 C           0.0000    0.5080    0.0000 C.3     1  LIG1        0.1118
     15 C          -0.8670    0.0000    0.0000 C.3     1  LIG1        0.0510
     16 C          -0.8670   -0.9960    0.0000 C.ar    1  LIG1       -0.0170
     17 C           0.0000   -1.5000    0.0000 C.ar    1  LIG1        0.0358
     18 C           0.0000   -2.4960    0.0000 C.ar    1  LIG1        0.1721
     19 C          -0.8670   -2.9960    0.0000 C.ar    1  LIG1        0.1724
     20 C          -1.7290   -2.4960    0.0000 C.ar    1  LIG1        0.0397
     21 C          -1.7290   -1.5000    0.0000 C.ar    1  LIG1       -0.0009
     22 O          -0.8670   -4.0000    0.0000 O.3     1  LIG1       -0.4684
     23 C          -1.7290   -4.5000    0.0000 C.3     1  LIG1        0.2526
     24 O           0.8630   -2.9960    0.0000 O.3     1  LIG1       -0.4684
     25 C           0.8630   -4.0000    0.0000 C.3     1  LIG1        0.2526
     26 C           1.7250    1.5080    0.0000 C.ar    1  LIG1        0.0342
     27 C           2.6000    2.0000    0.0000 C.ar    1  LIG1        0.0030
     28 C           3.4630    1.5080    0.0000 C.ar    1  LIG1        0.0001
     29 C           3.4630    0.5080    0.0000 C.ar    1  LIG1        0.0000
     30 C           2.6000    0.0000    0.0000 C.ar    1  LIG1        0.0001
     31 C           1.7250    0.5080    0.0000 C.ar    1  LIG1        0.0030
@<TRIPOS>BOND
     1     1     2   ar
     2     1     6   ar
     3     2     3   ar
     4     2    26    1
     5     3     4   ar
     6     3    14    1
     7     4     5   ar
     8     4    11    1
     9     5     6   ar
    10     5     8    1
    11     6     7    2
    12     8     9    1
    13     9    10    1
    14    10    11    1
    15    10    12    1
    16    10    13    1
    17    14    15    1
    18    15    16    1
    19    16    17   ar
    20    16    21   ar
    21    17    18   ar
    22    18    19   ar
    23    18    24    1
    24    19    20   ar
    25    19    22    1
    26    20    21   ar
    27    22    23    1
    28    24    25    1
    29    26    27   ar
    30    26    31   ar
    31    27    28   ar
    32    28    29   ar
    33    29    30   ar
    34    30    31   ar
