@<TRIPOS>MOLECULE
33303_ChemDiv_7272-0303
 27 29 0 0 0
SMALL
GASTEIGER
Energy = 0

@<TRIPOS>ATOM
      1 N           0.4460    2.1630    0.0000 N.ar    1  LIG1       -0.2215
      2 C           0.4460    1.1540    0.0000 C.ar    1  LIG1        0.1440
      3 N          -0.4250    0.6540    0.0000 N.ar    1  LIG1       -0.3162
      4 C          -1.2960    1.1630    0.0000 C.ar    1  LIG1        0.0410
      5 C          -1.2960    2.1630    0.0000 C.ar    1  LIG1        0.0434
      6 C          -0.4250    2.6670    0.0000 C.ar    1  LIG1        0.1177
      7 S          -0.4170    3.6670    0.0000 S.2     1  LIG1       -0.0302
      8 C          -2.1750    2.6670    0.0000 C.3     1  LIG1        0.1715
      9 O          -3.0380    2.1630    0.0000 O.3     1  LIG1       -0.3533
     10 C          -3.0380    1.1630    0.0000 C.3     1  LIG1        0.0988
     11 C          -2.1750    0.6540    0.0000 C.3     1  LIG1        0.0708
     12 C          -3.9000    0.6630    0.0000 C.3     1  LIG1        0.0300
     13 C          -3.0380    0.1630    0.0000 C.3     1  LIG1        0.0300
     14 C          -0.9170   -0.2080    0.0000 C.3     1  LIG1        0.1133
     15 C          -0.4170   -1.0630    0.0000 C.3     1  LIG1        0.0872
     16 C          -0.9170   -1.9330    0.0000 C.3     1  LIG1        0.1412
     17 N          -0.4170   -2.8000    0.0000 N.4     1  LIG1        0.3867
     18 C          -0.9170   -3.6630    0.0000 C.3     1  LIG1        0.2025
     19 C           0.5790   -2.7880    0.0000 C.3     1  LIG1        0.2025
     20 C           1.3080    0.6630    0.0000 C.ar    1  LIG1        0.0344
     21 C           1.3080   -0.3380    0.0000 C.ar    1  LIG1        0.0061
     22 C           2.1710   -0.8380    0.0000 C.ar    1  LIG1        0.0370
     23 C           3.0330   -0.3460    0.0000 C.ar    1  LIG1        0.1387
     24 C           3.0330    0.6540    0.0000 C.ar    1  LIG1        0.0370
     25 C           2.1710    1.1540    0.0000 C.ar    1  LIG1        0.0061
     26 O           3.8960   -0.8500    0.0000 O.3     1  LIG1       -0.4714
     27 C           3.8960   -1.8500    0.0000 C.3     1  LIG1        0.2525
@<TRIPOS>BOND
     1     1     2   ar
     2     1     6   ar
     3     2     3   ar
     4     2    20    1
     5     3     4   ar
     6     3    14    1
     7     4     5   ar
     8     4    11    1
     9     5     6   ar
    10     5     8    1
    11     6     7    2
    12     8     9    1
    13     9    10    1
    14    10    11    1
    15    10    12    1
    16    10    13    1
    17    14    15    1
    18    15    16    1
    19    16    17    1
    20    17    18    1
    21    17    19    1
    22    20    21   ar
    23    20    25   ar
    24    21    22   ar
    25    22    23   ar
    26    23    24   ar
    27    23    26    1
    28    24    25   ar
    29    26    27    1
