@<TRIPOS>MOLECULE
33301_ChemDiv_7272-0285
 29 32 0 0 0
SMALL
GASTEIGER
Energy = 0

@<TRIPOS>ATOM
      1 N           0.4500    2.1630    0.0000 N.ar    1  LIG1       -0.2215
      2 C           0.4500    1.1540    0.0000 C.ar    1  LIG1        0.1440
      3 N          -0.4210    0.6540    0.0000 N.ar    1  LIG1       -0.3161
      4 C          -1.3000    1.1630    0.0000 C.ar    1  LIG1        0.0410
      5 C          -1.3000    2.1630    0.0000 C.ar    1  LIG1        0.0434
      6 C          -0.4210    2.6670    0.0000 C.ar    1  LIG1        0.1177
      7 S          -0.4210    3.6630    0.0000 S.2     1  LIG1       -0.0302
      8 C          -2.1670    2.6670    0.0000 C.3     1  LIG1        0.1715
      9 O          -3.0290    2.1630    0.0000 O.3     1  LIG1       -0.3533
     10 C          -3.0290    1.1630    0.0000 C.3     1  LIG1        0.0988
     11 C          -2.1670    0.6540    0.0000 C.3     1  LIG1        0.0708
     12 C          -3.2960    0.1960    0.0000 C.3     1  LIG1        0.0300
     13 C          -3.9000    0.6670    0.0000 C.3     1  LIG1        0.0300
     14 C          -0.9210   -0.2080    0.0000 C.3     1  LIG1        0.1118
     15 C          -0.4210   -1.0710    0.0000 C.3     1  LIG1        0.0508
     16 C          -0.9210   -1.9290    0.0000 C.ar    1  LIG1       -0.0202
     17 C          -1.9210   -1.9290    0.0000 C.ar    1  LIG1       -0.0042
     18 C          -2.4080   -2.7960    0.0000 C.ar    1  LIG1       -0.0003
     19 C          -1.9080   -3.6580    0.0000 C.ar    1  LIG1       -0.0000
     20 C          -0.9130   -3.6580    0.0000 C.ar    1  LIG1       -0.0003
     21 C          -0.4130   -2.7920    0.0000 C.ar    1  LIG1       -0.0042
     22 C           1.3130    0.6540    0.0000 C.ar    1  LIG1        0.0344
     23 C           2.1710    1.1540    0.0000 C.ar    1  LIG1        0.0061
     24 C           3.0330    0.6540    0.0000 C.ar    1  LIG1        0.0370
     25 C           3.0330   -0.3330    0.0000 C.ar    1  LIG1        0.1387
     26 C           2.1630   -0.8420    0.0000 C.ar    1  LIG1        0.0370
     27 C           1.3000   -0.3330    0.0000 C.ar    1  LIG1        0.0061
     28 O           3.8960   -0.8420    0.0000 O.3     1  LIG1       -0.4714
     29 C           3.8960   -1.8420    0.0000 C.3     1  LIG1        0.2525
@<TRIPOS>BOND
     1     1     2   ar
     2     1     6   ar
     3     2     3   ar
     4     2    22    1
     5     3     4   ar
     6     3    14    1
     7     4     5   ar
     8     4    11    1
     9     5     6   ar
    10     5     8    1
    11     6     7    2
    12     8     9    1
    13     9    10    1
    14    10    11    1
    15    10    12    1
    16    10    13    1
    17    14    15    1
    18    15    16    1
    19    16    17   ar
    20    16    21   ar
    21    17    18   ar
    22    18    19   ar
    23    19    20   ar
    24    20    21   ar
    25    22    23   ar
    26    22    27   ar
    27    23    24   ar
    28    24    25   ar
    29    25    26   ar
    30    25    28    1
    31    26    27   ar
    32    28    29    1
