@<TRIPOS>MOLECULE
33315_ChemDiv_7081-0006
 28 31 0 0 0
SMALL
GASTEIGER
Energy = 0

@<TRIPOS>ATOM
      1 C           0.8710   -0.4960    0.0000 C.3     1  LIG1        0.0933
      2 C           1.7330   -0.9960    0.0000 C.ar    1  LIG1       -0.0024
      3 C           1.7330   -1.9960    0.0000 C.ar    1  LIG1        0.0266
      4 S           0.8710   -2.4920    0.0000 S.3     1  LIG1       -0.0875
      5 C          -0.0040   -1.9920    0.0000 C.ar    1  LIG1        0.0266
      6 C           0.0040   -0.9960    0.0000 C.ar    1  LIG1       -0.0024
      7 C          -0.8580   -0.4960    0.0000 C.ar    1  LIG1       -0.0026
      8 C          -1.7290   -0.9960    0.0000 C.ar    1  LIG1       -0.0003
      9 C          -1.7290   -1.9960    0.0000 C.ar    1  LIG1        0.0005
     10 C          -0.8580   -2.5000    0.0000 C.ar    1  LIG1        0.0062
     11 C           2.5960   -2.5000    0.0000 C.ar    1  LIG1        0.0062
     12 C           3.4670   -1.9960    0.0000 C.ar    1  LIG1        0.0005
     13 C           3.4670   -0.9960    0.0000 C.ar    1  LIG1       -0.0003
     14 C           2.5960   -0.4960    0.0000 C.ar    1  LIG1       -0.0026
     15 S           0.8710    0.5040    0.0000 S.3     1  LIG1       -0.1224
     16 C           1.7330    1.0080    0.0000 C.3     1  LIG1        0.1451
     17 C           1.7330    2.0040    0.0000 C.2     1  LIG1        0.2566
     18 N           0.8670    2.5040    0.0000 N.am    1  LIG1       -0.1785
     19 C          -0.0040    2.0040    0.0000 C.ar    1  LIG1        0.0734
     20 C          -0.0040    1.0000    0.0000 C.ar    1  LIG1        0.0166
     21 C          -0.8670    0.5000    0.0000 C.ar    1  LIG1        0.0025
     22 C          -1.7330    1.0000    0.0000 C.ar    1  LIG1        0.0141
     23 C          -2.6080    0.5000    0.0000 C.2     1  LIG1        0.0729
     24 O          -2.6080   -0.4960    0.0000 O.co2   1  LIG1       -0.5446
     25 O          -3.4710    1.0000    0.0000 O.co2   1  LIG1       -0.5446
     26 C          -1.7330    2.0040    0.0000 C.ar    1  LIG1        0.0025
     27 C          -0.8670    2.5040    0.0000 C.ar    1  LIG1        0.0166
     28 O           2.5960    2.5040    0.0000 O.2     1  LIG1       -0.2720
@<TRIPOS>BOND
     1     1     2    1
     2     1     6    1
     3     1    15    1
     4     2     3   ar
     5     2    14   ar
     6     3     4    1
     7     3    11   ar
     8     4     5    1
     9     5     6   ar
    10     5    10   ar
    11     6     7   ar
    12     7     8   ar
    13     8     9   ar
    14     9    10   ar
    15    11    12   ar
    16    12    13   ar
    17    13    14   ar
    18    15    16    1
    19    16    17    1
    20    17    18   am
    21    17    28    2
    22    18    19    1
    23    19    20   ar
    24    19    27   ar
    25    20    21   ar
    26    21    22   ar
    27    22    23    1
    28    22    26   ar
    29    23    24   ar
    30    23    25   ar
    31    26    27   ar
