@<TRIPOS>MOLECULE
33311_ChemDiv_8016-9306
 24 26 0 0 0
SMALL
GASTEIGER
Energy = 0

@<TRIPOS>ATOM
      1 N           0.9420    0.7580    0.0000 N.ar    1  LIG1       -0.2215
      2 C           0.9420   -0.2540    0.0000 C.ar    1  LIG1        0.1440
      3 N           0.0790   -0.7540    0.0000 N.ar    1  LIG1       -0.3164
      4 C          -0.7830   -0.2460    0.0000 C.ar    1  LIG1        0.0410
      5 C          -0.7830    0.7580    0.0000 C.ar    1  LIG1        0.0434
      6 C           0.0880    1.2460    0.0000 C.ar    1  LIG1        0.1177
      7 S           0.0880    2.2500    0.0000 S.2     1  LIG1       -0.0302
      8 C          -1.6500    1.2500    0.0000 C.3     1  LIG1        0.1715
      9 O          -2.5210    0.7580    0.0000 O.3     1  LIG1       -0.3533
     10 C          -2.5130   -0.2540    0.0000 C.3     1  LIG1        0.0988
     11 C          -1.6460   -0.7460    0.0000 C.3     1  LIG1        0.0708
     12 C          -3.0330   -1.1290    0.0000 C.3     1  LIG1        0.0300
     13 C          -3.5380   -0.2460    0.0000 C.3     1  LIG1        0.0300
     14 C           0.0790   -1.7460    0.0000 C.3     1  LIG1        0.1071
     15 C          -0.7830   -2.2420    0.0000 C.3     1  LIG1        0.0245
     16 C          -1.6460   -1.7460    0.0000 C.3     1  LIG1        0.0020
     17 C          -2.5130   -2.2420    0.0000 C.3     1  LIG1        0.0001
     18 C          -3.3750   -1.7420    0.0000 C.3     1  LIG1        0.0000
     19 C           1.8040   -0.7580    0.0000 C.ar    1  LIG1        0.0342
     20 C           2.6670   -0.2540    0.0000 C.ar    1  LIG1        0.0030
     21 C           3.5330   -0.7580    0.0000 C.ar    1  LIG1        0.0001
     22 C           3.5330   -1.7540    0.0000 C.ar    1  LIG1        0.0000
     23 C           2.6670   -2.2460    0.0000 C.ar    1  LIG1        0.0001
     24 C           1.8000   -1.7540    0.0000 C.ar    1  LIG1        0.0030
@<TRIPOS>BOND
     1     1     2   ar
     2     1     6   ar
     3     2     3   ar
     4     2    19    1
     5     3     4   ar
     6     3    14    1
     7     4     5   ar
     8     4    11    1
     9     5     6   ar
    10     5     8    1
    11     6     7    2
    12     8     9    1
    13     9    10    1
    14    10    11    1
    15    10    12    1
    16    10    13    1
    17    14    15    1
    18    15    16    1
    19    16    17    1
    20    17    18    1
    21    19    20   ar
    22    19    24   ar
    23    20    21   ar
    24    21    22   ar
    25    22    23   ar
    26    23    24   ar
