@<TRIPOS>MOLECULE
33317_ChemDiv_7081-0007
 28 31 0 0 0
SMALL
GASTEIGER
Energy = 0

@<TRIPOS>ATOM
      1 C           0.0000   -1.2540    0.0000 C.3     1  LIG1        0.0933
      2 C           0.8630   -1.7540    0.0000 C.ar    1  LIG1       -0.0024
      3 C           0.8630   -2.7540    0.0000 C.ar    1  LIG1        0.0266
      4 S           0.0000   -3.2540    0.0000 S.3     1  LIG1       -0.0875
      5 C          -0.8670   -2.7540    0.0000 C.ar    1  LIG1        0.0266
      6 C          -0.8670   -1.7540    0.0000 C.ar    1  LIG1       -0.0024
      7 C          -1.7290   -1.2540    0.0000 C.ar    1  LIG1       -0.0026
      8 C          -2.5960   -1.7540    0.0000 C.ar    1  LIG1       -0.0003
      9 C          -2.5960   -2.7540    0.0000 C.ar    1  LIG1        0.0005
     10 C          -1.7290   -3.2540    0.0000 C.ar    1  LIG1        0.0062
     11 C           1.7290   -3.2540    0.0000 C.ar    1  LIG1        0.0062
     12 C           2.5960   -2.7540    0.0000 C.ar    1  LIG1        0.0005
     13 C           2.5960   -1.7540    0.0000 C.ar    1  LIG1       -0.0003
     14 C           1.7290   -1.2540    0.0000 C.ar    1  LIG1       -0.0026
     15 S           0.0000   -0.2540    0.0000 S.3     1  LIG1       -0.1224
     16 C           0.8630    0.2460    0.0000 C.3     1  LIG1        0.1451
     17 C           0.8630    1.2540    0.0000 C.2     1  LIG1        0.2566
     18 N          -0.0040    1.7500    0.0000 N.am    1  LIG1       -0.1784
     19 C          -0.8710    1.2540    0.0000 C.ar    1  LIG1        0.0744
     20 C          -1.7380    1.7500    0.0000 C.ar    1  LIG1        0.0293
     21 C          -1.7380    2.7540    0.0000 C.2     1  LIG1        0.0741
     22 O          -2.6000    3.2580    0.0000 O.co2   1  LIG1       -0.5446
     23 O          -0.8710    3.2580    0.0000 O.co2   1  LIG1       -0.5446
     24 C          -2.6000    1.2540    0.0000 C.ar    1  LIG1        0.0024
     25 C          -2.6000    0.2460    0.0000 C.ar    1  LIG1        0.0001
     26 C          -1.7380   -0.2540    0.0000 C.ar    1  LIG1        0.0013
     27 C          -0.8710    0.2460    0.0000 C.ar    1  LIG1        0.0166
     28 O           1.7290    1.7500    0.0000 O.2     1  LIG1       -0.2720
@<TRIPOS>BOND
     1     1     2    1
     2     1     6    1
     3     1    15    1
     4     2     3   ar
     5     2    14   ar
     6     3     4    1
     7     3    11   ar
     8     4     5    1
     9     5     6   ar
    10     5    10   ar
    11     6     7   ar
    12     7     8   ar
    13     8     9   ar
    14     9    10   ar
    15    11    12   ar
    16    12    13   ar
    17    13    14   ar
    18    15    16    1
    19    16    17    1
    20    17    18   am
    21    17    28    2
    22    18    19    1
    23    19    20   ar
    24    19    27   ar
    25    20    21    1
    26    20    24   ar
    27    21    22   ar
    28    21    23   ar
    29    24    25   ar
    30    25    26   ar
    31    26    27   ar
