@<TRIPOS>MOLECULE
33313_ChemDiv_7080-0050
 28 31 0 0 0
SMALL
GASTEIGER
Energy = 0

@<TRIPOS>ATOM
      1 C          -0.8630   -1.9880    0.0000 C.3     1  LIG1        0.0983
      2 C          -1.7250   -2.4960    0.0000 C.ar    1  LIG1        0.0263
      3 C          -1.7330   -3.5040    0.0000 C.ar    1  LIG1        0.1424
      4 O          -0.8710   -4.0040    0.0000 O.3     1  LIG1       -0.4541
      5 C           0.0080   -3.4960    0.0000 C.ar    1  LIG1        0.1424
      6 C           0.0080   -2.4960    0.0000 C.ar    1  LIG1        0.0263
      7 C           0.8710   -2.0000    0.0000 C.ar    1  LIG1       -0.0001
      8 C           1.7290   -2.4880    0.0000 C.ar    1  LIG1       -0.0001
      9 C           1.7420   -3.4960    0.0000 C.ar    1  LIG1        0.0031
     10 C           0.8750   -3.9960    0.0000 C.ar    1  LIG1        0.0372
     11 C          -2.5960   -3.9960    0.0000 C.ar    1  LIG1        0.0372
     12 C          -3.4540   -3.4960    0.0000 C.ar    1  LIG1        0.0031
     13 C          -3.4540   -2.4960    0.0000 C.ar    1  LIG1       -0.0001
     14 C          -2.5960   -2.0000    0.0000 C.ar    1  LIG1       -0.0001
     15 S          -0.8630   -0.9920    0.0000 S.3     1  LIG1       -0.1222
     16 C           0.0040   -0.4960    0.0000 C.3     1  LIG1        0.1451
     17 C           0.0040    0.5000    0.0000 C.2     1  LIG1        0.2566
     18 N           0.8630    1.0040    0.0000 N.am    1  LIG1       -0.1784
     19 C           0.8580    2.0000    0.0000 C.ar    1  LIG1        0.0744
     20 C           1.7210    2.5080    0.0000 C.ar    1  LIG1        0.0293
     21 C           2.5920    2.0170    0.0000 C.2     1  LIG1        0.0741
     22 O           3.4500    2.5210    0.0000 O.co2   1  LIG1       -0.5446
     23 O           2.5920    1.0210    0.0000 O.co2   1  LIG1       -0.5446
     24 C           1.7210    3.5080    0.0000 C.ar    1  LIG1        0.0024
     25 C           0.8420    4.0040    0.0000 C.ar    1  LIG1        0.0001
     26 C          -0.0250    3.4920    0.0000 C.ar    1  LIG1        0.0013
     27 C          -0.0130    2.4920    0.0000 C.ar    1  LIG1        0.0166
     28 O          -0.8630    1.0040    0.0000 O.2     1  LIG1       -0.2720
@<TRIPOS>BOND
     1     1     2    1
     2     1     6    1
     3     1    15    1
     4     2     3   ar
     5     2    14   ar
     6     3     4    1
     7     3    11   ar
     8     4     5    1
     9     5     6   ar
    10     5    10   ar
    11     6     7   ar
    12     7     8   ar
    13     8     9   ar
    14     9    10   ar
    15    11    12   ar
    16    12    13   ar
    17    13    14   ar
    18    15    16    1
    19    16    17    1
    20    17    18   am
    21    17    28    2
    22    18    19    1
    23    19    20   ar
    24    19    27   ar
    25    20    21    1
    26    20    24   ar
    27    21    22   ar
    28    21    23   ar
    29    24    25   ar
    30    25    26   ar
    31    26    27   ar
