@<TRIPOS>MOLECULE
33314_ChemDiv_8001-7685
 16 17 0 0 0
SMALL
GASTEIGER
Energy = 0

@<TRIPOS>ATOM
      1 C           0.4420   -1.0750    0.0000 C.3     1  LIG1        0.1702
      2 C          -0.5750   -1.0750    0.0000 C.3     1  LIG1        0.1125
      3 C          -0.0750   -0.1960    0.0000 C.3     1  LIG1        0.0600
      4 C          -0.0880    0.8000    0.0000 C.ar    1  LIG1       -0.0200
      5 C          -0.9580    1.3000    0.0000 C.ar    1  LIG1       -0.0042
      6 C          -0.9630    2.3000    0.0000 C.ar    1  LIG1       -0.0003
      7 C          -0.1080    2.8210    0.0000 C.ar    1  LIG1       -0.0000
      8 C           0.7630    2.3130    0.0000 C.ar    1  LIG1       -0.0003
      9 C           0.7710    1.3130    0.0000 C.ar    1  LIG1       -0.0042
     10 C          -1.4330   -1.5790    0.0000 C.2     1  LIG1        0.2627
     11 O          -1.4130   -2.5750    0.0000 O.2     1  LIG1       -0.2716
     12 N          -2.3170   -1.0750    0.0000 N.am    1  LIG1       -0.0877
     13 C           1.3710   -0.7960    0.0000 C.1     1  LIG1        0.0863
     14 N           2.3130   -0.4960    0.0000 N.1     1  LIG1       -0.1949
     15 C           0.9040   -1.9500    0.0000 C.1     1  LIG1        0.0863
     16 N           1.3630   -2.8170    0.0000 N.1     1  LIG1       -0.1949
@<TRIPOS>BOND
     1     1     2    1
     2     1     3    1
     3     1    13    1
     4     1    15    1
     5     2     3    1
     6     2    10    1
     7     3     4    1
     8     4     5   ar
     9     4     9   ar
    10     5     6   ar
    11     6     7   ar
    12     7     8   ar
    13     8     9   ar
    14    10    11    2
    15    10    12   am
    16    13    14    3
    17    15    16    3
