@<TRIPOS>MOLECULE
33329_ChemDiv_7282-5162
 17 18 0 0 0
SMALL
GASTEIGER
Energy = 0

@<TRIPOS>ATOM
      1 N           0.4380    1.2420    0.0000 N.ar    1  LIG1       -0.1859
      2 C           0.4380    0.2420    0.0000 C.ar    1  LIG1        0.3509
      3 N           1.2920   -0.2540    0.0000 N.ar    1  LIG1       -0.2743
      4 C           2.1540    0.2420    0.0000 C.ar    1  LIG1        0.0821
      5 C           2.1540    1.2420    0.0000 C.ar    1  LIG1        0.0444
      6 C           1.2920    1.7500    0.0000 C.ar    1  LIG1        0.1129
      7 S           1.2920    2.7500    0.0000 S.3     1  LIG1       -0.0938
      8 C           2.1630    3.2500    0.0000 C.3     1  LIG1        0.0757
      9 C           1.2920   -1.2540    0.0000 C.3     1  LIG1        0.1373
     10 C           0.4250   -1.7540    0.0000 C.ar    1  LIG1        0.0006
     11 C          -0.4380   -1.2460    0.0000 C.ar    1  LIG1       -0.0015
     12 C          -1.3040   -1.7460    0.0000 C.ar    1  LIG1        0.0111
     13 C          -1.3040   -2.7460    0.0000 C.ar    1  LIG1        0.0577
     14 CL         -2.1670   -3.2460    0.0000 Cl      1  LIG1       -0.0822
     15 C          -0.4290   -3.2460    0.0000 C.ar    1  LIG1        0.0111
     16 C           0.4380   -2.7460    0.0000 C.ar    1  LIG1       -0.0015
     17 O          -0.4380   -0.2580    0.0000 O.2     1  LIG1       -0.2444
@<TRIPOS>BOND
     1     1     2   ar
     2     1     6   ar
     3     2     3   ar
     4     2    17    2
     5     3     4   ar
     6     3     9    1
     7     4     5   ar
     8     5     6   ar
     9     6     7    1
    10     7     8    1
    11     9    10    1
    12    10    11   ar
    13    10    16   ar
    14    11    12   ar
    15    12    13   ar
    16    13    14    1
    17    13    15   ar
    18    15    16   ar
