@<TRIPOS>MOLECULE
33326_ChemDiv_C430-0753
 18 19 0 0 0
SMALL
GASTEIGER
Energy = 0

@<TRIPOS>ATOM
      1 C           1.5460    0.4080    0.0000 C.ar    1  LIG1        0.2357
      2 O           0.7420   -0.1790    0.0000 O.2     1  LIG1       -0.4283
      3 C          -0.0750    0.4080    0.0000 C.ar    1  LIG1        0.2297
      4 N           0.2420    1.3630    0.0000 N.ar    1  LIG1       -0.2124
      5 C           1.2460    1.3630    0.0000 C.ar    1  LIG1        0.1034
      6 C           1.8290    2.1750    0.0000 C.3     1  LIG1        0.0557
      7 C          -1.0210    0.0960    0.0000 C.ar    1  LIG1        0.0537
      8 C          -1.7630    0.7630    0.0000 C.ar    1  LIG1        0.0070
      9 C          -2.7130    0.4540    0.0000 C.ar    1  LIG1        0.0298
     10 C          -2.9250   -0.5250    0.0000 C.ar    1  LIG1        0.1401
     11 C          -2.1670   -1.1920    0.0000 C.ar    1  LIG1        0.0298
     12 C          -1.2290   -0.8790    0.0000 C.ar    1  LIG1        0.0070
     13 F          -3.8710   -0.8330    0.0000 F       1  LIG1       -0.2042
     14 C           2.5040    0.0960    0.0000 C.2     1  LIG1        0.3776
     15 O           3.2460    0.7630    0.0000 O.2     1  LIG1       -0.2414
     16 O           2.7170   -0.8790    0.0000 O.3     1  LIG1       -0.4433
     17 C           3.6670   -1.1920    0.0000 C.3     1  LIG1        0.2090
     18 C           3.8670   -2.1710    0.0000 C.3     1  LIG1        0.0513
@<TRIPOS>BOND
     1     1     2   ar
     2     1     5   ar
     3     1    14    1
     4     2     3   ar
     5     3     4   ar
     6     3     7    1
     7     4     5   ar
     8     5     6    1
     9     7     8   ar
    10     7    12   ar
    11     8     9   ar
    12     9    10   ar
    13    10    11   ar
    14    10    13    1
    15    11    12   ar
    16    14    15    2
    17    14    16    1
    18    16    17    1
    19    17    18    1
