@<TRIPOS>MOLECULE
33320_ChemDiv_8002-0426
 20 23 0 0 0
SMALL
GASTEIGER
Energy = 0

@<TRIPOS>ATOM
      1 C          -0.8790    0.1670    0.0000 C.ar    1  LIG1        0.0600
      2 C          -0.8790    1.1080    0.0000 C.ar    1  LIG1        0.1060
      3 N          -0.0460    1.5880    0.0000 N.ar    1  LIG1       -0.1478
      4 N           0.7830    1.1540    0.0000 N.ar    1  LIG1       -0.1449
      5 C           0.7830    0.1670    0.0000 C.ar    1  LIG1        0.1373
      6 C           1.6130   -0.3500    0.0000 C.ar    1  LIG1        0.1641
      7 O           2.5460    0.0080    0.0000 O.2     1  LIG1       -0.4562
      8 C           3.2080   -0.7210    0.0000 C.ar    1  LIG1        0.1234
      9 C           2.6750   -1.5830    0.0000 C.ar    1  LIG1        0.0361
     10 C           1.6880   -1.3380    0.0000 C.ar    1  LIG1        0.0419
     11 C           4.1960   -0.6250    0.0000 C.3     1  LIG1        0.0725
     12 C          -0.0460   -0.3080    0.0000 C.ar    1  LIG1        0.0288
     13 C          -2.5420    1.1080    0.0000 C.ar    1  LIG1        0.0226
     14 C          -2.5420    0.1670    0.0000 C.ar    1  LIG1        0.0405
     15 C          -1.7080   -0.3080    0.0000 C.2     1  LIG1        0.1972
     16 O          -1.7080   -1.2960    0.0000 O.2     1  LIG1       -0.2865
     17 C          -3.3710   -0.3080    0.0000 C.ar    1  LIG1        0.0032
     18 C          -4.2000    0.1670    0.0000 C.ar    1  LIG1        0.0001
     19 C          -4.2000    1.1080    0.0000 C.ar    1  LIG1        0.0001
     20 C          -3.3710    1.5880    0.0000 C.ar    1  LIG1        0.0017
@<TRIPOS>BOND
     1     1     2   ar
     2     1    12   ar
     3     1    15    1
     4     2     3   ar
     5     2    13    1
     6     3     4   ar
     7     4     5   ar
     8     5     6    1
     9     5    12   ar
    10     6     7   ar
    11     6    10   ar
    12     7     8   ar
    13     8     9   ar
    14     8    11    1
    15     9    10   ar
    16    13    14   ar
    17    13    20   ar
    18    14    15    1
    19    14    17   ar
    20    15    16    2
    21    17    18   ar
    22    18    19   ar
    23    19    20   ar
