@<TRIPOS>MOLECULE
33327_ChemDiv_7092-1235
 20 21 0 0 0
SMALL
GASTEIGER
Energy = 0

@<TRIPOS>ATOM
      1 C           2.2040    0.9420    0.0000 C.ar    1  LIG1        0.2148
      2 C           2.6080    1.8540    0.0000 C.ar    1  LIG1        0.2357
      3 N           1.8670    2.5210    0.0000 N.ar    1  LIG1       -0.0297
      4 O           1.0000    2.0210    0.0000 O.2     1  LIG1       -0.2400
      5 N           1.2080    1.0500    0.0000 N.ar    1  LIG1       -0.0420
      6 N           3.5830    2.0670    0.0000 N.pl3   1  LIG1       -0.1018
      7 C           2.7000    0.0790    0.0000 C.2     1  LIG1        0.2890
      8 O           3.7000    0.0790    0.0000 O.2     1  LIG1       -0.2665
      9 N           2.2040   -0.7830    0.0000 N.am    1  LIG1       -0.1938
     10 C           1.2040   -0.7830    0.0000 C.3     1  LIG1        0.1777
     11 C           0.7040   -1.6500    0.0000 C.3     1  LIG1        0.1588
     12 N          -0.2920   -1.6500    0.0000 N.4     1  LIG1        0.3603
     13 C          -0.7920   -0.7830    0.0000 C.3     1  LIG1        0.1621
     14 C          -1.7580   -0.5330    0.0000 C.ar    1  LIG1        0.0342
     15 C          -2.0290    0.4380    0.0000 C.ar    1  LIG1        0.0014
     16 C          -3.0000    0.6880    0.0000 C.ar    1  LIG1       -0.0001
     17 C          -3.7040   -0.0210    0.0000 C.ar    1  LIG1       -0.0000
     18 C          -3.4460   -0.9830    0.0000 C.ar    1  LIG1       -0.0001
     19 C          -2.4710   -1.2460    0.0000 C.ar    1  LIG1        0.0014
     20 H          -0.7920   -2.5170    0.0000 H       1  LIG1        0.2386
@<TRIPOS>BOND
     1     1     2   ar
     2     1     5   ar
     3     1     7    1
     4     2     3   ar
     5     2     6    1
     6     3     4   ar
     7     4     5   ar
     8     7     8    2
     9     7     9   am
    10     9    10    1
    11    10    11    1
    12    11    12    1
    13    12    13    1
    14    12    20    1
    15    13    14    1
    16    14    15   ar
    17    14    19   ar
    18    15    16   ar
    19    16    17   ar
    20    17    18   ar
    21    18    19   ar
