@<TRIPOS>MOLECULE
33338_ChemDiv_7594-0035
 29 31 0 0 0
SMALL
GASTEIGER
Energy = 0

@<TRIPOS>ATOM
      1 C           2.8080   -0.7920    0.0000 C.ar    1  LIG1        0.1833
      2 C           2.5460    0.1710    0.0000 C.ar    1  LIG1        0.0945
      3 C           1.5790    0.4380    0.0000 C.ar    1  LIG1        0.0161
      4 C           0.8540   -0.2750    0.0000 C.ar    1  LIG1        0.0383
      5 C           1.1290   -1.2500    0.0000 C.ar    1  LIG1        0.0415
      6 C           2.0960   -1.5000    0.0000 C.ar    1  LIG1        0.1730
      7 O           2.3540   -2.4710    0.0000 O.3     1  LIG1       -0.4724
      8 C           1.6460   -3.1750    0.0000 C.3     1  LIG1        0.2057
      9 C           1.9080   -4.1580    0.0000 C.3     1  LIG1        0.0512
     10 C          -0.1080   -0.0290    0.0000 C.3     1  LIG1        0.1622
     11 N          -0.6040    0.8420    0.0000 N.4     1  LIG1        0.3591
     12 C          -1.6130    0.8420    0.0000 C.3     1  LIG1        0.1397
     13 C          -2.1130    1.7130    0.0000 C.3     1  LIG1        0.0905
     14 C          -3.1130    1.7130    0.0000 C.ar    1  LIG1        0.0044
     15 C          -3.7080    0.9000    0.0000 C.ar    1  LIG1        0.0948
     16 N          -4.6580    1.2130    0.0000 N.ar    1  LIG1       -0.2442
     17 C          -4.6580    2.2130    0.0000 C.ar    1  LIG1        0.0810
     18 C          -3.7080    2.5210    0.0000 C.ar    1  LIG1        0.0154
     19 C          -3.4960    3.5000    0.0000 C.ar    1  LIG1        0.0012
     20 C          -4.2330    4.1580    0.0000 C.ar    1  LIG1        0.0001
     21 C          -5.1960    3.8630    0.0000 C.ar    1  LIG1        0.0015
     22 C          -5.4000    2.8880    0.0000 C.ar    1  LIG1        0.0191
     23 CL          3.2580    0.8880    0.0000 Cl      1  LIG1       -0.0790
     24 O           3.7790   -1.0500    0.0000 O.3     1  LIG1       -0.4616
     25 C           4.0420   -2.0130    0.0000 C.3     1  LIG1        0.2930
     26 C           4.6710   -2.7250    0.0000 C.2     1  LIG1        0.3052
     27 O           5.3960   -2.0580    0.0000 O.2     1  LIG1       -0.2676
     28 N           5.1460   -3.5960    0.0000 N.am    1  LIG1       -0.0845
     29 H          -0.1080    1.7130    0.0000 H       1  LIG1        0.2385
@<TRIPOS>BOND
     1     1     2   ar
     2     1     6   ar
     3     1    24    1
     4     2     3   ar
     5     2    23    1
     6     3     4   ar
     7     4     5   ar
     8     4    10    1
     9     5     6   ar
    10     6     7    1
    11     7     8    1
    12     8     9    1
    13    10    11    1
    14    11    12    1
    15    11    29    1
    16    12    13    1
    17    13    14    1
    18    14    15   ar
    19    14    18   ar
    20    15    16   ar
    21    16    17   ar
    22    17    18   ar
    23    17    22   ar
    24    18    19   ar
    25    19    20   ar
    26    20    21   ar
    27    21    22   ar
    28    24    25    1
    29    25    26    1
    30    26    27    2
    31    26    28   am
