@<TRIPOS>MOLECULE
33331_ChemDiv_7282-5187
 21 23 0 0 0
SMALL
GASTEIGER
Energy = 0

@<TRIPOS>ATOM
      1 C          -1.4790   -0.5040    0.0000 C.ar    1  LIG1        0.2293
      2 C          -1.4790    0.4960    0.0000 C.ar    1  LIG1        0.3894
      3 N          -0.5250    0.8170    0.0000 N.ar    1  LIG1        0.1055
      4 C           0.0670   -0.0040    0.0000 C.ar    1  LIG1        0.3850
      5 N          -0.5250   -0.8080    0.0000 N.ar    1  LIG1       -0.1558
      6 C           1.0670   -0.0040    0.0000 C.ar    1  LIG1        0.0936
      7 C           1.5630    0.8630    0.0000 C.ar    1  LIG1        0.0481
      8 C           2.5630    0.8670    0.0000 C.ar    1  LIG1        0.1776
      9 C           3.0670   -0.0040    0.0000 C.ar    1  LIG1        0.2293
     10 C           2.5670   -0.8670    0.0000 C.ar    1  LIG1        0.0455
     11 C           1.5670   -0.8670    0.0000 C.ar    1  LIG1        0.0114
     12 O           4.0670   -0.0040    0.0000 O.3     1  LIG1       -0.2833
     13 O           3.0500    1.7420    0.0000 O.3     1  LIG1       -0.4682
     14 C           4.0540    1.7420    0.0000 C.3     1  LIG1        0.2526
     15 C          -2.3460    1.0040    0.0000 C.ar    1  LIG1        0.3567
     16 N          -3.1960    0.4960    0.0000 N.ar    1  LIG1       -0.1477
     17 C          -3.1960   -0.5040    0.0000 C.ar    1  LIG1        0.3542
     18 N          -2.3460   -1.0000    0.0000 N.ar    1  LIG1       -0.2575
     19 C          -2.3460   -2.0000    0.0000 C.3     1  LIG1        0.1368
     20 O          -4.0710   -1.0040    0.0000 O.2     1  LIG1       -0.2443
     21 O          -2.3460    2.0040    0.0000 O.2     1  LIG1       -0.2581
@<TRIPOS>BOND
     1     1     2   ar
     2     1     5   ar
     3     1    18   ar
     4     2     3   ar
     5     2    15   ar
     6     3     4   ar
     7     4     5   ar
     8     4     6    1
     9     6     7   ar
    10     6    11   ar
    11     7     8   ar
    12     8     9   ar
    13     8    13    1
    14     9    10   ar
    15     9    12    1
    16    10    11   ar
    17    13    14    1
    18    15    16   ar
    19    15    21    2
    20    16    17   ar
    21    17    18   ar
    22    17    20    2
    23    18    19    1
