@<TRIPOS>MOLECULE
33339_ChemDiv_7287-0372
 22 25 0 0 0
SMALL
GASTEIGER
Energy = 0

@<TRIPOS>ATOM
      1 C          -0.4880    0.3750    0.0000 C.ar    1  LIG1        0.0391
      2 C          -1.2880   -0.2330    0.0000 C.2     1  LIG1        0.1955
      3 C          -2.1080    0.3420    0.0000 C.ar    1  LIG1        0.0390
      4 C          -1.8170    1.2960    0.0000 C.ar    1  LIG1        0.0032
      5 C          -0.8170    1.3170    0.0000 C.ar    1  LIG1        0.0032
      6 C          -0.1670    2.0830    0.0000 C.ar    1  LIG1        0.0002
      7 C           0.8170    1.8880    0.0000 C.ar    1  LIG1        0.0045
      8 C           1.1380    0.9380    0.0000 C.ar    1  LIG1        0.0537
      9 C           2.1210    0.7500    0.0000 C.2     1  LIG1        0.2490
     10 N           2.4500   -0.1880    0.0000 N.am    1  LIG1       -0.2761
     11 C           1.7880   -0.9380    0.0000 C.3     1  LIG1        0.0937
     12 C           2.1170   -1.8830    0.0000 C.3     1  LIG1        0.0216
     13 C           3.0920   -2.0790    0.0000 C.3     1  LIG1        0.0035
     14 C           3.7580   -1.3250    0.0000 C.3     1  LIG1        0.0216
     15 C           3.4330   -0.3710    0.0000 C.3     1  LIG1        0.0937
     16 O           2.7710    1.5080    0.0000 O.2     1  LIG1       -0.2699
     17 C           0.4830    0.1920    0.0000 C.ar    1  LIG1        0.0077
     18 C          -2.5000    2.0290    0.0000 C.ar    1  LIG1        0.0001
     19 C          -3.4750    1.8000    0.0000 C.ar    1  LIG1        0.0000
     20 C          -3.7630    0.8420    0.0000 C.ar    1  LIG1        0.0001
     21 C          -3.0790    0.1170    0.0000 C.ar    1  LIG1        0.0032
     22 O          -1.2710   -1.2330    0.0000 O.2     1  LIG1       -0.2866
@<TRIPOS>BOND
     1     1     2    1
     2     1     5   ar
     3     1    17   ar
     4     2     3    1
     5     2    22    2
     6     3     4   ar
     7     3    21   ar
     8     4     5    1
     9     4    18   ar
    10     5     6   ar
    11     6     7   ar
    12     7     8   ar
    13     8     9    1
    14     8    17   ar
    15     9    10   am
    16     9    16    2
    17    10    11    1
    18    10    15    1
    19    11    12    1
    20    12    13    1
    21    13    14    1
    22    14    15    1
    23    18    19   ar
    24    19    20   ar
    25    20    21   ar
