@<TRIPOS>MOLECULE
33337_ChemDiv_7287-0063
 23 26 0 0 0
SMALL
GASTEIGER
Energy = 0

@<TRIPOS>ATOM
      1 N           3.1210   -0.0830    0.0000 N.ar    1  LIG1       -0.1862
      2 C           2.5460   -0.8830    0.0000 C.ar    1  LIG1        0.2152
      3 N           3.1210   -1.6830    0.0000 N.ar    1  LIG1       -0.1011
      4 N           4.0710   -1.3710    0.0000 N.ar    1  LIG1       -0.0218
      5 N           4.0580   -0.3790    0.0000 N.ar    1  LIG1       -0.0382
      6 S           1.5580   -0.8830    0.0000 S.3     1  LIG1       -0.0622
      7 C           1.0790   -1.7290    0.0000 C.3     1  LIG1        0.1703
      8 C           0.0960   -1.7290    0.0000 C.ar    1  LIG1        0.3047
      9 N          -0.4830   -0.9000    0.0000 N.ar    1  LIG1        0.0934
     10 C          -1.4670   -1.2250    0.0000 C.ar    1  LIG1        0.3688
     11 N          -1.4670   -2.2420    0.0000 N.ar    1  LIG1       -0.2398
     12 C          -0.4830   -2.5540    0.0000 C.ar    1  LIG1        0.1580
     13 C          -2.3420   -2.7460    0.0000 C.ar    1  LIG1        0.0972
     14 C          -3.2130   -2.2420    0.0000 C.ar    1  LIG1        0.0756
     15 C          -3.2130   -1.2250    0.0000 C.ar    1  LIG1        0.0210
     16 C          -2.3420   -0.7130    0.0000 C.ar    1  LIG1        0.0974
     17 CL         -4.0750   -2.7460    0.0000 Cl      1  LIG1       -0.0807
     18 C           2.8080    0.8580    0.0000 C.ar    1  LIG1        0.0866
     19 C           1.8330    1.0630    0.0000 C.ar    1  LIG1        0.0193
     20 C           1.5210    2.0000    0.0000 C.ar    1  LIG1        0.0015
     21 C           2.1830    2.7500    0.0000 C.ar    1  LIG1        0.0001
     22 C           3.1540    2.5460    0.0000 C.ar    1  LIG1        0.0015
     23 C           3.4670    1.6000    0.0000 C.ar    1  LIG1        0.0193
@<TRIPOS>BOND
     1     1     2   ar
     2     1     5   ar
     3     1    18    1
     4     2     3   ar
     5     2     6    1
     6     3     4   ar
     7     4     5   ar
     8     6     7    1
     9     7     8    1
    10     8     9   ar
    11     8    12   ar
    12     9    10   ar
    13    10    11   ar
    14    10    16   ar
    15    11    12   ar
    16    11    13   ar
    17    13    14   ar
    18    14    15   ar
    19    14    17    1
    20    15    16   ar
    21    18    19   ar
    22    18    23   ar
    23    19    20   ar
    24    20    21   ar
    25    21    22   ar
    26    22    23   ar
