@<TRIPOS>MOLECULE
33333_ChemDiv_7283-0960
 30 33 0 0 0
SMALL
GASTEIGER
Energy = 0

@<TRIPOS>ATOM
      1 C          -3.0000   -2.0710    0.0000 C.ar    1  LIG1        0.1422
      2 C          -3.0000   -3.0630    0.0000 C.ar    1  LIG1        0.1853
      3 N          -2.0420   -3.3710    0.0000 N.ar    1  LIG1       -0.2032
      4 C          -1.4580   -2.5540    0.0000 C.ar    1  LIG1        0.2004
      5 N          -2.0420   -1.7500    0.0000 N.ar    1  LIG1       -0.2188
      6 N          -3.8540   -3.5670    0.0000 N.ar    1  LIG1       -0.2032
      7 C          -4.7210   -3.0630    0.0000 C.ar    1  LIG1        0.2008
      8 N          -4.7210   -2.0710    0.0000 N.ar    1  LIG1       -0.2160
      9 C          -3.8540   -1.5540    0.0000 C.ar    1  LIG1        0.1294
     10 S          -3.8540   -0.5670    0.0000 S.3     1  LIG1       -0.0885
     11 C          -3.1500    0.1540    0.0000 C.3     1  LIG1        0.0899
     12 C          -2.1960    0.4170    0.0000 C.ar    1  LIG1       -0.0109
     13 C          -2.0000    1.3920    0.0000 C.ar    1  LIG1       -0.0033
     14 C          -1.0460    1.7130    0.0000 C.ar    1  LIG1        0.0043
     15 C          -0.3170    1.0460    0.0000 C.ar    1  LIG1        0.0554
     16 C           0.6290    1.3670    0.0000 C.2     1  LIG1        0.2691
     17 N           1.4000    0.7040    0.0000 N.am    1  LIG1       -0.1723
     18 C           2.3540    1.0290    0.0000 C.ar    1  LIG1        0.1105
     19 C           2.5210    2.0330    0.0000 C.ar    1  LIG1        0.0566
     20 C           3.4790    2.3630    0.0000 C.ar    1  LIG1        0.1402
     21 C           4.2130    1.7000    0.0000 C.ar    1  LIG1        0.0401
     22 C           4.0170    0.7040    0.0000 C.ar    1  LIG1        0.0414
     23 C           3.0830    0.3710    0.0000 C.ar    1  LIG1        0.1541
     24 O           2.8380   -0.5960    0.0000 O.3     1  LIG1       -0.4701
     25 C           1.8710   -0.8580    0.0000 C.3     1  LIG1        0.2525
     26 O           3.7500    3.3170    0.0000 O.3     1  LIG1       -0.4714
     27 C           4.7170    3.5710    0.0000 C.3     1  LIG1        0.2525
     28 O           0.8250    2.3500    0.0000 O.2     1  LIG1       -0.2680
     29 C          -0.5040    0.0790    0.0000 C.ar    1  LIG1        0.0043
     30 C          -1.4380   -0.2540    0.0000 C.ar    1  LIG1       -0.0033
@<TRIPOS>BOND
     1     1     2   ar
     2     1     5   ar
     3     1     9   ar
     4     2     3   ar
     5     2     6   ar
     6     3     4   ar
     7     4     5   ar
     8     6     7   ar
     9     7     8   ar
    10     8     9   ar
    11     9    10    1
    12    10    11    1
    13    11    12    1
    14    12    13   ar
    15    12    30   ar
    16    13    14   ar
    17    14    15   ar
    18    15    16    1
    19    15    29   ar
    20    16    17   am
    21    16    28    2
    22    17    18    1
    23    18    19   ar
    24    18    23   ar
    25    19    20   ar
    26    20    21   ar
    27    20    26    1
    28    21    22   ar
    29    22    23   ar
    30    23    24    1
    31    24    25    1
    32    26    27    1
    33    29    30   ar
