@<TRIPOS>MOLECULE
33335_ChemDiv_7287-0038
 10 11 0 0 0
SMALL
GASTEIGER
Energy = 0

@<TRIPOS>ATOM
      1 N          -0.4880   -0.0420    0.0000 N.ar    1  LIG1       -0.2781
      2 C          -0.4880    0.9580    0.0000 C.ar    1  LIG1        0.1795
      3 N           0.4830    1.2790    0.0000 N.ar    1  LIG1       -0.2244
      4 C           1.0670    0.4630    0.0000 C.ar    1  LIG1        0.0839
      5 C           0.4830   -0.3500    0.0000 C.ar    1  LIG1        0.1142
      6 BR          0.7920   -1.2750    0.0000 Br      1  LIG1       -0.0283
      7 C           2.0290    0.4630    0.0000 C.3     1  LIG1        0.0543
      8 S          -1.4500    1.2710    0.0000 S.2     1  LIG1       -0.0480
      9 C          -2.0330    0.4580    0.0000 C.ar    1  LIG1        0.0574
     10 C          -1.4500   -0.3500    0.0000 C.ar    1  LIG1        0.0894
@<TRIPOS>BOND
     1     1     2   ar
     2     1     5   ar
     3     1    10   ar
     4     2     3   ar
     5     2     8   ar
     6     3     4   ar
     7     4     5   ar
     8     4     7    1
     9     5     6    1
    10     8     9   ar
    11     9    10   ar
