@<TRIPOS>MOLECULE
33343_ChemDiv_K780-0369
 15 16 0 0 0
SMALL
GASTEIGER
Energy = 0

@<TRIPOS>ATOM
      1 N           1.7250    0.2500    0.0000 N.2     1  LIG1       -0.1605
      2 N           2.6000   -0.2540    0.0000 N.am    1  LIG1       -0.0796
      3 C           2.5920   -1.2500    0.0000 C.2     1  LIG1        0.2631
      4 O           3.4580   -1.7500    0.0000 O.2     1  LIG1       -0.2715
      5 C           1.7250   -1.7540    0.0000 C.3     1  LIG1        0.0950
      6 C           0.8670   -1.2540    0.0000 C.3     1  LIG1        0.0571
      7 C           0.8670   -0.2540    0.0000 C.2     1  LIG1        0.0787
      8 C           0.0040    0.2500    0.0000 C.ar    1  LIG1        0.0151
      9 C          -0.8670   -0.2500    0.0000 C.ar    1  LIG1        0.0009
     10 C          -1.7290    0.2500    0.0000 C.ar    1  LIG1       -0.0042
     11 C          -1.7290    1.2540    0.0000 C.ar    1  LIG1       -0.0222
     12 C          -0.8670    1.7580    0.0000 C.ar    1  LIG1       -0.0042
     13 C           0.0040    1.2540    0.0000 C.ar    1  LIG1        0.0009
     14 C          -2.5920    1.7500    0.0000 C.3     1  LIG1        0.0264
     15 C          -3.4630    1.2500    0.0000 C.3     1  LIG1        0.0050
@<TRIPOS>BOND
     1     1     2    1
     2     1     7    2
     3     2     3   am
     4     3     4    2
     5     3     5    1
     6     5     6    1
     7     6     7    1
     8     7     8    1
     9     8     9   ar
    10     8    13   ar
    11     9    10   ar
    12    10    11   ar
    13    11    12   ar
    14    11    14    1
    15    12    13   ar
    16    14    15    1
