@<TRIPOS>MOLECULE
33348_ChemDiv_C522-0814
 29 32 0 0 0
SMALL
GASTEIGER
Energy = 0

@<TRIPOS>ATOM
      1 C          -2.6330   -1.5000    0.0000 C.ar    1  LIG1        0.2288
      2 N          -2.9380   -0.5460    0.0000 N.ar    1  LIG1       -0.2071
      3 C          -2.1380    0.0380    0.0000 C.ar    1  LIG1        0.1489
      4 C          -1.3250   -0.5460    0.0000 C.ar    1  LIG1        0.1442
      5 O          -1.6380   -1.5000    0.0000 O.2     1  LIG1       -0.4390
      6 C          -0.3670   -0.2420    0.0000 C.3     1  LIG1        0.0741
      7 C          -2.1380    1.0380    0.0000 C.3     1  LIG1        0.1884
      8 N          -1.2750    1.5420    0.0000 N.4     1  LIG1        0.3820
      9 C          -0.4080    1.0380    0.0000 C.3     1  LIG1        0.1396
     10 C           0.4500    1.5290    0.0000 C.3     1  LIG1        0.0720
     11 C           0.4630    2.5330    0.0000 C.3     1  LIG1        0.0886
     12 C           1.3290    3.0380    0.0000 C.2     1  LIG1        0.2259
     13 N           2.1960    2.5330    0.0000 N.am    1  LIG1       -0.2681
     14 C           3.0540    3.0380    0.0000 C.3     1  LIG1        0.1564
     15 C           3.9210    2.5330    0.0000 C.3     1  LIG1        0.1608
     16 N           3.9210    1.5290    0.0000 N.4     1  LIG1        0.3847
     17 C           3.0710    1.0380    0.0000 C.3     1  LIG1        0.1608
     18 C           2.1880    1.5290    0.0000 C.3     1  LIG1        0.1564
     19 C           4.8000    1.0380    0.0000 C.3     1  LIG1        0.2024
     20 O           1.3290    4.0250    0.0000 O.2     1  LIG1       -0.2749
     21 C          -0.4080    3.0380    0.0000 C.3     1  LIG1        0.0720
     22 C          -1.2750    2.5330    0.0000 C.3     1  LIG1        0.1396
     23 C          -3.2250   -2.3130    0.0000 C.ar    1  LIG1        0.0496
     24 C          -4.1960   -2.1960    0.0000 C.ar    1  LIG1       -0.0173
     25 C          -4.5880   -1.2670    0.0000 C.3     1  LIG1        0.0312
     26 C          -4.8040   -3.0000    0.0000 C.ar    1  LIG1       -0.0041
     27 C          -4.4130   -3.9080    0.0000 C.ar    1  LIG1       -0.0003
     28 C          -3.4080   -4.0250    0.0000 C.ar    1  LIG1        0.0001
     29 C          -2.8040   -3.2210    0.0000 C.ar    1  LIG1        0.0043
@<TRIPOS>BOND
     1     1     2   ar
     2     1     5   ar
     3     1    23    1
     4     2     3   ar
     5     3     4   ar
     6     3     7    1
     7     4     5   ar
     8     4     6    1
     9     7     8    1
    10     8     9    1
    11     8    22    1
    12     9    10    1
    13    10    11    1
    14    11    12    1
    15    11    21    1
    16    12    13   am
    17    12    20    2
    18    13    14    1
    19    13    18    1
    20    14    15    1
    21    15    16    1
    22    16    17    1
    23    16    19    1
    24    17    18    1
    25    21    22    1
    26    23    24   ar
    27    23    29   ar
    28    24    25    1
    29    24    26   ar
    30    26    27   ar
    31    27    28   ar
    32    28    29   ar
