@<TRIPOS>MOLECULE
33341_ChemDiv_7287-0394
 16 17 0 0 0
SMALL
GASTEIGER
Energy = 0

@<TRIPOS>ATOM
      1 N           1.3000    0.2630    0.0000 N.2     1  LIG1       -0.1605
      2 C           0.4250    0.7580    0.0000 C.2     1  LIG1        0.0784
      3 C          -0.4380    0.2580    0.0000 C.ar    1  LIG1        0.0165
      4 C          -0.4380   -0.7420    0.0000 C.ar    1  LIG1        0.0207
      5 C          -1.3000   -1.2420    0.0000 C.ar    1  LIG1        0.1058
      6 C          -2.1630   -0.7420    0.0000 C.ar    1  LIG1        0.1057
      7 C          -2.1630    0.2580    0.0000 C.ar    1  LIG1        0.0195
      8 C          -1.3000    0.7580    0.0000 C.ar    1  LIG1        0.0027
      9 N          -3.0290   -1.2420    0.0000 N.pl3   1  LIG1       -0.1266
     10 N          -1.3000   -2.2540    0.0000 N.pl3   1  LIG1       -0.1266
     11 C           0.4250    1.7580    0.0000 C.3     1  LIG1        0.0511
     12 C           1.2920    2.2580    0.0000 C.3     1  LIG1        0.0946
     13 C           2.1630    1.7580    0.0000 C.2     1  LIG1        0.2631
     14 N           2.1630    0.7580    0.0000 N.am    1  LIG1       -0.0796
     15 O           3.0250    2.2580    0.0000 O.2     1  LIG1       -0.2715
     16 C          -0.4420    2.2580    0.0000 C.3     1  LIG1        0.0069
@<TRIPOS>BOND
     1     1     2    2
     2     1    14    1
     3     2     3    1
     4     2    11    1
     5     3     4   ar
     6     3     8   ar
     7     4     5   ar
     8     5     6   ar
     9     5    10    1
    10     6     7   ar
    11     6     9    1
    12     7     8   ar
    13    11    12    1
    14    11    16    1
    15    12    13    1
    16    13    14   am
    17    13    15    2
