@<TRIPOS>MOLECULE
33344_ChemDiv_8016-7584
 21 23 0 0 0
SMALL
GASTEIGER
Energy = 0

@<TRIPOS>ATOM
      1 N           0.5040    1.3000    0.0000 N.ar    1  LIG1       -0.1773
      2 C          -0.5000    1.3000    0.0000 C.ar    1  LIG1        0.3516
      3 N          -1.0000    0.4330    0.0000 N.ar    1  LIG1       -0.2743
      4 C          -0.5000   -0.4330    0.0000 C.ar    1  LIG1        0.0830
      5 C           0.5040   -0.4330    0.0000 C.ar    1  LIG1        0.0532
      6 C           1.0040    0.4330    0.0000 C.ar    1  LIG1        0.1381
      7 N           2.0040    0.4330    0.0000 N.pl3   1  LIG1       -0.2879
      8 C           2.5040    1.3000    0.0000 C.3     1  LIG1        0.1242
      9 C           3.5040    1.3000    0.0000 C.3     1  LIG1        0.1636
     10 O           3.9960    0.4330    0.0000 O.3     1  LIG1       -0.3501
     11 C           3.5040   -0.4330    0.0000 C.3     1  LIG1        0.1636
     12 C           2.5040   -0.4330    0.0000 C.3     1  LIG1        0.1242
     13 C          -2.0000    0.4330    0.0000 C.3     1  LIG1        0.1370
     14 C          -2.5000   -0.4330    0.0000 C.ar    1  LIG1       -0.0034
     15 C          -3.5000   -0.4330    0.0000 C.ar    1  LIG1       -0.0240
     16 C          -4.0000    0.4330    0.0000 C.3     1  LIG1        0.0308
     17 C          -4.0000   -1.2960    0.0000 C.ar    1  LIG1       -0.0045
     18 C          -3.5000   -2.1670    0.0000 C.ar    1  LIG1       -0.0003
     19 C          -2.5000   -2.1670    0.0000 C.ar    1  LIG1       -0.0003
     20 C          -2.0000   -1.2960    0.0000 C.ar    1  LIG1       -0.0027
     21 O          -1.0000    2.1710    0.0000 O.2     1  LIG1       -0.2444
@<TRIPOS>BOND
     1     1     2   ar
     2     1     6   ar
     3     2     3   ar
     4     2    21    2
     5     3     4   ar
     6     3    13    1
     7     4     5   ar
     8     5     6   ar
     9     6     7    1
    10     7     8    1
    11     7    12    1
    12     8     9    1
    13     9    10    1
    14    10    11    1
    15    11    12    1
    16    13    14    1
    17    14    15   ar
    18    14    20   ar
    19    15    16    1
    20    15    17   ar
    21    17    18   ar
    22    18    19   ar
    23    19    20   ar
