@<TRIPOS>MOLECULE
33346_ChemDiv_C522-0650
 41 45 0 0 0
SMALL
GASTEIGER
Energy = 0

@<TRIPOS>ATOM
      1 N          -5.0170   -1.2380    0.0000 N.ar    1  LIG1       -0.2071
      2 C          -4.2170   -0.6580    0.0000 C.ar    1  LIG1        0.1489
      3 C          -3.4040   -1.2380    0.0000 C.ar    1  LIG1        0.1442
      4 O          -3.7170   -2.1920    0.0000 O.2     1  LIG1       -0.4390
      5 C          -4.7170   -2.1920    0.0000 C.ar    1  LIG1        0.2292
      6 C          -5.3080   -3.0080    0.0000 C.ar    1  LIG1        0.0568
      7 C          -4.9040   -3.9040    0.0000 C.ar    1  LIG1        0.0447
      8 C          -5.5040   -4.7210    0.0000 C.ar    1  LIG1        0.1725
      9 C          -6.4880   -4.6290    0.0000 C.ar    1  LIG1        0.1724
     10 C          -6.8920   -3.7080    0.0000 C.ar    1  LIG1        0.0402
     11 C          -6.3040   -2.9000    0.0000 C.ar    1  LIG1        0.0080
     12 O          -7.0580   -5.4290    0.0000 O.3     1  LIG1       -0.4684
     13 C          -6.6830   -6.3380    0.0000 C.3     1  LIG1        0.2526
     14 O          -5.0920   -5.6460    0.0000 O.3     1  LIG1       -0.4684
     15 C          -4.0960   -5.7540    0.0000 C.3     1  LIG1        0.2526
     16 C          -2.4540   -0.9330    0.0000 C.3     1  LIG1        0.0741
     17 C          -4.2170    0.3420    0.0000 C.3     1  LIG1        0.1884
     18 N          -3.3540    0.8460    0.0000 N.4     1  LIG1        0.3820
     19 C          -3.3540    1.8380    0.0000 C.3     1  LIG1        0.1396
     20 C          -2.4960    2.3420    0.0000 C.3     1  LIG1        0.0720
     21 C          -1.6210    1.8380    0.0000 C.3     1  LIG1        0.0900
     22 C          -0.7540    2.3420    0.0000 C.2     1  LIG1        0.2415
     23 O          -0.7540    3.3380    0.0000 O.2     1  LIG1       -0.2733
     24 N           0.1080    1.8380    0.0000 N.am    1  LIG1       -0.1990
     25 C           0.9750    2.3420    0.0000 C.3     1  LIG1        0.1775
     26 C           1.8500    1.8380    0.0000 C.3     1  LIG1        0.1626
     27 N           2.7130    2.3420    0.0000 N.4     1  LIG1        0.3814
     28 C           2.7130    3.3460    0.0000 C.3     1  LIG1        0.1605
     29 C           3.5750    3.8380    0.0000 C.3     1  LIG1        0.1544
     30 N           4.4540    3.3460    0.0000 N.pl3   1  LIG1       -0.2972
     31 C           5.3250    3.8380    0.0000 C.ar    1  LIG1        0.0490
     32 C           5.3250    4.8380    0.0000 C.ar    1  LIG1        0.0259
     33 C           6.1880    5.3380    0.0000 C.ar    1  LIG1        0.0589
     34 CL          6.1880    6.3380    0.0000 Cl      1  LIG1       -0.0822
     35 C           7.0580    4.8380    0.0000 C.ar    1  LIG1        0.0115
     36 C           7.0580    3.8420    0.0000 C.ar    1  LIG1        0.0021
     37 C           6.1880    3.3460    0.0000 C.ar    1  LIG1        0.0146
     38 C           4.4540    2.3420    0.0000 C.3     1  LIG1        0.1544
     39 C           3.5920    1.8380    0.0000 C.3     1  LIG1        0.1605
     40 C          -1.6330    0.8380    0.0000 C.3     1  LIG1        0.0720
     41 C          -2.4960    0.3420    0.0000 C.3     1  LIG1        0.1396
@<TRIPOS>BOND
     1     1     2   ar
     2     1     5   ar
     3     2     3   ar
     4     2    17    1
     5     3     4   ar
     6     3    16    1
     7     4     5   ar
     8     5     6    1
     9     6     7   ar
    10     6    11   ar
    11     7     8   ar
    12     8     9   ar
    13     8    14    1
    14     9    10   ar
    15     9    12    1
    16    10    11   ar
    17    12    13    1
    18    14    15    1
    19    17    18    1
    20    18    19    1
    21    18    41    1
    22    19    20    1
    23    20    21    1
    24    21    22    1
    25    21    40    1
    26    22    23    2
    27    22    24   am
    28    24    25    1
    29    25    26    1
    30    26    27    1
    31    27    28    1
    32    27    39    1
    33    28    29    1
    34    29    30    1
    35    30    31    1
    36    30    38    1
    37    31    32   ar
    38    31    37   ar
    39    32    33   ar
    40    33    34    1
    41    33    35   ar
    42    35    36   ar
    43    36    37   ar
    44    38    39    1
    45    40    41    1
