@<TRIPOS>MOLECULE
33340_ChemDiv_7599-0942
 18 20 0 0 0
SMALL
GASTEIGER
Energy = 0

@<TRIPOS>ATOM
      1 N          -0.4250   -2.7580    0.0000 N.4     1  LIG1        0.3730
      2 C          -0.4380   -1.7580    0.0000 C.3     1  LIG1        0.0903
      3 C           0.4290   -1.2540    0.0000 C.3     1  LIG1        0.0950
      4 C           0.4290   -0.2420    0.0000 C.3     1  LIG1        0.2127
      5 O           1.2920    0.2580    0.0000 O.3     1  LIG1       -0.4600
      6 C           1.2920    1.2580    0.0000 C.ar    1  LIG1        0.2249
      7 N           2.1540    1.7580    0.0000 N.ar    1  LIG1       -0.2101
      8 C           2.1540    2.7580    0.0000 C.ar    1  LIG1        0.1021
      9 C           1.2880    3.2580    0.0000 C.ar    1  LIG1        0.0209
     10 C           0.4130    2.7460    0.0000 C.ar    1  LIG1        0.0064
     11 C           0.4250    1.7460    0.0000 C.ar    1  LIG1        0.0577
     12 C           1.2920   -1.7540    0.0000 C.3     1  LIG1        0.0156
     13 C           1.3040   -2.7540    0.0000 C.3     1  LIG1        0.0630
     14 C           0.4290   -3.2540    0.0000 C.3     1  LIG1        0.1383
     15 C          -1.3000   -1.2540    0.0000 C.3     1  LIG1        0.0570
     16 C          -2.1580   -1.7580    0.0000 C.3     1  LIG1        0.0120
     17 C          -2.1580   -2.7580    0.0000 C.3     1  LIG1        0.0629
     18 C          -1.3000   -3.2540    0.0000 C.3     1  LIG1        0.1383
@<TRIPOS>BOND
     1     1     2    1
     2     1    14    1
     3     1    18    1
     4     2     3    1
     5     2    15    1
     6     3     4    1
     7     3    12    1
     8     4     5    1
     9     5     6    1
    10     6     7   ar
    11     6    11   ar
    12     7     8   ar
    13     8     9   ar
    14     9    10   ar
    15    10    11   ar
    16    12    13    1
    17    13    14    1
    18    15    16    1
    19    16    17    1
    20    17    18    1
