@<TRIPOS>MOLECULE
33354_ChemDiv_E800-2761
 33 36 0 0 0
SMALL
GASTEIGER
Energy = 0

@<TRIPOS>ATOM
      1 N           1.7830   -0.6040    0.0000 N.ar    1  LIG1       -0.2071
      2 C           2.5830   -0.0250    0.0000 C.ar    1  LIG1        0.1489
      3 C           3.3960   -0.6040    0.0000 C.ar    1  LIG1        0.1442
      4 O           3.0830   -1.5540    0.0000 O.2     1  LIG1       -0.4390
      5 C           2.0830   -1.5540    0.0000 C.ar    1  LIG1        0.2291
      6 C           1.4960   -2.3670    0.0000 C.ar    1  LIG1        0.0538
      7 C           0.4960   -2.2540    0.0000 C.ar    1  LIG1        0.0078
      8 C          -0.0960   -3.0750    0.0000 C.ar    1  LIG1        0.0371
      9 C           0.3170   -4.0040    0.0000 C.ar    1  LIG1        0.1386
     10 C           1.3080   -4.1040    0.0000 C.ar    1  LIG1        0.0371
     11 C           1.9080   -3.2880    0.0000 C.ar    1  LIG1        0.0078
     12 O          -0.2830   -4.7960    0.0000 O.3     1  LIG1       -0.4755
     13 C          -1.2630   -4.6960    0.0000 C.3     1  LIG1        0.2055
     14 C          -1.8500   -5.4960    0.0000 C.3     1  LIG1        0.0512
     15 C           4.3500   -0.3000    0.0000 C.3     1  LIG1        0.0741
     16 C           2.5830    0.9790    0.0000 C.3     1  LIG1        0.1884
     17 N           1.7210    1.4880    0.0000 N.4     1  LIG1        0.3820
     18 C           1.7210    2.4920    0.0000 C.3     1  LIG1        0.1396
     19 C           0.8580    2.9920    0.0000 C.3     1  LIG1        0.0720
     20 C          -0.0210    2.4920    0.0000 C.3     1  LIG1        0.0901
     21 C          -0.8830    2.9920    0.0000 C.2     1  LIG1        0.2416
     22 N          -0.8830    3.9960    0.0000 N.am    1  LIG1       -0.2027
     23 C          -1.7330    4.4710    0.0000 C.3     1  LIG1        0.1175
     24 C          -2.6130    4.0040    0.0000 C.ar    1  LIG1       -0.0026
     25 C          -2.6250    3.0380    0.0000 C.ar    1  LIG1       -0.0026
     26 C          -3.5210    2.5540    0.0000 C.ar    1  LIG1       -0.0003
     27 C          -4.3540    3.0540    0.0000 C.ar    1  LIG1       -0.0000
     28 C          -4.3380    4.0580    0.0000 C.ar    1  LIG1       -0.0003
     29 C          -3.4500    4.5460    0.0000 C.ar    1  LIG1       -0.0026
     30 C          -1.7080    5.4960    0.0000 C.3     1  LIG1        0.0283
     31 O          -1.7460    2.4920    0.0000 O.2     1  LIG1       -0.2733
     32 C          -0.0210    1.4920    0.0000 C.3     1  LIG1        0.0720
     33 C           0.8580    0.9920    0.0000 C.3     1  LIG1        0.1396
@<TRIPOS>BOND
     1     1     2   ar
     2     1     5   ar
     3     2     3   ar
     4     2    16    1
     5     3     4   ar
     6     3    15    1
     7     4     5   ar
     8     5     6    1
     9     6     7   ar
    10     6    11   ar
    11     7     8   ar
    12     8     9   ar
    13     9    10   ar
    14     9    12    1
    15    10    11   ar
    16    12    13    1
    17    13    14    1
    18    16    17    1
    19    17    18    1
    20    17    33    1
    21    18    19    1
    22    19    20    1
    23    20    21    1
    24    20    32    1
    25    21    22   am
    26    21    31    2
    27    22    23    1
    28    23    24    1
    29    23    30    1
    30    24    25   ar
    31    24    29   ar
    32    25    26   ar
    33    26    27   ar
    34    27    28   ar
    35    28    29   ar
    36    32    33    1
