@<TRIPOS>MOLECULE
33359_ChemDiv_7120-3169
 23 27 0 0 0
SMALL
GASTEIGER
Energy = 0

@<TRIPOS>ATOM
      1 N           0.7420   -0.2000    0.0000 N.ar    1  LIG1       -0.2110
      2 C           1.0790   -1.1420    0.0000 C.ar    1  LIG1        0.1637
      3 N           0.2830   -1.7580    0.0000 N.ar    1  LIG1       -0.2250
      4 C          -0.5500   -1.1920    0.0000 C.ar    1  LIG1        0.1007
      5 C          -0.2670   -0.2330    0.0000 C.ar    1  LIG1        0.1032
      6 C          -0.9540    0.4920    0.0000 C.ar    1  LIG1        0.0352
      7 C          -1.9290    0.2540    0.0000 C.ar    1  LIG1        0.0495
      8 N          -2.6170    0.9710    0.0000 N.pl3   1  LIG1       -0.3075
      9 C          -3.6040    0.8380    0.0000 C.3     1  LIG1        0.0908
     10 C          -4.0370    1.7330    0.0000 C.3     1  LIG1        0.0232
     11 C          -3.3170    2.4250    0.0000 C.3     1  LIG1        0.0232
     12 C          -2.4380    1.9500    0.0000 C.3     1  LIG1        0.0908
     13 C          -2.2080   -0.7130    0.0000 C.ar    1  LIG1        0.0162
     14 C          -1.5170   -1.4290    0.0000 C.ar    1  LIG1        0.0220
     15 C           2.0630   -1.3130    0.0000 C.ar    1  LIG1        0.0370
     16 C           2.7130   -0.5460    0.0000 C.ar    1  LIG1        0.0182
     17 C           2.3710    0.3960    0.0000 C.ar    1  LIG1        0.0794
     18 N           1.3830    0.5750    0.0000 N.ar    1  LIG1       -0.1681
     19 C           3.0170    1.1580    0.0000 C.3     1  LIG1        0.0539
     20 C           3.6920   -0.7170    0.0000 C.ar    1  LIG1        0.0013
     21 C           4.0330   -1.6540    0.0000 C.ar    1  LIG1        0.0000
     22 C           3.3880   -2.4210    0.0000 C.ar    1  LIG1        0.0001
     23 C           2.4130   -2.2500    0.0000 C.ar    1  LIG1        0.0031
@<TRIPOS>BOND
     1     1     2   ar
     2     1     5   ar
     3     1    18   ar
     4     2     3   ar
     5     2    15   ar
     6     3     4   ar
     7     4     5   ar
     8     4    14   ar
     9     5     6   ar
    10     6     7   ar
    11     7     8    1
    12     7    13   ar
    13     8     9    1
    14     8    12    1
    15     9    10    1
    16    10    11    1
    17    11    12    1
    18    13    14   ar
    19    15    16   ar
    20    15    23   ar
    21    16    17   ar
    22    16    20   ar
    23    17    18   ar
    24    17    19    1
    25    20    21   ar
    26    21    22   ar
    27    22    23   ar
