@<TRIPOS>MOLECULE
33353_ChemDiv_7102-0344
 19 20 0 0 0
SMALL
GASTEIGER
Energy = 0

@<TRIPOS>ATOM
      1 C          -1.3040    2.0040    0.0000 C.2     1  LIG1        0.2991
      2 C          -1.3040    1.0080    0.0000 C.3     1  LIG1        0.2314
      3 C          -0.4420    0.5000    0.0000 C.3     1  LIG1        0.1593
      4 C           0.4330    1.0080    0.0000 C.2     1  LIG1        0.2522
      5 N           1.2960    0.5000    0.0000 N.am    1  LIG1       -0.1790
      6 C           1.2960   -0.5040    0.0000 C.ar    1  LIG1        0.0727
      7 C           0.4330   -0.9920    0.0000 C.ar    1  LIG1        0.0123
      8 C           0.4210   -1.9960    0.0000 C.ar    1  LIG1       -0.0209
      9 C           1.2960   -2.5000    0.0000 C.ar    1  LIG1       -0.0084
     10 C           2.1670   -1.9960    0.0000 C.ar    1  LIG1       -0.0209
     11 C           2.1670   -0.9920    0.0000 C.ar    1  LIG1        0.0123
     12 C           3.0290   -2.4880    0.0000 C.3     1  LIG1        0.0311
     13 C          -0.4420   -2.4880    0.0000 C.3     1  LIG1        0.0311
     14 O           0.4380    2.0040    0.0000 O.2     1  LIG1       -0.2727
     15 N          -2.1710    0.5080    0.0000 N.4     1  LIG1        0.4524
     16 C          -3.0330    1.0080    0.0000 C.3     1  LIG1        0.2248
     17 C          -3.0330    2.0040    0.0000 C.3     1  LIG1        0.1839
     18 N          -2.1710    2.5040    0.0000 N.am    1  LIG1       -0.1938
     19 O          -0.4420    2.4960    0.0000 O.2     1  LIG1       -0.2669
@<TRIPOS>BOND
     1     1     2    1
     2     1    18   am
     3     1    19    2
     4     2     3    1
     5     2    15    1
     6     3     4    1
     7     4     5   am
     8     4    14    2
     9     5     6    1
    10     6     7   ar
    11     6    11   ar
    12     7     8   ar
    13     8     9   ar
    14     8    13    1
    15     9    10   ar
    16    10    11   ar
    17    10    12    1
    18    15    16    1
    19    16    17    1
    20    17    18    1
