@<TRIPOS>MOLECULE
33356_ChemDiv_G027-0975
 26 28 0 0 0
SMALL
GASTEIGER
Energy = 0

@<TRIPOS>ATOM
      1 N          -1.2630   -2.8250    0.0000 N.ar    1  LIG1       -0.2071
      2 C          -0.6750   -2.0170    0.0000 C.ar    1  LIG1        0.1489
      3 C           0.2790   -2.3250    0.0000 C.ar    1  LIG1        0.1442
      4 O           0.2790   -3.3250    0.0000 O.2     1  LIG1       -0.4390
      5 C          -0.6750   -3.6290    0.0000 C.ar    1  LIG1        0.2291
      6 C          -1.1750   -4.5040    0.0000 C.ar    1  LIG1        0.0536
      7 C          -0.6750   -5.3710    0.0000 C.ar    1  LIG1        0.0046
      8 C          -1.1750   -6.2330    0.0000 C.ar    1  LIG1        0.0002
      9 C          -2.1750   -6.2330    0.0000 C.ar    1  LIG1        0.0000
     10 C          -2.6750   -5.3710    0.0000 C.ar    1  LIG1        0.0002
     11 C          -2.1750   -4.5040    0.0000 C.ar    1  LIG1        0.0046
     12 C           1.0830   -1.7380    0.0000 C.3     1  LIG1        0.0741
     13 C          -0.9830   -1.0670    0.0000 C.3     1  LIG1        0.1884
     14 N          -0.3210   -0.3170    0.0000 N.4     1  LIG1        0.3820
     15 C          -0.6250    0.6380    0.0000 C.3     1  LIG1        0.1396
     16 C           0.0460    1.3750    0.0000 C.3     1  LIG1        0.0720
     17 C           1.0290    1.1670    0.0000 C.3     1  LIG1        0.0900
     18 C           1.6960    1.9130    0.0000 C.2     1  LIG1        0.2414
     19 O           2.6710    1.7040    0.0000 O.2     1  LIG1       -0.2733
     20 N           1.1960    2.7790    0.0000 N.am    1  LIG1       -0.2027
     21 C           1.6960    3.6460    0.0000 C.3     1  LIG1        0.1471
     22 C           1.1960    4.5040    0.0000 C.3     1  LIG1        0.1656
     23 O           1.6960    5.3710    0.0000 O.3     1  LIG1       -0.3492
     24 C           1.1960    6.2330    0.0000 C.3     1  LIG1        0.1742
     25 C           1.3330    0.2170    0.0000 C.3     1  LIG1        0.0720
     26 C           0.6670   -0.5290    0.0000 C.3     1  LIG1        0.1396
@<TRIPOS>BOND
     1     1     2   ar
     2     1     5   ar
     3     2     3   ar
     4     2    13    1
     5     3     4   ar
     6     3    12    1
     7     4     5   ar
     8     5     6    1
     9     6     7   ar
    10     6    11   ar
    11     7     8   ar
    12     8     9   ar
    13     9    10   ar
    14    10    11   ar
    15    13    14    1
    16    14    15    1
    17    14    26    1
    18    15    16    1
    19    16    17    1
    20    17    18    1
    21    17    25    1
    22    18    19    2
    23    18    20   am
    24    20    21    1
    25    21    22    1
    26    22    23    1
    27    23    24    1
    28    25    26    1
