@<TRIPOS>MOLECULE
33350_ChemDiv_C522-0911
 34 37 0 0 0
SMALL
GASTEIGER
Energy = 0

@<TRIPOS>ATOM
      1 C          -2.6380   -3.2500    0.0000 C.ar    1  LIG1        0.2288
      2 N          -2.9380   -2.3000    0.0000 N.ar    1  LIG1       -0.2071
      3 C          -2.1380   -1.7170    0.0000 C.ar    1  LIG1        0.1489
      4 C          -1.3210   -2.3000    0.0000 C.ar    1  LIG1        0.1442
      5 O          -1.6330   -3.2500    0.0000 O.2     1  LIG1       -0.4390
      6 C          -0.3710   -1.9960    0.0000 C.3     1  LIG1        0.0741
      7 C          -2.1380   -0.7170    0.0000 C.3     1  LIG1        0.1884
      8 N          -1.2710   -0.2130    0.0000 N.4     1  LIG1        0.3820
      9 C          -0.4130   -0.7170    0.0000 C.3     1  LIG1        0.1396
     10 C           0.4500   -0.2210    0.0000 C.3     1  LIG1        0.0720
     11 C           0.4580    0.7790    0.0000 C.3     1  LIG1        0.0900
     12 C           1.3250    1.2830    0.0000 C.2     1  LIG1        0.2413
     13 O           1.3250    2.2750    0.0000 O.2     1  LIG1       -0.2734
     14 N           2.1920    0.7790    0.0000 N.am    1  LIG1       -0.2052
     15 C           3.0670    1.2880    0.0000 C.3     1  LIG1        0.1213
     16 C           3.0540    2.2880    0.0000 C.3     1  LIG1        0.0861
     17 C           3.9290    2.7670    0.0000 C.3     1  LIG1        0.1404
     18 N           3.9330    3.7830    0.0000 N.4     1  LIG1        0.3777
     19 C           3.0670    4.2790    0.0000 C.3     1  LIG1        0.0872
     20 C           2.1920    3.7830    0.0000 C.3     1  LIG1        0.0567
     21 C           1.3250    4.2790    0.0000 C.3     1  LIG1        0.0059
     22 C           1.3250    5.2790    0.0000 C.3     1  LIG1        0.0004
     23 C           2.1880    5.7790    0.0000 C.3     1  LIG1        0.0059
     24 C           3.0540    5.2790    0.0000 C.3     1  LIG1        0.0567
     25 C           4.8000    4.2790    0.0000 C.3     1  LIG1        0.2019
     26 C          -0.4130    1.2830    0.0000 C.3     1  LIG1        0.0720
     27 C          -1.2710    0.7790    0.0000 C.3     1  LIG1        0.1396
     28 C          -3.2250   -4.0630    0.0000 C.ar    1  LIG1        0.0496
     29 C          -4.1960   -3.9500    0.0000 C.ar    1  LIG1       -0.0173
     30 C          -4.5880   -3.0210    0.0000 C.3     1  LIG1        0.0312
     31 C          -4.8040   -4.7540    0.0000 C.ar    1  LIG1       -0.0041
     32 C          -4.4130   -5.6580    0.0000 C.ar    1  LIG1       -0.0003
     33 C          -3.4080   -5.7790    0.0000 C.ar    1  LIG1        0.0001
     34 C          -2.8080   -4.9750    0.0000 C.ar    1  LIG1        0.0043
@<TRIPOS>BOND
     1     1     2   ar
     2     1     5   ar
     3     1    28    1
     4     2     3   ar
     5     3     4   ar
     6     3     7    1
     7     4     5   ar
     8     4     6    1
     9     7     8    1
    10     8     9    1
    11     8    27    1
    12     9    10    1
    13    10    11    1
    14    11    12    1
    15    11    26    1
    16    12    13    2
    17    12    14   am
    18    14    15    1
    19    15    16    1
    20    16    17    1
    21    17    18    1
    22    18    19    1
    23    18    25    1
    24    19    20    1
    25    19    24    1
    26    20    21    1
    27    21    22    1
    28    22    23    1
    29    23    24    1
    30    26    27    1
    31    28    29   ar
    32    28    34   ar
    33    29    30    1
    34    29    31   ar
    35    31    32   ar
    36    32    33   ar
    37    33    34   ar
