@<TRIPOS>MOLECULE
33351_ChemDiv_7102-0338
 18 19 0 0 0
SMALL
GASTEIGER
Energy = 0

@<TRIPOS>ATOM
      1 C          -1.3080    2.0080    0.0000 C.2     1  LIG1        0.2991
      2 C          -1.3080    1.0040    0.0000 C.3     1  LIG1        0.2314
      3 C          -0.4290    0.5040    0.0000 C.3     1  LIG1        0.1593
      4 C           0.4250    1.0040    0.0000 C.2     1  LIG1        0.2522
      5 N           1.3040    0.5040    0.0000 N.am    1  LIG1       -0.1793
      6 C           1.3000   -0.4920    0.0000 C.ar    1  LIG1        0.0694
      7 C           2.1630   -0.9920    0.0000 C.ar    1  LIG1       -0.0065
      8 C           3.0210   -0.4920    0.0000 C.3     1  LIG1        0.0324
      9 C           2.1630   -1.9880    0.0000 C.ar    1  LIG1       -0.0030
     10 C           1.3000   -2.5000    0.0000 C.ar    1  LIG1       -0.0002
     11 C           0.4250   -1.9880    0.0000 C.ar    1  LIG1        0.0013
     12 C           0.4250   -0.9920    0.0000 C.ar    1  LIG1        0.0163
     13 O           0.4330    2.0080    0.0000 O.2     1  LIG1       -0.2727
     14 N          -2.1670    0.5040    0.0000 N.4     1  LIG1        0.4524
     15 C          -3.0250    1.0040    0.0000 C.3     1  LIG1        0.2248
     16 C          -3.0250    2.0080    0.0000 C.3     1  LIG1        0.1839
     17 N          -2.1670    2.5040    0.0000 N.am    1  LIG1       -0.1938
     18 O          -0.4290    2.5040    0.0000 O.2     1  LIG1       -0.2669
@<TRIPOS>BOND
     1     1     2    1
     2     1    17   am
     3     1    18    2
     4     2     3    1
     5     2    14    1
     6     3     4    1
     7     4     5   am
     8     4    13    2
     9     5     6    1
    10     6     7   ar
    11     6    12   ar
    12     7     8    1
    13     7     9   ar
    14     9    10   ar
    15    10    11   ar
    16    11    12   ar
    17    14    15    1
    18    15    16    1
    19    16    17    1
