@<TRIPOS>MOLECULE
33358_ChemDiv_K783-5721
 33 37 0 0 0
SMALL
GASTEIGER
Energy = 0

@<TRIPOS>ATOM
      1 N           2.9290    0.3540    0.0000 N.ar    1  LIG1       -0.2071
      2 C           3.0920   -0.6290    0.0000 C.ar    1  LIG1        0.1472
      3 C           4.0790   -0.7750    0.0000 C.ar    1  LIG1        0.1442
      4 O           4.5250    0.1130    0.0000 O.2     1  LIG1       -0.4390
      5 C           3.8130    0.8130    0.0000 C.ar    1  LIG1        0.2291
      6 C           3.9670    1.7960    0.0000 C.ar    1  LIG1        0.0532
      7 C           3.1880    2.4210    0.0000 C.ar    1  LIG1        0.0004
      8 C           3.3290    3.4040    0.0000 C.ar    1  LIG1       -0.0217
      9 C           4.2670    3.7750    0.0000 C.ar    1  LIG1       -0.0043
     10 C           5.0500    3.1540    0.0000 C.ar    1  LIG1       -0.0002
     11 C           4.9000    2.1630    0.0000 C.ar    1  LIG1        0.0046
     12 C           2.5500    4.0170    0.0000 C.3     1  LIG1        0.0310
     13 C           4.5380   -1.6670    0.0000 C.3     1  LIG1        0.0741
     14 C           2.3920   -1.3330    0.0000 C.3     1  LIG1        0.1586
     15 N           1.4000   -1.2130    0.0000 N.4     1  LIG1        0.3062
     16 C           0.9920   -2.1290    0.0000 C.3     1  LIG1        0.1586
     17 C           0.0000   -2.2330    0.0000 C.ar    1  LIG1        0.1472
     18 N          -0.6710   -1.4920    0.0000 N.ar    1  LIG1       -0.2071
     19 C          -1.5830   -1.9000    0.0000 C.ar    1  LIG1        0.2291
     20 O          -1.4790   -2.8960    0.0000 O.2     1  LIG1       -0.4390
     21 C          -0.5000   -3.1040    0.0000 C.ar    1  LIG1        0.1442
     22 C          -0.0920   -4.0170    0.0000 C.3     1  LIG1        0.0741
     23 C          -2.4500   -1.4080    0.0000 C.ar    1  LIG1        0.0532
     24 C          -3.3170   -1.9040    0.0000 C.ar    1  LIG1        0.0004
     25 C          -4.1880   -1.4080    0.0000 C.ar    1  LIG1       -0.0217
     26 C          -4.1880   -0.4040    0.0000 C.ar    1  LIG1       -0.0043
     27 C          -3.3170    0.1000    0.0000 C.ar    1  LIG1       -0.0002
     28 C          -2.4500   -0.4040    0.0000 C.ar    1  LIG1        0.0046
     29 C          -5.0540   -1.9040    0.0000 C.3     1  LIG1        0.0310
     30 C           1.8420   -0.3210    0.0000 C.3     1  LIG1        0.1095
     31 C           1.1250    0.3830    0.0000 C.3     1  LIG1        0.0671
     32 C           0.2380   -0.0920    0.0000 C.3     1  LIG1        0.0671
     33 C           0.4080   -1.0750    0.0000 C.3     1  LIG1        0.1095
@<TRIPOS>BOND
     1     1     2   ar
     2     1     5   ar
     3     2     3   ar
     4     2    14    1
     5     3     4   ar
     6     3    13    1
     7     4     5   ar
     8     5     6    1
     9     6     7   ar
    10     6    11   ar
    11     7     8   ar
    12     8     9   ar
    13     8    12    1
    14     9    10   ar
    15    10    11   ar
    16    14    15    1
    17    15    16    1
    18    15    30    1
    19    15    33    1
    20    16    17    1
    21    17    18   ar
    22    17    21   ar
    23    18    19   ar
    24    19    20   ar
    25    19    23    1
    26    20    21   ar
    27    21    22    1
    28    23    24   ar
    29    23    28   ar
    30    24    25   ar
    31    25    26   ar
    32    25    29    1
    33    26    27   ar
    34    27    28   ar
    35    30    31    1
    36    31    32    1
    37    32    33    1
