@<TRIPOS>MOLECULE
33357_ChemDiv_7102-0349
 24 27 0 0 0
SMALL
GASTEIGER
Energy = 0

@<TRIPOS>ATOM
      1 N          -1.2880    3.1710    0.0000 N.am    1  LIG1       -0.1961
      2 C          -0.4420    2.6790    0.0000 C.2     1  LIG1        0.2990
      3 C          -0.4420    1.7080    0.0000 C.3     1  LIG1        0.2311
      4 N          -1.2880    1.2210    0.0000 N.4     1  LIG1        0.4475
      5 C          -2.1210    1.7080    0.0000 C.3     1  LIG1        0.1639
      6 C          -2.1210    2.6790    0.0000 C.3     1  LIG1        0.1518
      7 C          -2.9540    3.1710    0.0000 C.3     1  LIG1        0.0278
      8 C          -3.7960    2.6790    0.0000 C.3     1  LIG1        0.0022
      9 C          -3.7960    1.7080    0.0000 C.3     1  LIG1        0.0062
     10 C          -2.9540    1.2210    0.0000 C.3     1  LIG1        0.0644
     11 C           0.4040    1.2210    0.0000 C.3     1  LIG1        0.1593
     12 C           1.2540    1.7080    0.0000 C.2     1  LIG1        0.2522
     13 N           2.1000    1.2210    0.0000 N.am    1  LIG1       -0.1789
     14 C           2.0920    0.2500    0.0000 C.ar    1  LIG1        0.0766
     15 C           2.9380   -0.2380    0.0000 C.ar    1  LIG1        0.0568
     16 C           2.9380   -1.2130    0.0000 C.ar    1  LIG1        0.1777
     17 C           2.0920   -1.6960    0.0000 C.ar    1  LIG1        0.1765
     18 O           2.9460   -3.1670    0.0000 O.3     1  LIG1       -0.4346
     19 C           3.7920   -2.6670    0.0000 C.3     1  LIG1        0.4294
     20 O           3.7920   -1.6920    0.0000 O.3     1  LIG1       -0.4346
     21 C           1.2500   -1.2130    0.0000 C.ar    1  LIG1        0.0415
     22 C           1.2540   -0.2380    0.0000 C.ar    1  LIG1        0.0199
     23 O           1.2540    2.6790    0.0000 O.2     1  LIG1       -0.2727
     24 O           0.4040    3.1710    0.0000 O.2     1  LIG1       -0.2669
@<TRIPOS>BOND
     1     1     2   am
     2     1     6    1
     3     2     3    1
     4     2    24    2
     5     3     4    1
     6     3    11    1
     7     4     5    1
     8     5     6    1
     9     5    10    1
    10     6     7    1
    11     7     8    1
    12     8     9    1
    13     9    10    1
    14    11    12    1
    15    12    13   am
    16    12    23    2
    17    13    14    1
    18    14    15   ar
    19    14    22   ar
    20    15    16   ar
    21    16    17   ar
    22    16    20    1
    23    17    18    1
    24    17    21   ar
    25    18    19    1
    26    19    20    1
    27    21    22   ar
