@<TRIPOS>MOLECULE
33355_ChemDiv_7102-0347
 21 23 0 0 0
SMALL
GASTEIGER
Energy = 0

@<TRIPOS>ATOM
      1 C          -1.3130    2.7500    0.0000 C.2     1  LIG1        0.2991
      2 C          -1.3130    1.7540    0.0000 C.3     1  LIG1        0.2314
      3 C          -0.4380    1.2460    0.0000 C.3     1  LIG1        0.1593
      4 C           0.4170    1.7540    0.0000 C.2     1  LIG1        0.2522
      5 N           1.2920    1.2460    0.0000 N.am    1  LIG1       -0.1789
      6 C           1.2880    0.2500    0.0000 C.ar    1  LIG1        0.0766
      7 C           2.1500   -0.2420    0.0000 C.ar    1  LIG1        0.0566
      8 C           2.1500   -1.2460    0.0000 C.ar    1  LIG1        0.1737
      9 C           1.2880   -1.7380    0.0000 C.ar    1  LIG1        0.1725
     10 O           1.2880   -2.7420    0.0000 O.3     1  LIG1       -0.4684
     11 C           2.1500   -3.2460    0.0000 C.3     1  LIG1        0.2526
     12 C           3.0250   -2.7420    0.0000 C.3     1  LIG1        0.2526
     13 O           3.0250   -1.7380    0.0000 O.3     1  LIG1       -0.4683
     14 C           0.4170   -1.2460    0.0000 C.ar    1  LIG1        0.0414
     15 C           0.4170   -0.2420    0.0000 C.ar    1  LIG1        0.0199
     16 O           0.4290    2.7500    0.0000 O.2     1  LIG1       -0.2727
     17 N          -2.1710    1.2540    0.0000 N.4     1  LIG1        0.4524
     18 C          -3.0290    1.7540    0.0000 C.3     1  LIG1        0.2248
     19 C          -3.0290    2.7500    0.0000 C.3     1  LIG1        0.1839
     20 N          -2.1710    3.2500    0.0000 N.am    1  LIG1       -0.1938
     21 O          -0.4380    3.2500    0.0000 O.2     1  LIG1       -0.2669
@<TRIPOS>BOND
     1     1     2    1
     2     1    20   am
     3     1    21    2
     4     2     3    1
     5     2    17    1
     6     3     4    1
     7     4     5   am
     8     4    16    2
     9     5     6    1
    10     6     7   ar
    11     6    15   ar
    12     7     8   ar
    13     8     9   ar
    14     8    13    1
    15     9    10    1
    16     9    14   ar
    17    10    11    1
    18    11    12    1
    19    12    13    1
    20    14    15   ar
    21    17    18    1
    22    18    19    1
    23    19    20    1
