@<TRIPOS>MOLECULE
33366_ChemDiv_7616-0420
 23 26 0 0 0
SMALL
GASTEIGER
Energy = 0

@<TRIPOS>ATOM
      1 P           0.1790    1.8130    0.0000 P.3     1  LIG1        0.2864
      2 N           1.1710    1.8130    0.0000 N.pl3   1  LIG1       -0.1591
      3 C           1.6630    0.9540    0.0000 C.ar    1  LIG1        0.1848
      4 N           2.6290    0.8630    0.0000 N.ar    1  LIG1       -0.2226
      5 C           2.8380   -0.1040    0.0000 C.ar    1  LIG1        0.0894
      6 C           1.9920   -0.5960    0.0000 C.ar    1  LIG1        0.0506
      7 S           1.2630    0.0750    0.0000 S.2     1  LIG1       -0.0498
      8 C           1.9920   -1.5750    0.0000 C.ar    1  LIG1        0.0195
      9 C           2.8380   -2.0670    0.0000 C.ar    1  LIG1        0.0583
     10 C           3.6960   -1.5750    0.0000 C.ar    1  LIG1        0.0130
     11 C           3.6960   -0.5960    0.0000 C.ar    1  LIG1        0.0205
     12 CL          2.8380   -3.0460    0.0000 Cl      1  LIG1       -0.0822
     13 C          -0.1790    2.7330    0.0000 C.3     1  LIG1        0.2869
     14 O          -1.1130    3.0170    0.0000 O.3     1  LIG1       -0.4625
     15 C          -1.9210    2.4670    0.0000 C.ar    1  LIG1        0.1730
     16 C          -1.9960    1.4920    0.0000 C.ar    1  LIG1        0.1730
     17 O          -1.2830    0.8210    0.0000 O.3     1  LIG1       -0.4625
     18 C          -0.3130    0.9670    0.0000 C.3     1  LIG1        0.2869
     19 C          -2.8790    1.0580    0.0000 C.ar    1  LIG1        0.0401
     20 C          -3.7000    1.6170    0.0000 C.ar    1  LIG1        0.0033
     21 C          -3.6250    2.5830    0.0000 C.ar    1  LIG1        0.0033
     22 C          -2.7330    3.0170    0.0000 C.ar    1  LIG1        0.0401
     23 O           0.9630    3.0500    0.0000 O.2     1  LIG1       -0.2902
@<TRIPOS>BOND
     1     1     2    1
     2     1    13    1
     3     1    18    1
     4     1    23    2
     5     2     3    1
     6     3     4   ar
     7     3     7   ar
     8     4     5   ar
     9     5     6   ar
    10     5    11   ar
    11     6     7   ar
    12     6     8   ar
    13     8     9   ar
    14     9    10   ar
    15     9    12    1
    16    10    11   ar
    17    13    14    1
    18    14    15    1
    19    15    16   ar
    20    15    22   ar
    21    16    17    1
    22    16    19   ar
    23    17    18    1
    24    19    20   ar
    25    20    21   ar
    26    21    22   ar
