@<TRIPOS>MOLECULE
33365_ChemDiv_7287-0980
 28 32 0 0 0
SMALL
GASTEIGER
Energy = 0

@<TRIPOS>ATOM
      1 C1         -0.8170    1.6790    0.0000 C.ar    1  <1>         0.1956
      2 O1         -1.6630    1.1960    0.0000 O.2     1  <1>        -0.4490
      3 C2         -2.5000    1.6790    0.0000 C.ar    1  <1>         0.1470
      4 C3         -2.5000    2.6420    0.0000 C.ar    1  <1>         0.0553
      5 C4         -0.8130    2.6420    0.0000 C.ar    1  <1>         0.1232
      6 N1          0.0170    3.1130    0.0000 N.ar    1  <1>        -0.2207
      7 C5          0.8420    2.6330    0.0000 C.ar    1  <1>         0.2003
      8 N2          0.8420    1.6630    0.0000 N.ar    1  <1>        -0.2043
      9 C6          0.0170    1.1960    0.0000 C.ar    1  <1>         0.1859
     10 N3          0.0130    0.2170    0.0000 N.pl3   1  <1>        -0.2134
     11 C7          0.8670   -0.2790    0.0000 C.3     1  <1>         0.1345
     12 C8          0.8670   -1.2710    0.0000 C.2     1  <1>         0.0705
     13 O2          1.7330   -1.7670    0.0000 O.co2   1  <1>        -0.5474
     14 O3          0.0170   -1.7710    0.0000 O.co2   1  <1>        -0.5474
     15 C9          1.7250    0.2250    0.0000 C.3     1  <1>         0.0553
     16 C10         2.5830   -0.2750    0.0000 C.ar    1  <1>         0.0005
     17 C11         3.4920    0.1420    0.0000 C.ar    1  <1>         0.0946
     18 N4          4.1580   -0.5960    0.0000 N.ar    1  <1>        -0.2442
     19 C12         3.6580   -1.4540    0.0000 C.ar    1  <1>         0.0810
     20 C13         2.6960   -1.2540    0.0000 C.ar    1  <1>         0.0152
     21 C14         2.0330   -1.9790    0.0000 C.ar    1  <1>         0.0012
     22 C15         2.3330   -2.9290    0.0000 C.ar    1  <1>         0.0001
     23 C16         3.3130   -3.1330    0.0000 C.ar    1  <1>         0.0015
     24 C17         3.9630   -2.3960    0.0000 C.ar    1  <1>         0.0191
     25 C18        -3.3330    3.1380    0.0000 C.ar    1  <1>         0.0046
     26 C19        -4.1630    2.6420    0.0000 C.ar    1  <1>         0.0003
     27 C20        -4.1630    1.6790    0.0000 C.ar    1  <1>         0.0031
     28 C21        -3.3330    1.1960    0.0000 C.ar    1  <1>         0.0375
@<TRIPOS>BOND
     1     1     2   ar
     2     1     5   ar
     3     1     9   ar
     4     2     3   ar
     5     3     4   ar
     6     3    28   ar
     7     4     5   ar
     8     4    25   ar
     9     5     6   ar
    10     6     7   ar
    11     7     8   ar
    12     8     9   ar
    13     9    10    1
    14    10    11    1
    15    11    12    1
    16    11    15    1
    17    12    13   ar
    18    12    14   ar
    19    15    16    1
    20    16    17   ar
    21    16    20   ar
    22    17    18   ar
    23    18    19   ar
    24    19    20   ar
    25    19    24   ar
    26    20    21   ar
    27    21    22   ar
    28    22    23   ar
    29    23    24   ar
    30    25    26   ar
    31    26    27   ar
    32    27    28   ar
