@<TRIPOS>MOLECULE
33360_ChemDiv_K788-8749
 36 40 0 0 0
SMALL
GASTEIGER
Energy = 0

@<TRIPOS>ATOM
      1 C          -1.9960    0.4960    0.0000 C.ar    1  LIG1        0.2288
      2 N          -1.9000    1.4920    0.0000 N.ar    1  LIG1       -0.2071
      3 C          -0.9170    1.7040    0.0000 C.ar    1  LIG1        0.1489
      4 C          -0.4170    0.8380    0.0000 C.ar    1  LIG1        0.1442
      5 O          -1.0790    0.1000    0.0000 O.2     1  LIG1       -0.4390
      6 C           0.5790    0.7330    0.0000 C.3     1  LIG1        0.0741
      7 C          -0.5080    2.6170    0.0000 C.3     1  LIG1        0.1884
      8 N           0.4830    2.7250    0.0000 N.4     1  LIG1        0.3820
      9 C           1.0710    1.9170    0.0000 C.3     1  LIG1        0.1396
     10 C           2.0540    2.0210    0.0000 C.3     1  LIG1        0.0720
     11 C           2.4670    2.9330    0.0000 C.3     1  LIG1        0.0900
     12 C           3.4670    3.0420    0.0000 C.2     1  LIG1        0.2413
     13 N           4.0500    2.2380    0.0000 N.am    1  LIG1       -0.2068
     14 C           3.6500    1.3170    0.0000 C.3     1  LIG1        0.1072
     15 C           4.2380    0.5130    0.0000 C.3     1  LIG1        0.0845
     16 C           3.8330   -0.4000    0.0000 C.3     1  LIG1        0.1408
     17 N           2.8290   -0.5080    0.0000 N.4     1  LIG1        0.3808
     18 C           2.4210   -1.4170    0.0000 C.3     1  LIG1        0.1662
     19 C           3.0040   -2.2330    0.0000 C.ar    1  LIG1        0.0344
     20 C           2.5880   -3.1380    0.0000 C.ar    1  LIG1        0.0014
     21 C           3.1710   -3.9500    0.0000 C.ar    1  LIG1       -0.0001
     22 C           4.1750   -3.8540    0.0000 C.ar    1  LIG1       -0.0000
     23 C           4.5830   -2.9330    0.0000 C.ar    1  LIG1       -0.0001
     24 C           3.9920   -2.1250    0.0000 C.ar    1  LIG1        0.0014
     25 C           2.2460    0.3130    0.0000 C.3     1  LIG1        0.1408
     26 C           2.6500    1.2210    0.0000 C.3     1  LIG1        0.0845
     27 O           3.8710    3.9540    0.0000 O.2     1  LIG1       -0.2734
     28 C           1.8710    3.7420    0.0000 C.3     1  LIG1        0.0720
     29 C           0.8750    3.6330    0.0000 C.3     1  LIG1        0.1396
     30 C          -2.8540   -0.0080    0.0000 C.ar    1  LIG1        0.0496
     31 C          -3.7210    0.4960    0.0000 C.ar    1  LIG1       -0.0173
     32 C          -3.7380    1.4920    0.0000 C.3     1  LIG1        0.0312
     33 C          -4.5880   -0.0080    0.0000 C.ar    1  LIG1       -0.0041
     34 C          -4.5880   -1.0080    0.0000 C.ar    1  LIG1       -0.0003
     35 C          -3.7210   -1.5080    0.0000 C.ar    1  LIG1        0.0001
     36 C          -2.8540   -1.0080    0.0000 C.ar    1  LIG1        0.0043
@<TRIPOS>BOND
     1     1     2   ar
     2     1     5   ar
     3     1    30    1
     4     2     3   ar
     5     3     4   ar
     6     3     7    1
     7     4     5   ar
     8     4     6    1
     9     7     8    1
    10     8     9    1
    11     8    29    1
    12     9    10    1
    13    10    11    1
    14    11    12    1
    15    11    28    1
    16    12    13   am
    17    12    27    2
    18    13    14    1
    19    14    15    1
    20    14    26    1
    21    15    16    1
    22    16    17    1
    23    17    18    1
    24    17    25    1
    25    18    19    1
    26    19    20   ar
    27    19    24   ar
    28    20    21   ar
    29    21    22   ar
    30    22    23   ar
    31    23    24   ar
    32    25    26    1
    33    28    29    1
    34    30    31   ar
    35    30    36   ar
    36    31    32    1
    37    31    33   ar
    38    33    34   ar
    39    34    35   ar
    40    35    36   ar
