@<TRIPOS>MOLECULE
33364_ChemDiv_7612-0044
 23 25 0 0 0
SMALL
GASTEIGER
Energy = 0

@<TRIPOS>ATOM
      1 C          -1.9080    1.2210    0.0000 C.ar    1  LIG1        0.0292
      2 C          -1.9080    0.2170    0.0000 C.ar    1  LIG1        0.0292
      3 C          -0.9710   -0.0790    0.0000 C.ar    1  LIG1        0.0386
      4 N          -0.3710    0.7210    0.0000 N.ar    1  LIG1       -0.3320
      5 C          -0.9710    1.5540    0.0000 C.ar    1  LIG1        0.0386
      6 C          -0.4710    2.4210    0.0000 C.3     1  LIG1        0.0500
      7 C           0.6290    0.7210    0.0000 C.3     1  LIG1        0.1074
      8 C           1.1330   -0.1460    0.0000 C.ar    1  LIG1       -0.0016
      9 C           0.6290   -0.9790    0.0000 C.ar    1  LIG1        0.0006
     10 C           1.1330   -1.8460    0.0000 C.ar    1  LIG1        0.0366
     11 C           2.1330   -1.8460    0.0000 C.ar    1  LIG1        0.1387
     12 C           2.6380   -0.9790    0.0000 C.ar    1  LIG1        0.0366
     13 C           2.1330   -0.1460    0.0000 C.ar    1  LIG1        0.0006
     14 O           2.6380   -2.7210    0.0000 O.3     1  LIG1       -0.4714
     15 C           3.6420   -2.7210    0.0000 C.3     1  LIG1        0.2525
     16 C           1.1330    1.5880    0.0000 C.3     1  LIG1        0.0294
     17 C          -0.4710   -0.9500    0.0000 C.3     1  LIG1        0.0500
     18 C          -2.7750   -0.2790    0.0000 C.ar    1  LIG1        0.0820
     19 N          -3.6460    0.2170    0.0000 N.ar    1  LIG1       -0.1526
     20 N          -3.6460    1.2210    0.0000 N.ar    1  LIG1       -0.1526
     21 C          -2.7750    1.7250    0.0000 C.ar    1  LIG1        0.0820
     22 C          -2.7750    2.7250    0.0000 C.3     1  LIG1        0.0540
     23 C          -2.7750   -1.2830    0.0000 C.3     1  LIG1        0.0540
@<TRIPOS>BOND
     1     1     2   ar
     2     1     5   ar
     3     1    21   ar
     4     2     3   ar
     5     2    18   ar
     6     3     4   ar
     7     3    17    1
     8     4     5   ar
     9     4     7    1
    10     5     6    1
    11     7     8    1
    12     7    16    1
    13     8     9   ar
    14     8    13   ar
    15     9    10   ar
    16    10    11   ar
    17    11    12   ar
    18    11    14    1
    19    12    13   ar
    20    14    15    1
    21    18    19   ar
    22    18    23    1
    23    19    20   ar
    24    20    21   ar
    25    21    22    1
