@<TRIPOS>MOLECULE
33367_ChemDiv_7297-0012
 17 18 0 0 0
SMALL
GASTEIGER
Energy = 0

@<TRIPOS>ATOM
      1 N           1.7040   -0.0920    0.0000 N.ar    1  LIG1       -0.2063
      2 C           2.6460   -0.4210    0.0000 C.ar    1  LIG1        0.1978
      3 N           2.6460   -1.4170    0.0000 N.ar    1  LIG1       -0.1817
      4 S           1.6880   -1.7170    0.0000 S.2     1  LIG1        0.0412
      5 C           1.1040   -0.8920    0.0000 C.ar    1  LIG1        0.1562
      6 S           0.1040   -0.8880    0.0000 S.3     1  LIG1       -0.0821
      7 C          -0.3880   -0.0170    0.0000 C.3     1  LIG1        0.0949
      8 C          -1.3880   -0.0040    0.0000 C.ar    1  LIG1        0.0430
      9 C          -1.8750    0.8710    0.0000 C.ar    1  LIG1        0.1693
     10 N          -2.8790    0.8790    0.0000 N.ar    1  LIG1       -0.2130
     11 C          -3.3830    0.0170    0.0000 C.ar    1  LIG1        0.1411
     12 N          -2.8960   -0.8580    0.0000 N.ar    1  LIG1       -0.2294
     13 C          -1.8880   -0.8630    0.0000 C.ar    1  LIG1        0.0997
     14 C          -4.3790    0.0290    0.0000 C.3     1  LIG1        0.0737
     15 N          -1.3710    1.7210    0.0000 N.pl3   1  LIG1       -0.1074
     16 S           3.5170    0.0710    0.0000 S.3     1  LIG1       -0.0742
     17 C           4.3750   -0.4420    0.0000 C.3     1  LIG1        0.0772
@<TRIPOS>BOND
     1     1     2   ar
     2     1     5   ar
     3     2     3   ar
     4     2    16    1
     5     3     4   ar
     6     4     5   ar
     7     5     6    1
     8     6     7    1
     9     7     8    1
    10     8     9   ar
    11     8    13   ar
    12     9    10   ar
    13     9    15    1
    14    10    11   ar
    15    11    12   ar
    16    11    14    1
    17    12    13   ar
    18    16    17    1
