@<TRIPOS>MOLECULE
33362_ChemDiv_7599-1992
 15 16 0 0 0
SMALL
GASTEIGER
Energy = 0

@<TRIPOS>ATOM
      1 C           0.3790    0.6130    0.0000 C.ar    1  LIG1        0.1766
      2 O           1.2000    0.0210    0.0000 O.2     1  LIG1       -0.3537
      3 N           2.0040    0.6130    0.0000 N.ar    1  LIG1       -0.0813
      4 C           1.6920    1.5750    0.0000 C.ar    1  LIG1        0.1011
      5 C           0.6920    1.5750    0.0000 C.ar    1  LIG1        0.0581
      6 C           2.2880    2.3750    0.0000 C.3     1  LIG1        0.0557
      7 C          -0.5710    0.3040    0.0000 C.ar    1  LIG1        0.0383
      8 C          -0.5710   -0.7040    0.0000 C.ar    1  LIG1        0.0170
      9 C           0.1420   -1.4040    0.0000 C.2     1  LIG1        0.0730
     10 O           1.1040   -1.1460    0.0000 O.co2   1  LIG1       -0.5446
     11 O          -0.1210   -2.3710    0.0000 O.co2   1  LIG1       -0.5446
     12 C          -1.4380   -1.1960    0.0000 C.ar    1  LIG1        0.0012
     13 C          -2.2920   -0.7040    0.0000 C.ar    1  LIG1        0.0000
     14 C          -2.2920    0.2960    0.0000 C.ar    1  LIG1        0.0001
     15 C          -1.4380    0.8040    0.0000 C.ar    1  LIG1        0.0032
@<TRIPOS>BOND
     1     1     2   ar
     2     1     5   ar
     3     1     7    1
     4     2     3   ar
     5     3     4   ar
     6     4     5   ar
     7     4     6    1
     8     7     8   ar
     9     7    15   ar
    10     8     9    1
    11     8    12   ar
    12     9    10   ar
    13     9    11   ar
    14    12    13   ar
    15    13    14   ar
    16    14    15   ar
