@<TRIPOS>MOLECULE
33368_ChemDiv_7616-0509
 26 29 0 0 0
SMALL
GASTEIGER
Energy = 0

@<TRIPOS>ATOM
      1 P          -0.9960    1.1920    0.0000 P.3     1  LIG1        0.2549
      2 N          -0.2710    0.5380    0.0000 N.3     1  LIG1       -0.2221
      3 C          -0.2710   -0.4580    0.0000 C.3     1  LIG1        0.0999
      4 C           0.5790   -0.9420    0.0000 C.3     1  LIG1        0.1085
      5 N           1.4290   -0.4580    0.0000 N.pl3   1  LIG1       -0.3046
      6 C           2.2790   -0.9420    0.0000 C.ar    1  LIG1        0.0489
      7 C           3.1380   -0.4580    0.0000 C.ar    1  LIG1        0.0282
      8 C           3.9880   -0.9460    0.0000 C.ar    1  LIG1        0.0863
      9 C           3.9880   -1.9290    0.0000 C.ar    1  LIG1        0.1507
     10 C           3.1380   -2.4290    0.0000 C.ar    1  LIG1        0.0318
     11 C           2.2790   -1.9290    0.0000 C.ar    1  LIG1        0.0169
     12 F           4.8630   -2.4290    0.0000 F       1  LIG1       -0.2033
     13 CL          4.8500   -0.4420    0.0000 Cl      1  LIG1       -0.0799
     14 C           1.4290    0.5250    0.0000 C.3     1  LIG1        0.1085
     15 C           0.5790    1.0250    0.0000 C.3     1  LIG1        0.0999
     16 C          -1.4790    0.3540    0.0000 C.3     1  LIG1        0.2821
     17 O          -2.4580    0.2040    0.0000 O.3     1  LIG1       -0.4629
     18 C          -3.1710    0.8750    0.0000 C.ar    1  LIG1        0.1730
     19 C          -3.0960    1.8380    0.0000 C.ar    1  LIG1        0.1730
     20 O          -2.2920    2.4000    0.0000 O.3     1  LIG1       -0.4629
     21 C          -1.3540    2.1130    0.0000 C.3     1  LIG1        0.2821
     22 C          -3.9130    2.4000    0.0000 C.ar    1  LIG1        0.0401
     23 C          -4.7920    1.9670    0.0000 C.ar    1  LIG1        0.0033
     24 C          -4.8670    0.9960    0.0000 C.ar    1  LIG1        0.0033
     25 C          -4.0500    0.4460    0.0000 C.ar    1  LIG1        0.0401
     26 O          -0.2250    2.4330    0.0000 O.2     1  LIG1       -0.2955
@<TRIPOS>BOND
     1     1     2    1
     2     1    16    1
     3     1    21    1
     4     1    26    2
     5     2     3    1
     6     2    15    1
     7     3     4    1
     8     4     5    1
     9     5     6    1
    10     5    14    1
    11     6     7   ar
    12     6    11   ar
    13     7     8   ar
    14     8     9   ar
    15     8    13    1
    16     9    10   ar
    17     9    12    1
    18    10    11   ar
    19    14    15    1
    20    16    17    1
    21    17    18    1
    22    18    19   ar
    23    18    25   ar
    24    19    20    1
    25    19    22   ar
    26    20    21    1
    27    22    23   ar
    28    23    24   ar
    29    24    25   ar
