@<TRIPOS>MOLECULE
33373_ChemDiv_7352-0070
 18 20 0 0 0
SMALL
GASTEIGER
Energy = 0

@<TRIPOS>ATOM
      1 N          -1.0960   -0.3040    0.0000 N.ar    1  LIG1       -0.2876
      2 C          -1.5920    0.5670    0.0000 C.ar    1  LIG1        0.1800
      3 N          -2.5710    0.3580    0.0000 N.ar    1  LIG1       -0.2239
      4 C          -2.6830   -0.6380    0.0000 C.ar    1  LIG1        0.0988
      5 C          -1.7710   -1.0500    0.0000 C.ar    1  LIG1        0.0805
      6 C          -1.6710   -2.0420    0.0000 C.ar    1  LIG1        0.0188
      7 C          -2.4830   -2.6210    0.0000 C.ar    1  LIG1        0.0016
      8 C          -3.4040   -2.2130    0.0000 C.ar    1  LIG1        0.0016
      9 C          -3.5000   -1.2170    0.0000 C.ar    1  LIG1        0.0206
     10 C          -0.1000   -0.4170    0.0000 C.3     1  LIG1        0.2379
     11 N           0.4960    0.4000    0.0000 N.ar    1  LIG1       -0.2260
     12 N           1.4920    0.4000    0.0000 N.ar    1  LIG1       -0.1663
     13 C           1.8040    1.3500    0.0000 C.ar    1  LIG1        0.1164
     14 C           0.9920    1.9290    0.0000 C.ar    1  LIG1        0.0423
     15 C           0.1920    1.3420    0.0000 C.ar    1  LIG1        0.0989
     16 C           2.7540    1.6540    0.0000 C.2     1  LIG1        0.0922
     17 O           3.4960    0.9790    0.0000 O.co2   1  LIG1       -0.5430
     18 O           2.9670    2.6250    0.0000 O.co2   1  LIG1       -0.5430
@<TRIPOS>BOND
     1     1     2   ar
     2     1     5   ar
     3     1    10    1
     4     2     3   ar
     5     3     4   ar
     6     4     5   ar
     7     4     9   ar
     8     5     6   ar
     9     6     7   ar
    10     7     8   ar
    11     8     9   ar
    12    10    11    1
    13    11    12   ar
    14    11    15   ar
    15    12    13   ar
    16    13    14   ar
    17    13    16    1
    18    14    15   ar
    19    16    17   ar
    20    16    18   ar
