@<TRIPOS>MOLECULE
33372_ChemDiv_C736-0016
 20 23 0 0 0
SMALL
GASTEIGER
Energy = 0

@<TRIPOS>ATOM
      1 N           0.4290    0.2670    0.0000 N.ar    1  LIG1       -0.1810
      2 C          -0.4330    0.7750    0.0000 C.ar    1  LIG1        0.1694
      3 N          -0.2210    1.7580    0.0000 N.ar    1  LIG1       -0.2100
      4 C           0.7830    1.8630    0.0000 C.ar    1  LIG1        0.1612
      5 N           1.1750    0.9420    0.0000 N.ar    1  LIG1       -0.1465
      6 C           1.2830    2.7210    0.0000 C.3     1  LIG1        0.0756
      7 C          -1.2920    0.2670    0.0000 C.ar    1  LIG1        0.0537
      8 C          -1.2960   -0.7330    0.0000 C.ar    1  LIG1        0.0871
      9 N          -0.4330   -1.2290    0.0000 N.ar    1  LIG1       -0.2135
     10 C           0.4290   -0.7330    0.0000 C.ar    1  LIG1        0.2226
     11 N           1.2880   -1.2170    0.0000 N.pl3   1  LIG1       -0.2781
     12 C           1.2880   -2.2210    0.0000 C.3     1  LIG1        0.0936
     13 C           2.1580   -2.7170    0.0000 C.3     1  LIG1        0.0216
     14 C           3.0210   -2.2080    0.0000 C.3     1  LIG1        0.0035
     15 C           3.0170   -1.2170    0.0000 C.3     1  LIG1        0.0216
     16 C           2.1460   -0.7170    0.0000 C.3     1  LIG1        0.0936
     17 C          -2.1670   -1.2290    0.0000 C.ar    1  LIG1        0.0193
     18 C          -3.0250   -0.7330    0.0000 C.ar    1  LIG1        0.0015
     19 C          -3.0250    0.2670    0.0000 C.ar    1  LIG1        0.0002
     20 C          -2.1670    0.7750    0.0000 C.ar    1  LIG1        0.0046
@<TRIPOS>BOND
     1     1     2   ar
     2     1     5   ar
     3     1    10   ar
     4     2     3   ar
     5     2     7   ar
     6     3     4   ar
     7     4     5   ar
     8     4     6    1
     9     7     8   ar
    10     7    20   ar
    11     8     9   ar
    12     8    17   ar
    13     9    10   ar
    14    10    11    1
    15    11    12    1
    16    11    16    1
    17    12    13    1
    18    13    14    1
    19    14    15    1
    20    15    16    1
    21    17    18   ar
    22    18    19   ar
    23    19    20   ar
