@<TRIPOS>MOLECULE
33371_ChemDiv_7317-3288
 29 34 0 0 0
SMALL
GASTEIGER
Energy = 0

@<TRIPOS>ATOM
      1 N          -0.9170    1.0540    0.0000 N.ar    1  LIG1       -0.2107
      2 C          -1.7920    1.5540    0.0000 C.ar    1  LIG1        0.1637
      3 N          -1.5790    2.5380    0.0000 N.ar    1  LIG1       -0.2250
      4 C          -0.5830    2.6420    0.0000 C.ar    1  LIG1        0.1007
      5 C          -0.1750    1.7330    0.0000 C.ar    1  LIG1        0.1033
      6 C           0.8170    1.6330    0.0000 C.ar    1  LIG1        0.0352
      7 C           1.3920    2.4460    0.0000 C.ar    1  LIG1        0.0496
      8 N           2.3920    2.3380    0.0000 N.pl3   1  LIG1       -0.3027
      9 C           2.8000    1.4290    0.0000 C.3     1  LIG1        0.1231
     10 C           3.7880    1.3250    0.0000 C.3     1  LIG1        0.1636
     11 O           4.3790    2.1420    0.0000 O.3     1  LIG1       -0.3501
     12 C           3.9710    3.0500    0.0000 C.3     1  LIG1        0.1636
     13 C           2.9710    3.1580    0.0000 C.3     1  LIG1        0.1231
     14 C           0.9830    3.3540    0.0000 C.ar    1  LIG1        0.0162
     15 C          -0.0080    3.4500    0.0000 C.ar    1  LIG1        0.0220
     16 C          -2.6460    1.0500    0.0000 C.ar    1  LIG1        0.0373
     17 C          -2.6460    0.0500    0.0000 C.ar    1  LIG1        0.0223
     18 C          -1.7750   -0.4500    0.0000 C.ar    1  LIG1        0.1014
     19 N          -0.9130    0.0540    0.0000 N.ar    1  LIG1       -0.1638
     20 C          -1.7750   -1.4460    0.0000 C.ar    1  LIG1        0.0194
     21 C          -2.6460   -1.9460    0.0000 C.ar    1  LIG1        0.0016
     22 C          -2.6460   -2.9380    0.0000 C.ar    1  LIG1        0.0000
     23 C          -1.7750   -3.4460    0.0000 C.ar    1  LIG1        0.0000
     24 C          -0.9130   -2.9380    0.0000 C.ar    1  LIG1        0.0000
     25 C          -0.9130   -1.9380    0.0000 C.ar    1  LIG1        0.0016
     26 C          -3.5170   -0.4500    0.0000 C.ar    1  LIG1        0.0017
     27 C          -4.3830    0.0500    0.0000 C.ar    1  LIG1        0.0001
     28 C          -4.3830    1.0500    0.0000 C.ar    1  LIG1        0.0001
     29 C          -3.5170    1.5500    0.0000 C.ar    1  LIG1        0.0031
@<TRIPOS>BOND
     1     1     2   ar
     2     1     5   ar
     3     1    19   ar
     4     2     3   ar
     5     2    16   ar
     6     3     4   ar
     7     4     5   ar
     8     4    15   ar
     9     5     6   ar
    10     6     7   ar
    11     7     8    1
    12     7    14   ar
    13     8     9    1
    14     8    13    1
    15     9    10    1
    16    10    11    1
    17    11    12    1
    18    12    13    1
    19    14    15   ar
    20    16    17   ar
    21    16    29   ar
    22    17    18   ar
    23    17    26   ar
    24    18    19   ar
    25    18    20    1
    26    20    21   ar
    27    20    25   ar
    28    21    22   ar
    29    22    23   ar
    30    23    24   ar
    31    24    25   ar
    32    26    27   ar
    33    27    28   ar
    34    28    29   ar
