@<TRIPOS>MOLECULE
33374_ChemDiv_C736-0090
 33 38 0 0 0
SMALL
GASTEIGER
Energy = 0

@<TRIPOS>ATOM
      1 N          -1.3000    1.7500    0.0000 N.ar    1  LIG1       -0.1810
      2 C          -2.1630    2.2540    0.0000 C.ar    1  LIG1        0.1694
      3 N          -1.9500    3.2380    0.0000 N.ar    1  LIG1       -0.2100
      4 C          -0.9500    3.3420    0.0000 C.ar    1  LIG1        0.1612
      5 N          -0.5580    2.4130    0.0000 N.ar    1  LIG1       -0.1465
      6 C          -0.4500    4.1960    0.0000 C.3     1  LIG1        0.0756
      7 C          -3.0290    1.7500    0.0000 C.ar    1  LIG1        0.0537
      8 C          -3.0380    0.7380    0.0000 C.ar    1  LIG1        0.0871
      9 N          -2.1630    0.2380    0.0000 N.ar    1  LIG1       -0.2135
     10 C          -1.3000    0.7380    0.0000 C.ar    1  LIG1        0.2230
     11 N          -0.4380    0.2630    0.0000 N.pl3   1  LIG1       -0.2666
     12 C           0.4210    0.7710    0.0000 C.3     1  LIG1        0.1566
     13 C           1.2920    0.2830    0.0000 C.3     1  LIG1        0.1612
     14 N           1.3040   -0.7130    0.0000 N.4     1  LIG1        0.3820
     15 C           2.1790   -1.2040    0.0000 C.3     1  LIG1        0.1331
     16 C           2.1830   -2.2040    0.0000 C.ar    1  LIG1        0.0328
     17 C           1.3290   -2.7130    0.0000 C.ar    1  LIG1        0.0016
     18 C           1.3460   -3.7000    0.0000 C.ar    1  LIG1       -0.0001
     19 C           2.2130   -4.1960    0.0000 C.ar    1  LIG1       -0.0000
     20 C           3.0750   -3.6790    0.0000 C.ar    1  LIG1       -0.0001
     21 C           3.0630   -2.6880    0.0000 C.ar    1  LIG1        0.0016
     22 C           3.0290   -0.6880    0.0000 C.ar    1  LIG1        0.0328
     23 C           3.9040   -1.1830    0.0000 C.ar    1  LIG1        0.0016
     24 C           4.7670   -0.6750    0.0000 C.ar    1  LIG1       -0.0001
     25 C           4.7500    0.3250    0.0000 C.ar    1  LIG1       -0.0000
     26 C           3.8750    0.8130    0.0000 C.ar    1  LIG1       -0.0001
     27 C           3.0170    0.3000    0.0000 C.ar    1  LIG1        0.0016
     28 C           0.4420   -1.2290    0.0000 C.3     1  LIG1        0.1612
     29 C          -0.4210   -0.7330    0.0000 C.3     1  LIG1        0.1566
     30 C          -3.9040    0.2380    0.0000 C.ar    1  LIG1        0.0193
     31 C          -4.7710    0.7380    0.0000 C.ar    1  LIG1        0.0015
     32 C          -4.7710    1.7500    0.0000 C.ar    1  LIG1        0.0002
     33 C          -3.9040    2.2460    0.0000 C.ar    1  LIG1        0.0046
@<TRIPOS>BOND
     1     1     2   ar
     2     1     5   ar
     3     1    10   ar
     4     2     3   ar
     5     2     7   ar
     6     3     4   ar
     7     4     5   ar
     8     4     6    1
     9     7     8   ar
    10     7    33   ar
    11     8     9   ar
    12     8    30   ar
    13     9    10   ar
    14    10    11    1
    15    11    12    1
    16    11    29    1
    17    12    13    1
    18    13    14    1
    19    14    15    1
    20    14    28    1
    21    15    16    1
    22    15    22    1
    23    16    17   ar
    24    16    21   ar
    25    17    18   ar
    26    18    19   ar
    27    19    20   ar
    28    20    21   ar
    29    22    23   ar
    30    22    27   ar
    31    23    24   ar
    32    24    25   ar
    33    25    26   ar
    34    26    27   ar
    35    28    29    1
    36    30    31   ar
    37    31    32   ar
    38    32    33   ar
