@<TRIPOS>MOLECULE
33378_ChemDiv_8009-2051
 20 22 0 0 0
SMALL
GASTEIGER
Energy = 0

@<TRIPOS>ATOM
      1 C           1.3040    0.0790    0.0000 C.ar    1  LIG1        0.1052
      2 C           0.4750   -0.5080    0.0000 C.ar    1  LIG1        0.0419
      3 C          -0.3250    0.1040    0.0000 C.ar    1  LIG1        0.1075
      4 N          -0.0330    1.0420    0.0000 N.ar    1  LIG1       -0.1478
      5 N           0.9830    1.0420    0.0000 N.ar    1  LIG1       -0.1479
      6 C          -1.2830   -0.1540    0.0000 C.ar    1  LIG1        0.0583
      7 C          -2.0290    0.5250    0.0000 C.ar    1  LIG1        0.1968
      8 C          -2.9880    0.2380    0.0000 C.ar    1  LIG1        0.0378
      9 C          -3.2250   -0.7460    0.0000 C.ar    1  LIG1       -0.0187
     10 C          -2.4750   -1.4210    0.0000 C.ar    1  LIG1       -0.0040
     11 C          -1.5210   -1.1290    0.0000 C.ar    1  LIG1        0.0044
     12 C          -4.1790   -1.0500    0.0000 C.3     1  LIG1        0.0311
     13 O          -1.8250    1.5000    0.0000 O.3     1  LIG1       -0.2865
     14 C           2.2460   -0.2170    0.0000 C.ar    1  LIG1        0.0300
     15 C           2.9830    0.4290    0.0000 C.ar    1  LIG1        0.0592
     16 CL          2.7670    1.3920    0.0000 Cl      1  LIG1       -0.0822
     17 C           3.9380    0.1380    0.0000 C.ar    1  LIG1        0.0114
     18 C           4.1750   -0.8210    0.0000 C.ar    1  LIG1        0.0009
     19 C           3.4290   -1.4960    0.0000 C.ar    1  LIG1        0.0001
     20 C           2.4750   -1.1920    0.0000 C.ar    1  LIG1        0.0024
@<TRIPOS>BOND
     1     1     2   ar
     2     1     5   ar
     3     1    14    1
     4     2     3   ar
     5     3     4   ar
     6     3     6    1
     7     4     5   ar
     8     6     7   ar
     9     6    11   ar
    10     7     8   ar
    11     7    13    1
    12     8     9   ar
    13     9    10   ar
    14     9    12    1
    15    10    11   ar
    16    14    15   ar
    17    14    20   ar
    18    15    16    1
    19    15    17   ar
    20    17    18   ar
    21    18    19   ar
    22    19    20   ar
