@<TRIPOS>MOLECULE
33370_ChemDiv_7641-0522
 17 20 0 0 0
SMALL
GASTEIGER
Energy = 0

@<TRIPOS>ATOM
      1 N           0.8670    0.0000    0.0000 N.ar    1  LIG1       -0.1958
      2 C           0.0080    0.4830    0.0000 C.ar    1  LIG1        0.1695
      3 N           0.2130    1.4460    0.0000 N.ar    1  LIG1       -0.1907
      4 C           1.1920    1.5500    0.0000 C.ar    1  LIG1        0.2749
      5 N           1.6000    0.6630    0.0000 N.ar    1  LIG1       -0.1239
      6 N           1.6790    2.4250    0.0000 N.pl3   1  LIG1       -0.0847
      7 C          -0.8540   -0.0170    0.0000 C.ar    1  LIG1        0.0536
      8 C          -0.8540   -1.0080    0.0000 C.ar    1  LIG1        0.0856
      9 N           0.0040   -1.5080    0.0000 N.ar    1  LIG1       -0.2305
     10 C           0.8670   -1.0250    0.0000 C.ar    1  LIG1        0.1418
     11 C           1.7380   -1.5210    0.0000 C.3     1  LIG1        0.0587
     12 C           2.1330   -2.4210    0.0000 C.3     1  LIG1        0.0080
     13 C           2.5830   -1.2960    0.0000 C.3     1  LIG1        0.0080
     14 C          -1.7250   -1.5080    0.0000 C.ar    1  LIG1        0.0192
     15 C          -2.5880   -1.0080    0.0000 C.ar    1  LIG1        0.0015
     16 C          -2.5880   -0.0170    0.0000 C.ar    1  LIG1        0.0002
     17 C          -1.7250    0.4960    0.0000 C.ar    1  LIG1        0.0046
@<TRIPOS>BOND
     1     1     2   ar
     2     1     5   ar
     3     1    10   ar
     4     2     3   ar
     5     2     7   ar
     6     3     4   ar
     7     4     5   ar
     8     4     6    1
     9     7     8   ar
    10     7    17   ar
    11     8     9   ar
    12     8    14   ar
    13     9    10   ar
    14    10    11    1
    15    11    12    1
    16    11    13    1
    17    12    13    1
    18    14    15   ar
    19    15    16   ar
    20    16    17   ar
