@<TRIPOS>MOLECULE
33388_ChemDiv_8009-2390
 31 33 0 0 0
SMALL
GASTEIGER
Energy = 0

@<TRIPOS>ATOM
      1 C           1.0330   -0.3790    0.0000 C.ar    1  LIG1        0.1433
      2 C           1.2540    0.5960    0.0000 C.ar    1  LIG1        0.1417
      3 C           0.4210    1.0830    0.0000 C.ar    1  LIG1        0.1019
      4 N          -0.3460    0.3920    0.0000 N.ar    1  LIG1       -0.2973
      5 C           0.0710   -0.4920    0.0000 C.ar    1  LIG1        0.1219
      6 C          -0.4130   -1.4000    0.0000 C.2     1  LIG1        0.2128
      7 C          -1.4000   -1.4000    0.0000 C.ar    1  LIG1        0.0407
      8 C          -1.9170   -0.5460    0.0000 C.ar    1  LIG1        0.0063
      9 C          -2.9040   -0.5920    0.0000 C.ar    1  LIG1        0.0370
     10 C          -3.3790   -1.4420    0.0000 C.ar    1  LIG1        0.1387
     11 C          -2.9210   -2.2880    0.0000 C.ar    1  LIG1        0.0370
     12 C          -1.8960   -2.2580    0.0000 C.ar    1  LIG1        0.0063
     13 O          -4.3750   -1.4420    0.0000 O.3     1  LIG1       -0.4714
     14 C          -4.8630   -2.2880    0.0000 C.3     1  LIG1        0.2525
     15 O           0.1000   -2.2750    0.0000 O.2     1  LIG1       -0.2850
     16 C          -1.2830    0.6960    0.0000 C.ar    1  LIG1        0.1012
     17 C          -1.5130    1.6710    0.0000 C.ar    1  LIG1        0.1179
     18 N          -0.7630    2.3750    0.0000 N.ar    1  LIG1       -0.2392
     19 C           0.1920    2.0580    0.0000 C.ar    1  LIG1        0.1177
     20 S           2.2170    1.0130    0.0000 S.O2    1  LIG1        0.0114
     21 O           1.8000    1.9290    0.0000 O.2     1  LIG1       -0.1685
     22 O           2.6330    0.0790    0.0000 O.2     1  LIG1       -0.1685
     23 C           3.1330    1.4290    0.0000 C.3     1  LIG1        0.1560
     24 C           3.9540    0.8250    0.0000 C.3     1  LIG1        0.0258
     25 C           4.8580    1.2250    0.0000 C.3     1  LIG1        0.0019
     26 S           1.7290   -1.1210    0.0000 S.O2    1  LIG1        0.0114
     27 O           2.4580   -0.4630    0.0000 O.2     1  LIG1       -0.1685
     28 O           0.9710   -1.7830    0.0000 O.2     1  LIG1       -0.1685
     29 C           2.3920   -1.8710    0.0000 C.3     1  LIG1        0.1560
     30 C           3.3630   -1.6420    0.0000 C.3     1  LIG1        0.0258
     31 C           4.0250   -2.3710    0.0000 C.3     1  LIG1        0.0019
@<TRIPOS>BOND
     1     1     2   ar
     2     1     5   ar
     3     1    26    1
     4     2     3   ar
     5     2    20    1
     6     3     4   ar
     7     3    19   ar
     8     4     5   ar
     9     4    16   ar
    10     5     6    1
    11     6     7    1
    12     6    15    2
    13     7     8   ar
    14     7    12   ar
    15     8     9   ar
    16     9    10   ar
    17    10    11   ar
    18    10    13    1
    19    11    12   ar
    20    13    14    1
    21    16    17   ar
    22    17    18   ar
    23    18    19   ar
    24    20    21    2
    25    20    22    2
    26    20    23    1
    27    23    24    1
    28    24    25    1
    29    26    27    2
    30    26    28    2
    31    26    29    1
    32    29    30    1
    33    30    31    1
