@<TRIPOS>MOLECULE
33380_ChemDiv_8009-2162
 21 23 0 0 0
SMALL
GASTEIGER
Energy = 0

@<TRIPOS>ATOM
      1 P          -0.2250    0.2000    0.0000 P.3     1  LIG1        0.2432
      2 N          -1.1880   -0.0920    0.0000 N.pl3   1  LIG1       -0.1642
      3 C          -1.4460   -1.1170    0.0000 C.ar    1  LIG1        0.1538
      4 N          -0.7380   -1.8250    0.0000 N.ar    1  LIG1       -0.2274
      5 C          -1.0290   -2.7920    0.0000 C.ar    1  LIG1        0.1004
      6 C          -1.9920   -3.0500    0.0000 C.ar    1  LIG1        0.0208
      7 C          -2.6670   -2.3420    0.0000 C.ar    1  LIG1        0.0045
      8 C          -2.4130   -1.3750    0.0000 C.ar    1  LIG1        0.0362
      9 O           0.1000   -0.7670    0.0000 O.2     1  LIG1       -0.2888
     10 C          -0.5130    1.1580    0.0000 C.ar    1  LIG1        0.0510
     11 C          -1.4790    1.3830    0.0000 C.ar    1  LIG1        0.0047
     12 C          -1.7630    2.3460    0.0000 C.ar    1  LIG1        0.0002
     13 C          -1.0920    3.0540    0.0000 C.ar    1  LIG1        0.0000
     14 C          -0.1290    2.8580    0.0000 C.ar    1  LIG1        0.0002
     15 C           0.1630    1.8960    0.0000 C.ar    1  LIG1        0.0047
     16 C           0.7670    0.5130    0.0000 C.ar    1  LIG1        0.0510
     17 C           0.9920    1.4790    0.0000 C.ar    1  LIG1        0.0047
     18 C           1.9250    1.7670    0.0000 C.ar    1  LIG1        0.0002
     19 C           2.6630    1.0960    0.0000 C.ar    1  LIG1        0.0000
     20 C           2.4380    0.1330    0.0000 C.ar    1  LIG1        0.0002
     21 C           1.4750   -0.1580    0.0000 C.ar    1  LIG1        0.0047
@<TRIPOS>BOND
     1     1     2    1
     2     1     9    2
     3     1    10    1
     4     1    16    1
     5     2     3    1
     6     3     4   ar
     7     3     8   ar
     8     4     5   ar
     9     5     6   ar
    10     6     7   ar
    11     7     8   ar
    12    10    11   ar
    13    10    15   ar
    14    11    12   ar
    15    12    13   ar
    16    13    14   ar
    17    14    15   ar
    18    16    17   ar
    19    16    21   ar
    20    17    18   ar
    21    18    19   ar
    22    19    20   ar
    23    20    21   ar
