@<TRIPOS>MOLECULE
33398_ChemDiv_8007-8916
 16 18 0 0 0
SMALL
GASTEIGER
Energy = 0

@<TRIPOS>ATOM
      1 C           1.1210   -0.3210    0.0000 C.ar    1  LIG1        0.0581
      2 C           0.7960    0.6540    0.0000 C.ar    1  LIG1        0.0059
      3 C          -0.2040    0.6540    0.0000 C.ar    1  LIG1        0.0032
      4 C          -0.5040   -0.2670    0.0000 C.ar    1  LIG1        0.0387
      5 C           0.3080   -0.8920    0.0000 C.2     1  LIG1        0.1970
      6 O           0.2830   -1.8960    0.0000 O.2     1  LIG1       -0.2865
      7 C          -1.4750   -0.4830    0.0000 C.ar    1  LIG1       -0.0011
      8 C          -2.1540    0.2460    0.0000 C.ar    1  LIG1       -0.0217
      9 C          -1.8540    1.1710    0.0000 C.ar    1  LIG1       -0.0043
     10 C          -0.8830    1.3880    0.0000 C.ar    1  LIG1       -0.0002
     11 C          -3.1580    0.1170    0.0000 C.3     1  LIG1        0.0310
     12 C           1.4750    1.3880    0.0000 C.ar    1  LIG1        0.0149
     13 C           2.4500    1.1710    0.0000 C.ar    1  LIG1        0.0594
     14 N           2.7500    0.2210    0.0000 N.ar    1  LIG1       -0.2480
     15 C           2.1000   -0.5380    0.0000 C.ar    1  LIG1        0.1016
     16 C           3.1540    1.9000    0.0000 C.3     1  LIG1        0.0521
@<TRIPOS>BOND
     1     1     2   ar
     2     1     5    1
     3     1    15   ar
     4     2     3    1
     5     2    12   ar
     6     3     4   ar
     7     3    10   ar
     8     4     5    1
     9     4     7   ar
    10     5     6    2
    11     7     8   ar
    12     8     9   ar
    13     8    11    1
    14     9    10   ar
    15    12    13   ar
    16    13    14   ar
    17    13    16    1
    18    14    15   ar
