@<TRIPOS>MOLECULE
33390_ChemDiv_8009-2662
 24 27 0 0 0
SMALL
GASTEIGER
Energy = 0

@<TRIPOS>ATOM
      1 C          -0.4420   -1.0540    0.0000 C.ar    1  LIG1        0.2246
      2 N           0.4250   -0.5580    0.0000 N.ar    1  LIG1       -0.1792
      3 C           0.4250    0.4380    0.0000 C.ar    1  LIG1        0.2453
      4 N          -0.4420    0.9290    0.0000 N.ar    1  LIG1       -0.1824
      5 C          -1.3000    0.4380    0.0000 C.ar    1  LIG1        0.2286
      6 N          -1.3000   -0.5580    0.0000 N.ar    1  LIG1       -0.1838
      7 CL         -2.1830    0.9670    0.0000 Cl      1  LIG1       -0.0409
      8 N           1.3170    0.9290    0.0000 N.pl3   1  LIG1       -0.1774
      9 C           1.3170    1.9630    0.0000 C.ar    1  LIG1        0.0768
     10 C           0.4250    2.4580    0.0000 C.ar    1  LIG1        0.0568
     11 C           0.4250    3.4420    0.0000 C.ar    1  LIG1        0.1777
     12 C           1.3170    3.9420    0.0000 C.ar    1  LIG1        0.1765
     13 O           1.0830    4.9290    0.0000 O.3     1  LIG1       -0.4346
     14 C           0.0920    5.0290    0.0000 C.3     1  LIG1        0.4294
     15 O          -0.3040    4.1380    0.0000 O.3     1  LIG1       -0.4346
     16 C           2.1790    3.4420    0.0000 C.ar    1  LIG1        0.0415
     17 C           2.1790    2.4580    0.0000 C.ar    1  LIG1        0.0199
     18 N          -0.4420   -2.0460    0.0000 N.pl3   1  LIG1       -0.2781
     19 C           0.4250   -2.5460    0.0000 C.3     1  LIG1        0.0936
     20 C           0.4250   -3.5330    0.0000 C.3     1  LIG1        0.0216
     21 C          -0.4420   -4.0370    0.0000 C.3     1  LIG1        0.0034
     22 C          -1.3000   -3.5330    0.0000 C.3     1  LIG1        0.0216
     23 C          -1.3000   -2.5460    0.0000 C.3     1  LIG1        0.0936
     24 C          -0.4420   -5.0290    0.0000 C.3     1  LIG1        0.0001
@<TRIPOS>BOND
     1     1     2   ar
     2     1     6   ar
     3     1    18    1
     4     2     3   ar
     5     3     4   ar
     6     3     8    1
     7     4     5   ar
     8     5     6   ar
     9     5     7    1
    10     8     9    1
    11     9    10   ar
    12     9    17   ar
    13    10    11   ar
    14    11    12   ar
    15    11    15    1
    16    12    13    1
    17    12    16   ar
    18    13    14    1
    19    14    15    1
    20    16    17   ar
    21    18    19    1
    22    18    23    1
    23    19    20    1
    24    20    21    1
    25    21    22    1
    26    21    24    1
    27    22    23    1
