@<TRIPOS>MOLECULE
33405_ChemDiv_8005-9542
 21 24 0 0 0
SMALL
GASTEIGER
Energy = 0

@<TRIPOS>ATOM
      1 N           1.8580   -0.3830    0.0000 N.am    1  LIG1       -0.2316
      2 C           1.2540   -1.2290    0.0000 C.2     1  LIG1        0.2316
      3 C           0.2750   -0.8710    0.0000 C.3     1  LIG1        0.0909
      4 C           0.2750    0.0580    0.0000 C.3     1  LIG1        0.0970
      5 C           1.2290    0.4000    0.0000 C.2     1  LIG1        0.2320
      6 O           1.5130    1.3670    0.0000 O.2     1  LIG1       -0.2744
      7 C          -0.6330    0.5880    0.0000 C.3     1  LIG1        0.0886
      8 C          -1.5500   -0.0080    0.0000 C.ar    1  LIG1       -0.0190
      9 C          -1.5500   -0.9040    0.0000 C.ar    1  LIG1       -0.0251
     10 C          -0.6000   -0.3000    0.0000 C.3     1  LIG1        0.0385
     11 C          -1.4500    0.9460    0.0000 C.3     1  LIG1        0.0697
     12 C          -1.0420    1.2000    0.0000 C.2     1  LIG1        0.1551
     13 O          -1.0420    2.2130    0.0000 O.2     1  LIG1       -0.2957
     14 C          -2.4040   -1.4580    0.0000 C.ar    1  LIG1       -0.0046
     15 C          -3.2790   -0.9630    0.0000 C.ar    1  LIG1       -0.0003
     16 C          -3.2790    0.0580    0.0000 C.ar    1  LIG1       -0.0003
     17 C          -2.4040    0.5460    0.0000 C.ar    1  LIG1       -0.0042
     18 O           1.5380   -2.2080    0.0000 O.2     1  LIG1       -0.2745
     19 C           2.7540   -0.3830    0.0000 C.3     1  LIG1        0.0825
     20 C           3.2580   -1.2580    0.0000 C.3     1  LIG1        0.0220
     21 C           3.2750    0.5080    0.0000 C.3     1  LIG1        0.0220
@<TRIPOS>BOND
     1     1     2   am
     2     1     5   am
     3     1    19    1
     4     2     3    1
     5     2    18    2
     6     3     4    1
     7     3    10    1
     8     4     5    1
     9     4     7    1
    10     5     6    2
    11     7     8    1
    12     7    12    1
    13     8     9   ar
    14     8    17   ar
    15     9    10    1
    16     9    14   ar
    17    10    11    1
    18    11    12    1
    19    12    13    2
    20    14    15   ar
    21    15    16   ar
    22    16    17   ar
    23    19    20    1
    24    19    21    1
