@<TRIPOS>MOLECULE
33403_ChemDiv_8005-9464
 30 32 0 0 0
SMALL
GASTEIGER
Energy = 0

@<TRIPOS>ATOM
      1 S          -0.3920   -0.5500    0.0000 S.O2    1  LIG1        0.0770
      2 N          -0.9130    0.3210    0.0000 N.pl3   1  LIG1       -0.1812
      3 C          -0.4170    1.2000    0.0000 C.3     1  LIG1        0.2020
      4 C           0.6080    1.2000    0.0000 C.2     1  LIG1        0.2638
      5 N           1.0250    0.5250    0.0000 N.am    1  LIG1       -0.1991
      6 C           2.0130    0.5420    0.0000 C.3     1  LIG1        0.1415
      7 C           2.4750    1.4080    0.0000 C.ar    1  LIG1       -0.0006
      8 C           3.4630    1.4170    0.0000 C.ar    1  LIG1       -0.0029
      9 C           3.9500    2.2920    0.0000 C.ar    1  LIG1       -0.0045
     10 C           3.4500    3.1630    0.0000 C.ar    1  LIG1       -0.0219
     11 C           2.4540    3.1420    0.0000 C.ar    1  LIG1       -0.0045
     12 C           1.9670    2.2670    0.0000 C.ar    1  LIG1       -0.0029
     13 C           3.9380    4.0290    0.0000 C.3     1  LIG1        0.0310
     14 O           1.0710    2.0960    0.0000 O.2     1  LIG1       -0.2714
     15 C          -1.9460    0.3210    0.0000 C.ar    1  LIG1        0.0702
     16 C          -2.4420   -0.5500    0.0000 C.ar    1  LIG1        0.0275
     17 C          -3.4500   -0.5500    0.0000 C.ar    1  LIG1        0.0590
     18 CL         -3.9380   -1.4040    0.0000 Cl      1  LIG1       -0.0822
     19 C          -3.9540    0.3460    0.0000 C.ar    1  LIG1        0.0115
     20 C          -3.4500    1.2210    0.0000 C.ar    1  LIG1        0.0022
     21 C          -2.4420    1.2000    0.0000 C.ar    1  LIG1        0.0162
     22 C           0.1080   -1.4420    0.0000 C.ar    1  LIG1        0.1254
     23 C           1.1420   -1.4210    0.0000 C.ar    1  LIG1        0.0199
     24 C           1.6380   -2.3000    0.0000 C.ar    1  LIG1       -0.0029
     25 C           1.1420   -3.1710    0.0000 C.ar    1  LIG1       -0.0218
     26 C           0.1290   -3.1710    0.0000 C.ar    1  LIG1       -0.0029
     27 C          -0.3920   -2.3000    0.0000 C.ar    1  LIG1        0.0199
     28 C           1.6380   -4.0290    0.0000 C.3     1  LIG1        0.0310
     29 O           0.4710   -0.0460    0.0000 O.2     1  LIG1       -0.1497
     30 O          -1.2790   -1.0830    0.0000 O.2     1  LIG1       -0.1497
@<TRIPOS>BOND
     1     1     2    1
     2     1    22    1
     3     1    29    2
     4     1    30    2
     5     2     3    1
     6     2    15    1
     7     3     4    1
     8     4     5   am
     9     4    14    2
    10     5     6    1
    11     6     7    1
    12     7     8   ar
    13     7    12   ar
    14     8     9   ar
    15     9    10   ar
    16    10    11   ar
    17    10    13    1
    18    11    12   ar
    19    15    16   ar
    20    15    21   ar
    21    16    17   ar
    22    17    18    1
    23    17    19   ar
    24    19    20   ar
    25    20    21   ar
    26    22    23   ar
    27    22    27   ar
    28    23    24   ar
    29    24    25   ar
    30    25    26   ar
    31    25    28    1
    32    26    27   ar
