@<TRIPOS>MOLECULE
33409_ChemDiv_8002-4132
 32 35 0 0 0
SMALL
GASTEIGER
Energy = 0

@<TRIPOS>ATOM
      1 C           0.2330    0.2040    0.0000 C.ar    1  LIG1        0.1432
      2 C          -0.3460    1.0420    0.0000 C.ar    1  LIG1        0.1402
      3 C          -1.2960    0.7380    0.0000 C.ar    1  LIG1        0.0825
      4 N          -1.2960   -0.2790    0.0000 N.ar    1  LIG1       -0.2999
      5 C          -0.3460   -0.5880    0.0000 C.ar    1  LIG1        0.1218
      6 C          -0.0330   -1.5630    0.0000 C.2     1  LIG1        0.2128
      7 C           0.9420   -1.7880    0.0000 C.ar    1  LIG1        0.0405
      8 C           1.2380   -2.7420    0.0000 C.ar    1  LIG1        0.0041
      9 C           2.2580   -2.9540    0.0000 C.ar    1  LIG1        0.0115
     10 C           2.9040   -2.2170    0.0000 C.ar    1  LIG1        0.0577
     11 C           2.5920   -1.2420    0.0000 C.ar    1  LIG1        0.0115
     12 C           1.6040   -1.0460    0.0000 C.ar    1  LIG1        0.0041
     13 CL          3.8630   -2.4460    0.0000 Cl      1  LIG1       -0.0822
     14 O          -0.6790   -2.3170    0.0000 O.2     1  LIG1       -0.2850
     15 C          -2.1540   -0.7670    0.0000 C.ar    1  LIG1        0.0802
     16 C          -3.0080   -0.2790    0.0000 C.ar    1  LIG1        0.0190
     17 C          -3.0080    0.7380    0.0000 C.ar    1  LIG1        0.0029
     18 C          -2.1420    1.2040    0.0000 C.ar    1  LIG1        0.0175
     19 C          -2.1420    2.2500    0.0000 C.ar    1  LIG1        0.0015
     20 C          -3.0080    2.7080    0.0000 C.ar    1  LIG1        0.0000
     21 C          -3.8670    2.2500    0.0000 C.ar    1  LIG1        0.0000
     22 C          -3.8670    1.2500    0.0000 C.ar    1  LIG1        0.0001
     23 S          -0.0330    2.0170    0.0000 S.O2    1  LIG1        0.0113
     24 O           0.9420    1.7080    0.0000 O.2     1  LIG1       -0.1685
     25 O          -0.9710    2.3290    0.0000 O.2     1  LIG1       -0.1685
     26 C           0.2920    2.9580    0.0000 C.3     1  LIG1        0.1561
     27 C           1.2830    2.9580    0.0000 C.3     1  LIG1        0.0276
     28 S           1.2380    0.2040    0.0000 S.O2    1  LIG1        0.0114
     29 O           1.2380   -0.7670    0.0000 O.2     1  LIG1       -0.1685
     30 O           1.2380    1.2210    0.0000 O.2     1  LIG1       -0.1685
     31 C           2.2380    0.2040    0.0000 C.3     1  LIG1        0.1561
     32 C           2.7250    1.0710    0.0000 C.3     1  LIG1        0.0276
@<TRIPOS>BOND
     1     1     2   ar
     2     1     5   ar
     3     1    28    1
     4     2     3   ar
     5     2    23    1
     6     3     4   ar
     7     3    18   ar
     8     4     5   ar
     9     4    15   ar
    10     5     6    1
    11     6     7    1
    12     6    14    2
    13     7     8   ar
    14     7    12   ar
    15     8     9   ar
    16     9    10   ar
    17    10    11   ar
    18    10    13    1
    19    11    12   ar
    20    15    16   ar
    21    16    17   ar
    22    17    18   ar
    23    17    22   ar
    24    18    19   ar
    25    19    20   ar
    26    20    21   ar
    27    21    22   ar
    28    23    24    2
    29    23    25    2
    30    23    26    1
    31    26    27    1
    32    28    29    2
    33    28    30    2
    34    28    31    1
    35    31    32    1
