@<TRIPOS>MOLECULE
33400_ChemDiv_8008-0513
 23 24 0 0 0
SMALL
GASTEIGER
Energy = 0

@<TRIPOS>ATOM
      1 S          -0.8130    0.7210    0.0000 S.O2    1  LIG1       -0.0110
      2 C          -1.6540    0.2080    0.0000 C.3     1  LIG1        0.1374
      3 C          -2.4540    0.6630    0.0000 C.3     1  LIG1        0.0442
      4 C          -3.2460    0.1880    0.0000 C.2     1  LIG1       -0.0293
      5 C          -3.2460   -0.7330    0.0000 C.2     1  LIG1       -0.0306
      6 C          -2.4540   -0.3460    0.0000 C.3     1  LIG1        0.0278
      7 C          -1.6540   -0.7330    0.0000 C.3     1  LIG1        0.0496
      8 C          -1.1540   -1.5790    0.0000 C.2     1  LIG1       -0.0048
      9 C          -0.1920   -1.5670    0.0000 C.2     1  LIG1        0.1181
     10 S           0.2750   -0.6960    0.0000 S.O2    1  LIG1        0.0096
     11 O           0.5580   -1.6710    0.0000 O.2     1  LIG1       -0.1686
     12 O          -0.0210    0.2330    0.0000 O.2     1  LIG1       -0.1686
     13 C           0.7250    0.1290    0.0000 C.3     1  LIG1        0.1560
     14 C           1.7130    0.2000    0.0000 C.3     1  LIG1        0.0258
     15 C           2.2330   -0.6290    0.0000 C.3     1  LIG1        0.0018
     16 C           3.2420   -0.6170    0.0000 C.3     1  LIG1        0.0001
     17 C          -2.8500    1.4330    0.0000 C.3     1  LIG1        0.0108
     18 O          -0.5790    1.6750    0.0000 O.2     1  LIG1       -0.1730
     19 O          -1.0380   -0.2670    0.0000 O.2     1  LIG1       -0.1730
     20 C           0.0380    1.2540    0.0000 C.3     1  LIG1        0.1508
     21 C           0.9210    0.7880    0.0000 C.3     1  LIG1        0.0253
     22 C           1.7670    1.3460    0.0000 C.3     1  LIG1        0.0018
     23 C           2.6540    0.8790    0.0000 C.3     1  LIG1        0.0001
@<TRIPOS>BOND
     1     1     2    1
     2     1    18    2
     3     1    19    2
     4     1    20    1
     5     2     3    1
     6     2     7    1
     7     3     4    1
     8     3    17    1
     9     4     5    2
    10     5     6    1
    11     6     7    1
    12     6    17    1
    13     7     8    1
    14     8     9    2
    15     9    10    1
    16    10    11    2
    17    10    12    2
    18    10    13    1
    19    13    14    1
    20    14    15    1
    21    15    16    1
    22    20    21    1
    23    21    22    1
    24    22    23    1
