@<TRIPOS>MOLECULE
33413_ChemDiv_8002-4773
 20 22 0 0 0
SMALL
GASTEIGER
Energy = 0

@<TRIPOS>ATOM
      1 N          -0.1960   -1.0880    0.0000 N.ar    1  LIG1       -0.2422
      2 C           0.3710   -1.8960    0.0000 C.ar    1  LIG1        0.4233
      3 O          -0.1960   -2.6540    0.0000 O.2     1  LIG1       -0.4067
      4 C          -1.1330   -2.3580    0.0000 C.ar    1  LIG1        0.1669
      5 C          -1.1330   -1.3880    0.0000 C.ar    1  LIG1        0.1016
      6 C          -2.0080   -0.8750    0.0000 C.ar    1  LIG1        0.0214
      7 C          -2.8830   -1.3880    0.0000 C.ar    1  LIG1        0.0131
      8 C          -2.8830   -2.3580    0.0000 C.ar    1  LIG1        0.0608
      9 C          -2.0080   -2.8710    0.0000 C.ar    1  LIG1        0.0505
     10 CL         -3.7670   -2.8710    0.0000 Cl      1  LIG1       -0.0821
     11 O           1.4040   -1.8960    0.0000 O.2     1  LIG1       -0.2226
     12 C           0.1460   -0.1040    0.0000 C.3     1  LIG1        0.2264
     13 N           1.1420    0.0630    0.0000 N.pl3   1  LIG1       -0.2130
     14 C           1.4500    1.0000    0.0000 C.ar    1  LIG1        0.0672
     15 C           2.4460    1.1710    0.0000 C.ar    1  LIG1        0.0119
     16 C           2.7830    2.1040    0.0000 C.ar    1  LIG1       -0.0206
     17 C           2.1290    2.8750    0.0000 C.ar    1  LIG1       -0.0042
     18 C           1.1420    2.7000    0.0000 C.ar    1  LIG1        0.0010
     19 C           0.7960    1.7630    0.0000 C.ar    1  LIG1        0.0161
     20 C           3.7630    2.2580    0.0000 C.3     1  LIG1        0.0311
@<TRIPOS>BOND
     1     1     2   ar
     2     1     5   ar
     3     1    12    1
     4     2     3   ar
     5     2    11    2
     6     3     4   ar
     7     4     5   ar
     8     4     9   ar
     9     5     6   ar
    10     6     7   ar
    11     7     8   ar
    12     8     9   ar
    13     8    10    1
    14    12    13    1
    15    13    14    1
    16    14    15   ar
    17    14    19   ar
    18    15    16   ar
    19    16    17   ar
    20    16    20    1
    21    17    18   ar
    22    18    19   ar
