@<TRIPOS>MOLECULE
33410_ChemDiv_8009-2705
 25 27 0 0 0
SMALL
GASTEIGER
Energy = 0

@<TRIPOS>ATOM
      1 N           1.9880    0.1960    0.0000 N.ar    1  LIG1       -0.3270
      2 C           1.9880   -0.7040    0.0000 C.ar    1  LIG1        0.0568
      3 C           1.1880   -1.1460    0.0000 C.ar    1  LIG1        0.0360
      4 C           0.3830   -0.7040    0.0000 C.ar    1  LIG1        0.0837
      5 C           0.3830    0.1960    0.0000 C.ar    1  LIG1        0.0271
      6 C           1.1880    0.6540    0.0000 C.ar    1  LIG1        0.0385
      7 C           1.1880    1.6460    0.0000 C.3     1  LIG1        0.0438
      8 C           2.0540    2.1540    0.0000 C.3     1  LIG1        0.0062
      9 C           2.9460    1.6580    0.0000 C.3     1  LIG1        0.0004
     10 C           3.8130    2.1750    0.0000 C.3     1  LIG1        0.0000
     11 C           4.6460    1.6790    0.0000 C.3     1  LIG1        0.0000
     12 C          -1.2000    0.1960    0.0000 C.ar    1  LIG1        0.0047
     13 C          -1.2000   -0.7040    0.0000 C.ar    1  LIG1        0.1527
     14 N          -0.4080   -1.1460    0.0000 N.ar    1  LIG1       -0.2391
     15 C          -2.0540   -1.1830    0.0000 C.2     1  LIG1        0.3588
     16 O          -2.0670   -2.1710    0.0000 O.2     1  LIG1       -0.2432
     17 O          -2.9250   -0.6750    0.0000 O.3     1  LIG1       -0.4444
     18 C          -3.7920   -1.1750    0.0000 C.3     1  LIG1        0.2089
     19 C          -4.6500   -0.6460    0.0000 C.3     1  LIG1        0.0513
     20 C          -2.0540    0.6960    0.0000 C.3     1  LIG1        0.0329
     21 C           2.7630   -1.1460    0.0000 C.2     1  LIG1       -0.0121
     22 C           3.5710   -0.7040    0.0000 C.2     1  LIG1       -0.0240
     23 C           3.5710    0.1960    0.0000 C.3     1  LIG1        0.1279
     24 C           4.4210   -1.1830    0.0000 C.3     1  LIG1        0.0280
     25 C           2.7500   -2.1420    0.0000 C.3     1  LIG1        0.0319
@<TRIPOS>BOND
     1     1     2   ar
     2     1     6   ar
     3     1    23    1
     4     2     3   ar
     5     2    21    1
     6     3     4   ar
     7     4     5   ar
     8     4    14   ar
     9     5     6   ar
    10     5    12   ar
    11     6     7    1
    12     7     8    1
    13     8     9    1
    14     9    10    1
    15    10    11    1
    16    12    13   ar
    17    12    20    1
    18    13    14   ar
    19    13    15    1
    20    15    16    2
    21    15    17    1
    22    17    18    1
    23    18    19    1
    24    21    22    2
    25    21    25    1
    26    22    23    1
    27    22    24    1
