@<TRIPOS>MOLECULE
33419_ChemDiv_8002-7388
 18 19 0 0 0
SMALL
GASTEIGER
Energy = 0

@<TRIPOS>ATOM
      1 N           0.4380   -0.4630    0.0000 N.3     1  LIG1       -0.2619
      2 C           0.4380    0.5330    0.0000 C.3     1  LIG1        0.1359
      3 C           1.2790    1.0540    0.0000 C.3     1  LIG1        0.1564
      4 N           2.1630    0.5670    0.0000 N.4     1  LIG1        0.3815
      5 C           2.1540   -0.4540    0.0000 C.3     1  LIG1        0.1564
      6 C           1.2960   -0.9250    0.0000 C.3     1  LIG1        0.1359
      7 C           3.0210    1.0750    0.0000 C.3     1  LIG1        0.1749
      8 C           3.8880    0.5790    0.0000 C.3     1  LIG1        0.2442
      9 O           4.7420    1.0790    0.0000 O.3     1  LIG1       -0.2137
     10 C          -0.4080   -0.9920    0.0000 C.3     1  LIG1        0.0845
     11 C          -1.2830   -0.5170    0.0000 C.3     1  LIG1        0.0795
     12 S          -2.1330   -1.0500    0.0000 S.3     1  LIG1       -0.1122
     13 C          -3.0000   -0.5580    0.0000 C.ar    1  LIG1        0.0253
     14 C          -3.0000    0.4500    0.0000 C.ar    1  LIG1        0.0061
     15 C          -3.8750    0.9580    0.0000 C.ar    1  LIG1        0.0005
     16 C          -4.7460    0.4500    0.0000 C.ar    1  LIG1        0.0000
     17 C          -4.7460   -0.5580    0.0000 C.ar    1  LIG1        0.0005
     18 C          -3.8750   -1.0750    0.0000 C.ar    1  LIG1        0.0061
@<TRIPOS>BOND
     1     1     2    1
     2     1     6    1
     3     1    10    1
     4     2     3    1
     5     3     4    1
     6     4     5    1
     7     4     7    1
     8     5     6    1
     9     7     8    1
    10     8     9    1
    11    10    11    1
    12    11    12    1
    13    12    13    1
    14    13    14   ar
    15    13    18   ar
    16    14    15   ar
    17    15    16   ar
    18    16    17   ar
    19    17    18   ar
