@<TRIPOS>MOLECULE
33425_ChemDiv_8006-0993
 36 39 0 0 0
SMALL
GASTEIGER
Energy = 0

@<TRIPOS>ATOM
      1 C           3.2670   -0.0130    0.0000 C.2     1  LIG1        0.3478
      2 N           2.7670   -0.8670    0.0000 N.am    1  LIG1       -0.1576
      3 C           1.7830   -0.8670    0.0000 C.ar    1  LIG1        0.1088
      4 C           1.2670   -1.7460    0.0000 C.ar    1  LIG1        0.1539
      5 C           0.2670   -1.7460    0.0000 C.ar    1  LIG1        0.0383
      6 C          -0.2500   -0.8670    0.0000 C.ar    1  LIG1        0.0032
      7 C          -1.2500   -0.8670    0.0000 C.ar    1  LIG1        0.0032
      8 C          -1.7580   -1.7460    0.0000 C.ar    1  LIG1        0.0383
      9 C          -2.7710   -1.7460    0.0000 C.ar    1  LIG1        0.1539
     10 C          -3.2790   -0.8670    0.0000 C.ar    1  LIG1        0.1088
     11 N          -4.2830   -0.8670    0.0000 N.am    1  LIG1       -0.1576
     12 C          -4.7830   -0.0130    0.0000 C.2     1  LIG1        0.3478
     13 N          -4.2710    0.8630    0.0000 N.am    1  LIG1       -0.1607
     14 C          -4.7580    1.7250    0.0000 C.ar    1  LIG1        0.0750
     15 C          -5.7580    1.7540    0.0000 C.ar    1  LIG1        0.0167
     16 C          -6.2420    2.6250    0.0000 C.ar    1  LIG1        0.0013
     17 C          -5.7290    3.4790    0.0000 C.ar    1  LIG1        0.0001
     18 C          -4.7580    3.4670    0.0000 C.ar    1  LIG1        0.0013
     19 C          -4.2710    2.5960    0.0000 C.ar    1  LIG1        0.0167
     20 O          -5.7580   -0.0420    0.0000 O.2     1  LIG1       -0.2484
     21 C          -2.7710   -0.0040    0.0000 C.ar    1  LIG1        0.0197
     22 C          -1.7580   -0.0040    0.0000 C.ar    1  LIG1        0.0015
     23 O          -3.2540   -2.6130    0.0000 O.3     1  LIG1       -0.4701
     24 C          -4.2420   -2.6130    0.0000 C.3     1  LIG1        0.2525
     25 C           0.2670   -0.0040    0.0000 C.ar    1  LIG1        0.0015
     26 C           1.2670   -0.0040    0.0000 C.ar    1  LIG1        0.0197
     27 O           1.7540   -2.6130    0.0000 O.3     1  LIG1       -0.4701
     28 C           1.2540   -3.4750    0.0000 C.3     1  LIG1        0.2525
     29 N           4.2960   -0.0040    0.0000 N.am    1  LIG1       -0.1607
     30 C           4.7710    0.8750    0.0000 C.ar    1  LIG1        0.0750
     31 C           4.2710    1.7420    0.0000 C.ar    1  LIG1        0.0167
     32 C           4.7540    2.6170    0.0000 C.ar    1  LIG1        0.0013
     33 C           5.7420    2.6420    0.0000 C.ar    1  LIG1        0.0001
     34 C           6.2420    1.7710    0.0000 C.ar    1  LIG1        0.0013
     35 C           5.7710    0.9040    0.0000 C.ar    1  LIG1        0.0167
     36 O           2.7540    0.8460    0.0000 O.2     1  LIG1       -0.2484
@<TRIPOS>BOND
     1     1     2   am
     2     1    29   am
     3     1    36    2
     4     2     3    1
     5     3     4   ar
     6     3    26   ar
     7     4     5   ar
     8     4    27    1
     9     5     6   ar
    10     6     7    1
    11     6    25   ar
    12     7     8   ar
    13     7    22   ar
    14     8     9   ar
    15     9    10   ar
    16     9    23    1
    17    10    11    1
    18    10    21   ar
    19    11    12   am
    20    12    13   am
    21    12    20    2
    22    13    14    1
    23    14    15   ar
    24    14    19   ar
    25    15    16   ar
    26    16    17   ar
    27    17    18   ar
    28    18    19   ar
    29    21    22   ar
    30    23    24    1
    31    25    26   ar
    32    27    28    1
    33    29    30    1
    34    30    31   ar
    35    30    35   ar
    36    31    32   ar
    37    32    33   ar
    38    33    34   ar
    39    34    35   ar
