@<TRIPOS>MOLECULE
33427_ChemDiv_8006-1155
 29 30 0 0 0
SMALL
GASTEIGER
Energy = 0

@<TRIPOS>ATOM
      1 C          -3.0960   -0.5460    0.0000 C.2     1  LIG1        0.2459
      2 N          -2.0920   -0.7290    0.0000 N.am    1  LIG1       -0.1792
      3 C          -1.4710    0.0000    0.0000 C.ar    1  LIG1        0.0733
      4 C          -0.4750   -0.1540    0.0000 C.ar    1  LIG1        0.0163
      5 C           0.1380    0.5790    0.0000 C.ar    1  LIG1       -0.0026
      6 C          -0.1750    1.5210    0.0000 C.ar    1  LIG1       -0.0177
      7 C           0.4580    2.2790    0.0000 C.3     1  LIG1        0.0526
      8 C           1.4500    2.0830    0.0000 C.ar    1  LIG1       -0.0177
      9 C           1.7790    1.1540    0.0000 C.ar    1  LIG1       -0.0026
     10 C           2.7790    0.9750    0.0000 C.ar    1  LIG1        0.0163
     11 C           3.4420    1.7170    0.0000 C.ar    1  LIG1        0.0733
     12 N           4.4170    1.5580    0.0000 N.am    1  LIG1       -0.1792
     13 C           4.7670    0.6080    0.0000 C.2     1  LIG1        0.2459
     14 O           5.7670    0.4130    0.0000 O.2     1  LIG1       -0.2730
     15 C           4.1420   -0.1540    0.0000 C.3     1  LIG1        0.0931
     16 C           4.4790   -1.1000    0.0000 C.3     1  LIG1        0.0513
     17 C           3.8210   -1.8920    0.0000 C.2     1  LIG1        0.0508
     18 O           4.1920   -2.8380    0.0000 O.co2   1  LIG1       -0.5492
     19 O           2.8210   -1.7130    0.0000 O.co2   1  LIG1       -0.5492
     20 C           3.0920    2.6670    0.0000 C.ar    1  LIG1        0.0163
     21 C           2.1040    2.8420    0.0000 C.ar    1  LIG1       -0.0026
     22 C          -1.1500    1.6880    0.0000 C.ar    1  LIG1       -0.0026
     23 C          -1.7960    0.9460    0.0000 C.ar    1  LIG1        0.0163
     24 O          -3.7500   -1.2960    0.0000 O.2     1  LIG1       -0.2730
     25 C          -3.4420    0.3630    0.0000 C.3     1  LIG1        0.0931
     26 C          -4.4080    0.5580    0.0000 C.3     1  LIG1        0.0513
     27 C          -4.7750    1.5210    0.0000 C.2     1  LIG1        0.0508
     28 O          -5.7710    1.6710    0.0000 O.co2   1  LIG1       -0.5492
     29 O          -4.1170    2.3000    0.0000 O.co2   1  LIG1       -0.5492
@<TRIPOS>BOND
     1     1     2   am
     2     1    24    2
     3     1    25    1
     4     2     3    1
     5     3     4   ar
     6     3    23   ar
     7     4     5   ar
     8     5     6   ar
     9     6     7    1
    10     6    22   ar
    11     7     8    1
    12     8     9   ar
    13     8    21   ar
    14     9    10   ar
    15    10    11   ar
    16    11    12    1
    17    11    20   ar
    18    12    13   am
    19    13    14    2
    20    13    15    1
    21    15    16    1
    22    16    17    1
    23    17    18   ar
    24    17    19   ar
    25    20    21   ar
    26    22    23   ar
    27    25    26    1
    28    26    27    1
    29    27    28   ar
    30    27    29   ar
