@<TRIPOS>MOLECULE
33428_ChemDiv_8008-1551
 34 37 0 0 0
SMALL
GASTEIGER
Energy = 0

@<TRIPOS>ATOM
      1 S           3.6960   -0.4960    0.0000 S.O2    1  LIG1        0.0633
      2 C           2.7080   -0.4960    0.0000 C.ar    1  LIG1        0.1222
      3 C           2.2250    0.3580    0.0000 C.ar    1  LIG1        0.0201
      4 C           1.2250    0.3960    0.0000 C.ar    1  LIG1        0.0059
      5 C           0.7080   -0.4460    0.0000 C.ar    1  LIG1        0.0555
      6 C          -0.3080   -0.4250    0.0000 C.2     1  LIG1        0.2691
      7 N          -0.8210    0.4500    0.0000 N.am    1  LIG1       -0.1723
      8 C          -1.8380    0.4500    0.0000 C.ar    1  LIG1        0.1105
      9 C          -2.4080   -0.3750    0.0000 C.ar    1  LIG1        0.0572
     10 C          -3.3750   -0.3210    0.0000 C.ar    1  LIG1        0.1468
     11 C          -3.8380    0.5880    0.0000 C.ar    1  LIG1        0.0406
     12 C          -4.8420    0.4500    0.0000 C.ar    1  LIG1        0.0376
     13 C          -4.9830   -0.5170    0.0000 C.ar    1  LIG1        0.1453
     14 O          -4.1290   -1.0040    0.0000 O.2     1  LIG1       -0.4535
     15 C          -5.9420   -0.8670    0.0000 C.ar    1  LIG1        0.0375
     16 C          -6.7000   -0.2880    0.0000 C.ar    1  LIG1        0.0031
     17 C          -6.5790    0.6880    0.0000 C.ar    1  LIG1        0.0002
     18 C          -5.6040    1.0580    0.0000 C.ar    1  LIG1        0.0031
     19 C          -3.2960    1.4040    0.0000 C.ar    1  LIG1        0.0414
     20 C          -2.2750    1.3500    0.0000 C.ar    1  LIG1        0.1541
     21 O          -1.6420    2.1710    0.0000 O.3     1  LIG1       -0.4701
     22 C          -2.0290    3.1250    0.0000 C.3     1  LIG1        0.2525
     23 O          -0.8210   -1.2790    0.0000 O.2     1  LIG1       -0.2680
     24 C           1.1790   -1.3130    0.0000 C.ar    1  LIG1        0.0059
     25 C           2.1670   -1.3500    0.0000 C.ar    1  LIG1        0.0201
     26 N           4.6880   -0.4960    0.0000 N.3     1  LIG1       -0.1555
     27 C           5.1920   -1.3500    0.0000 C.3     1  LIG1        0.0958
     28 C           4.6880   -2.2540    0.0000 C.3     1  LIG1        0.0191
     29 C           5.1920   -3.1210    0.0000 C.3     1  LIG1        0.0015
     30 C           5.1710    0.3330    0.0000 C.3     1  LIG1        0.0958
     31 C           6.1960    0.3330    0.0000 C.3     1  LIG1        0.0191
     32 C           6.7000    1.2130    0.0000 C.3     1  LIG1        0.0015
     33 O           4.3920    0.1670    0.0000 O.2     1  LIG1       -0.1528
     34 O           2.9790   -1.1960    0.0000 O.2     1  LIG1       -0.1528
@<TRIPOS>BOND
     1     1     2    1
     2     1    26    1
     3     1    33    2
     4     1    34    2
     5     2     3   ar
     6     2    25   ar
     7     3     4   ar
     8     4     5   ar
     9     5     6    1
    10     5    24   ar
    11     6     7   am
    12     6    23    2
    13     7     8    1
    14     8     9   ar
    15     8    20   ar
    16     9    10   ar
    17    10    11   ar
    18    10    14   ar
    19    11    12   ar
    20    11    19   ar
    21    12    13   ar
    22    12    18   ar
    23    13    14   ar
    24    13    15   ar
    25    15    16   ar
    26    16    17   ar
    27    17    18   ar
    28    19    20   ar
    29    20    21    1
    30    21    22    1
    31    24    25   ar
    32    26    27    1
    33    26    30    1
    34    27    28    1
    35    28    29    1
    36    30    31    1
    37    31    32    1
