@<TRIPOS>MOLECULE
33422_ChemDiv_8009-3295
 15 18 0 0 0
SMALL
GASTEIGER
Energy = 0

@<TRIPOS>ATOM
      1 N          -0.4130   -0.8130    0.0000 N.2     1  LIG1        0.1002
      2 C           0.4750   -0.8130    0.0000 C.3     1  LIG1        0.4308
      3 C           0.0210   -0.0210    0.0000 C.3     1  LIG1        0.1395
      4 C           0.4960    0.7500    0.0000 C.3     1  LIG1        0.1183
      5 N          -0.4130    0.7500    0.0000 N.pl3   1  LIG1       -0.2439
      6 C          -0.8630   -0.0420    0.0000 C.2     1  LIG1        0.3772
      7 S          -1.8540   -0.0420    0.0000 S.3     1  LIG1       -0.0216
      8 C          -2.3500    0.7670    0.0000 C.3     1  LIG1        0.0911
      9 C          -0.8920    1.6040    0.0000 C.3     1  LIG1        0.1092
     10 C           1.3540    0.7500    0.0000 C.3     1  LIG1        0.1661
     11 O           0.9000   -0.0420    0.0000 O.3     1  LIG1       -0.3215
     12 C           1.3710   -0.8130    0.0000 C.3     1  LIG1        0.3417
     13 O           2.3460   -0.8130    0.0000 O.3     1  LIG1       -0.3207
     14 C           2.3460    0.7500    0.0000 C.3     1  LIG1        0.1763
     15 O           0.0580   -1.6000    0.0000 O.3     1  LIG1       -0.1426
@<TRIPOS>BOND
     1     1     2    1
     2     1     6    2
     3     2     3    1
     4     2    12    1
     5     2    15    1
     6     3     4    1
     7     4     5    1
     8     4    10    1
     9     5     6    1
    10     5     9    1
    11     6     7    1
    12     7     8    1
    13     8     9    1
    14    10    11    1
    15    10    14    1
    16    11    12    1
    17    12    13    1
    18    13    14    1
