@<TRIPOS>MOLECULE
33424_ChemDiv_8009-3387
 15 16 0 0 0
SMALL
GASTEIGER
Energy = 0

@<TRIPOS>ATOM
      1 C           0.3790   -0.7630    0.0000 C.2     1  LIG1        0.1009
      2 N           1.2420   -0.2630    0.0000 N.2     1  LIG1       -0.2677
      3 C           1.2420    0.7670    0.0000 C.3     1  LIG1        0.0893
      4 C           0.3790    1.2630    0.0000 C.3     1  LIG1        0.0485
      5 C          -0.4830    0.7670    0.0000 C.ar    1  LIG1       -0.0223
      6 C          -0.4830   -0.2630    0.0000 C.ar    1  LIG1        0.0189
      7 C          -1.3420   -0.7630    0.0000 C.ar    1  LIG1        0.0017
      8 C          -2.2080   -0.2630    0.0000 C.ar    1  LIG1       -0.0003
      9 C          -2.2080    0.7670    0.0000 C.ar    1  LIG1       -0.0046
     10 C          -1.3420    1.2630    0.0000 C.ar    1  LIG1       -0.0257
     11 C          -1.3420    2.2540    0.0000 C.3     1  LIG1        0.0307
     12 C           1.7420    1.6080    0.0000 C.3     1  LIG1        0.0247
     13 C           2.2040    1.0130    0.0000 C.3     1  LIG1        0.0247
     14 S           0.3790   -1.7540    0.0000 S.3     1  LIG1       -0.0945
     15 C           1.2290   -2.2500    0.0000 C.3     1  LIG1        0.0757
@<TRIPOS>BOND
     1     1     2    2
     2     1     6    1
     3     1    14    1
     4     2     3    1
     5     3     4    1
     6     3    12    1
     7     3    13    1
     8     4     5    1
     9     5     6   ar
    10     5    10   ar
    11     6     7   ar
    12     7     8   ar
    13     8     9   ar
    14     9    10   ar
    15    10    11    1
    16    14    15    1
