@<TRIPOS>MOLECULE
33438_ChemDiv_8008-2312
 26 27 0 0 0
SMALL
GASTEIGER
Energy = 0

@<TRIPOS>ATOM
      1 S           0.8330   -0.9880    0.0000 S.O2    1  LIG1        0.0592
      2 N           0.8460    0.0080    0.0000 N.pl3   1  LIG1       -0.1849
      3 C           1.7040    0.4920    0.0000 C.3     1  LIG1        0.2016
      4 C           2.5540   -0.0040    0.0000 C.2     1  LIG1        0.2633
      5 N           3.4080    0.4920    0.0000 N.am    1  LIG1       -0.2073
      6 C           4.2580   -0.0040    0.0000 C.3     1  LIG1        0.0788
      7 C           4.8330   -0.9460    0.0000 C.3     1  LIG1        0.0217
      8 C           5.1130    0.4790    0.0000 C.3     1  LIG1        0.0217
      9 C           3.6960   -0.9460    0.0000 C.3     1  LIG1        0.0217
     10 O           2.5540   -0.9880    0.0000 O.2     1  LIG1       -0.2714
     11 C          -0.0170    0.5130    0.0000 C.ar    1  LIG1        0.0692
     12 C          -0.0170    1.4920    0.0000 C.ar    1  LIG1        0.0193
     13 C          -0.8710    1.9880    0.0000 C.ar    1  LIG1        0.0388
     14 C          -1.7210    1.4920    0.0000 C.ar    1  LIG1        0.1454
     15 O          -2.5710    1.9750    0.0000 O.3     1  LIG1       -0.4535
     16 C          -3.4250    1.4920    0.0000 C.ar    1  LIG1        0.1453
     17 C          -3.4250    0.5130    0.0000 C.ar    1  LIG1        0.0375
     18 C          -4.2710    0.0080    0.0000 C.ar    1  LIG1        0.0031
     19 C          -5.1170    0.4920    0.0000 C.ar    1  LIG1        0.0002
     20 C          -5.1170    1.4750    0.0000 C.ar    1  LIG1        0.0031
     21 C          -4.2710    1.9750    0.0000 C.ar    1  LIG1        0.0375
     22 C          -1.7210    0.5130    0.0000 C.ar    1  LIG1        0.0388
     23 C          -0.8710    0.0080    0.0000 C.ar    1  LIG1        0.0193
     24 O           1.1330   -1.9830    0.0000 O.2     1  LIG1       -0.1542
     25 O           1.9630   -0.9750    0.0000 O.2     1  LIG1       -0.1542
     26 C          -0.0170   -1.4710    0.0000 C.3     1  LIG1        0.1999
@<TRIPOS>BOND
     1     1     2    1
     2     1    24    2
     3     1    25    2
     4     1    26    1
     5     2     3    1
     6     2    11    1
     7     3     4    1
     8     4     5   am
     9     4    10    2
    10     5     6    1
    11     6     7    1
    12     6     8    1
    13     6     9    1
    14    11    12   ar
    15    11    23   ar
    16    12    13   ar
    17    13    14   ar
    18    14    15    1
    19    14    22   ar
    20    15    16    1
    21    16    17   ar
    22    16    21   ar
    23    17    18   ar
    24    18    19   ar
    25    19    20   ar
    26    20    21   ar
    27    22    23   ar
