@<TRIPOS>MOLECULE
33436_ChemDiv_8008-2152
 34 38 0 0 0
SMALL
GASTEIGER
Energy = 0

@<TRIPOS>ATOM
      1 C          -1.6290    0.5630    0.0000 C.3     1  LIG1        0.2378
      2 C           1.6380    0.5630    0.0000 C.3     1  LIG1        0.2378
      3 C           1.6380    1.5790    0.0000 C.3     1  LIG1        0.1610
      4 C          -1.6290    1.5790    0.0000 C.3     1  LIG1        0.1610
      5 C          -2.5750    1.8750    0.0000 C.2     1  LIG1        0.3213
      6 O          -2.7920    2.8540    0.0000 O.2     1  LIG1       -0.2500
      7 O          -3.3080    1.2000    0.0000 O.3     1  LIG1       -0.4443
      8 C          -4.2580    1.5330    0.0000 C.3     1  LIG1        0.2556
      9 C           2.5830    1.8750    0.0000 C.2     1  LIG1        0.3213
     10 O           2.7880    2.8380    0.0000 O.2     1  LIG1       -0.2500
     11 O           3.2920    1.1920    0.0000 O.3     1  LIG1       -0.4443
     12 C           4.2540    1.4540    0.0000 C.3     1  LIG1        0.2556
     13 O           2.3000    0.0460    0.0000 O.2     1  LIG1       -0.4707
     14 C           2.0380   -0.7420    0.0000 C.2     1  LIG1        0.1419
     15 C           1.2380   -0.7420    0.0000 C.2     1  LIG1        0.0781
     16 C           0.9670    0.0460    0.0000 C.2     1  LIG1        0.2164
     17 O           0.1880    0.2960    0.0000 O.2     1  LIG1       -0.2874
     18 C           2.5040   -1.4130    0.0000 C.ar    1  LIG1        0.0341
     19 C           3.3170   -1.3580    0.0000 C.ar    1  LIG1        0.0030
     20 C           3.7750   -2.0290    0.0000 C.ar    1  LIG1        0.0001
     21 C           3.4330   -2.7880    0.0000 C.ar    1  LIG1        0.0000
     22 C           2.5920   -2.8500    0.0000 C.ar    1  LIG1        0.0001
     23 C           2.1290   -2.1420    0.0000 C.ar    1  LIG1        0.0030
     24 O          -0.9710    0.1380    0.0000 O.2     1  LIG1       -0.4707
     25 C          -1.2210   -0.6710    0.0000 C.2     1  LIG1        0.1419
     26 C          -2.0500   -0.6710    0.0000 C.2     1  LIG1        0.0781
     27 C          -2.3000    0.1380    0.0000 C.2     1  LIG1        0.2164
     28 O          -3.0540    0.4130    0.0000 O.2     1  LIG1       -0.2874
     29 C          -0.7580   -1.3420    0.0000 C.ar    1  LIG1        0.0341
     30 C          -1.1080   -2.1000    0.0000 C.ar    1  LIG1        0.0030
     31 C          -0.6330   -2.7880    0.0000 C.ar    1  LIG1        0.0001
     32 C           0.2080   -2.7040    0.0000 C.ar    1  LIG1        0.0000
     33 C           0.5540   -1.9540    0.0000 C.ar    1  LIG1        0.0001
     34 C           0.0750   -1.2790    0.0000 C.ar    1  LIG1        0.0030
@<TRIPOS>BOND
     1     1     2    1
     2     1     4    1
     3     1    24    1
     4     1    27    1
     5     2     3    1
     6     2    13    1
     7     2    16    1
     8     3     4    1
     9     3     9    1
    10     4     5    1
    11     5     6    2
    12     5     7    1
    13     7     8    1
    14     9    10    2
    15     9    11    1
    16    11    12    1
    17    13    14    1
    18    14    15    2
    19    14    18    1
    20    15    16    1
    21    16    17    2
    22    18    19   ar
    23    18    23   ar
    24    19    20   ar
    25    20    21   ar
    26    21    22   ar
    27    22    23   ar
    28    24    25    1
    29    25    26    2
    30    25    29    1
    31    26    27    1
    32    27    28    2
    33    29    30   ar
    34    29    34   ar
    35    30    31   ar
    36    31    32   ar
    37    32    33   ar
    38    33    34   ar
