@<TRIPOS>MOLECULE
33445_ChemDiv_8002-8304
 23 25 0 0 0
SMALL
GASTEIGER
Energy = 0

@<TRIPOS>ATOM
      1 N           0.1000   -0.3130    0.0000 N.ar    1  LIG1       -0.1887
      2 N          -0.8750   -0.3130    0.0000 N.ar    1  LIG1       -0.1266
      3 C          -1.1790   -1.2330    0.0000 C.ar    1  LIG1        0.2514
      4 O          -0.3880   -1.8250    0.0000 O.2     1  LIG1       -0.4116
      5 C           0.4130   -1.2580    0.0000 C.ar    1  LIG1        0.2691
      6 S           1.3830   -1.6040    0.0000 S.2     1  LIG1        0.0110
      7 C          -2.1540   -1.4920    0.0000 C.ar    1  LIG1        0.0890
      8 C          -2.8420   -0.7460    0.0000 C.ar    1  LIG1        0.1432
      9 O          -2.5750    0.2080    0.0000 O.3     1  LIG1       -0.4713
     10 C          -3.4460    0.8330    0.0000 C.3     1  LIG1        0.2525
     11 C          -3.8210   -1.0040    0.0000 C.ar    1  LIG1        0.0371
     12 C          -4.0790   -1.9330    0.0000 C.ar    1  LIG1        0.0031
     13 C          -3.3880   -2.6710    0.0000 C.ar    1  LIG1        0.0004
     14 C          -2.4210   -2.4130    0.0000 C.ar    1  LIG1        0.0078
     15 C           0.7670    0.4210    0.0000 C.3     1  LIG1        0.2430
     16 N           1.7630    0.2080    0.0000 N.pl3   1  LIG1       -0.2095
     17 C           2.4380    0.9580    0.0000 C.ar    1  LIG1        0.0949
     18 C           3.4290    0.7580    0.0000 C.ar    1  LIG1        0.1549
     19 F           3.7630   -0.1790    0.0000 F       1  LIG1       -0.2028
     20 C           4.0750    1.4960    0.0000 C.ar    1  LIG1        0.0310
     21 C           3.7630    2.4750    0.0000 C.ar    1  LIG1        0.0024
     22 C           2.7920    2.6750    0.0000 C.ar    1  LIG1        0.0015
     23 C           2.1380    1.8960    0.0000 C.ar    1  LIG1        0.0184
@<TRIPOS>BOND
     1     1     2   ar
     2     1     5   ar
     3     1    15    1
     4     2     3   ar
     5     3     4   ar
     6     3     7    1
     7     4     5   ar
     8     5     6    2
     9     7     8   ar
    10     7    14   ar
    11     8     9    1
    12     8    11   ar
    13     9    10    1
    14    11    12   ar
    15    12    13   ar
    16    13    14   ar
    17    15    16    1
    18    16    17    1
    19    17    18   ar
    20    17    23   ar
    21    18    19    1
    22    18    20   ar
    23    20    21   ar
    24    21    22   ar
    25    22    23   ar
