@<TRIPOS>MOLECULE
33447_ChemDiv_8005-9265
 25 27 0 0 0
SMALL
GASTEIGER
Energy = 0

@<TRIPOS>ATOM
      1 N           0.0790   -0.0580    0.0000 N.ar    1  LIG1       -0.1887
      2 N          -0.9130    0.1460    0.0000 N.ar    1  LIG1       -0.1267
      3 C          -1.3960   -0.7170    0.0000 C.ar    1  LIG1        0.2490
      4 O          -0.7540   -1.4540    0.0000 O.2     1  LIG1       -0.4116
      5 C           0.1790   -1.0540    0.0000 C.ar    1  LIG1        0.2690
      6 S           1.0830   -1.5630    0.0000 S.2     1  LIG1        0.0110
      7 C          -2.4000   -0.8290    0.0000 C.ar    1  LIG1        0.0613
      8 C          -3.0000   -0.0210    0.0000 C.ar    1  LIG1        0.0391
      9 BR         -2.5920    0.9040    0.0000 Br      1  LIG1       -0.0488
     10 C          -4.0040   -0.1380    0.0000 C.ar    1  LIG1        0.0068
     11 C          -4.4290   -1.0540    0.0000 C.ar    1  LIG1        0.0005
     12 C          -3.8170   -1.8580    0.0000 C.ar    1  LIG1        0.0002
     13 C          -2.8130   -1.7420    0.0000 C.ar    1  LIG1        0.0052
     14 C           0.8960    0.5290    0.0000 C.3     1  LIG1        0.2429
     15 N           1.8000    0.1290    0.0000 N.pl3   1  LIG1       -0.2116
     16 C           2.6330    0.6790    0.0000 C.ar    1  LIG1        0.0737
     17 C           3.5080    0.2250    0.0000 C.ar    1  LIG1        0.0905
     18 C           3.5420   -0.7670    0.0000 C.2     1  LIG1        0.3426
     19 O           4.4250   -1.2290    0.0000 O.2     1  LIG1       -0.2448
     20 O           2.6830   -1.2210    0.0000 O.3     1  LIG1       -0.4413
     21 C           2.6330   -2.2000    0.0000 C.3     1  LIG1        0.2560
     22 C           4.3540    0.7540    0.0000 C.ar    1  LIG1        0.0077
     23 C           4.3130    1.7500    0.0000 C.ar    1  LIG1        0.0003
     24 C           3.4130    2.2040    0.0000 C.ar    1  LIG1        0.0013
     25 C           2.5830    1.6630    0.0000 C.ar    1  LIG1        0.0164
@<TRIPOS>BOND
     1     1     2   ar
     2     1     5   ar
     3     1    14    1
     4     2     3   ar
     5     3     4   ar
     6     3     7    1
     7     4     5   ar
     8     5     6    2
     9     7     8   ar
    10     7    13   ar
    11     8     9    1
    12     8    10   ar
    13    10    11   ar
    14    11    12   ar
    15    12    13   ar
    16    14    15    1
    17    15    16    1
    18    16    17   ar
    19    16    25   ar
    20    17    18    1
    21    17    22   ar
    22    18    19    2
    23    18    20    1
    24    20    21    1
    25    22    23   ar
    26    23    24   ar
    27    24    25   ar
