@<TRIPOS>MOLECULE
33442_ChemDiv_8015-2089
 24 27 0 0 0
SMALL
GASTEIGER
Energy = 0

@<TRIPOS>ATOM
      1 C           1.2670    1.0830    0.0000 C.2     1  LIG1        0.1049
      2 N           1.2880    2.0710    0.0000 N.2     1  LIG1       -0.2674
      3 C           0.4080    2.5830    0.0000 C.3     1  LIG1        0.0893
      4 C          -0.4540    2.0920    0.0000 C.3     1  LIG1        0.0488
      5 C          -0.4540    1.0830    0.0000 C.ar    1  LIG1       -0.0184
      6 C           0.4080    0.5920    0.0000 C.ar    1  LIG1        0.0195
      7 C           0.4080   -0.3960    0.0000 C.ar    1  LIG1        0.0017
      8 C          -0.4540   -0.9210    0.0000 C.ar    1  LIG1        0.0000
      9 C          -1.3130   -0.3960    0.0000 C.ar    1  LIG1       -0.0003
     10 C          -1.3130    0.5920    0.0000 C.ar    1  LIG1       -0.0038
     11 C          -2.1750    1.0830    0.0000 C.ar    1  LIG1       -0.0003
     12 C          -3.0330    0.5920    0.0000 C.ar    1  LIG1       -0.0000
     13 C          -3.0330   -0.3960    0.0000 C.ar    1  LIG1       -0.0000
     14 C          -2.1750   -0.9210    0.0000 C.ar    1  LIG1       -0.0000
     15 C          -0.1170    3.4330    0.0000 C.3     1  LIG1        0.0247
     16 C           1.0250    3.4130    0.0000 C.3     1  LIG1        0.0247
     17 S           2.1500    0.5670    0.0000 S.3     1  LIG1       -0.0684
     18 C           2.1710   -0.4380    0.0000 C.ar    1  LIG1        0.0309
     19 C           3.0290   -0.9420    0.0000 C.ar    1  LIG1        0.0079
     20 C           3.0290   -1.9500    0.0000 C.ar    1  LIG1        0.0186
     21 C           2.1710   -2.4420    0.0000 C.ar    1  LIG1        0.0891
     22 N           2.1710   -3.4290    0.0000 N.pl3   1  LIG1       -0.1281
     23 C           1.3080   -1.9710    0.0000 C.ar    1  LIG1        0.0186
     24 C           1.3080   -0.9630    0.0000 C.ar    1  LIG1        0.0079
@<TRIPOS>BOND
     1     1     2    2
     2     1     6    1
     3     1    17    1
     4     2     3    1
     5     3     4    1
     6     3    15    1
     7     3    16    1
     8     4     5    1
     9     5     6   ar
    10     5    10   ar
    11     6     7   ar
    12     7     8   ar
    13     8     9   ar
    14     9    10   ar
    15     9    14   ar
    16    10    11   ar
    17    11    12   ar
    18    12    13   ar
    19    13    14   ar
    20    17    18    1
    21    18    19   ar
    22    18    24   ar
    23    19    20   ar
    24    20    21   ar
    25    21    22    1
    26    21    23   ar
    27    23    24   ar
