@<TRIPOS>MOLECULE
33448_ChemDiv_8009-4041
 31 34 0 0 0
SMALL
GASTEIGER
Energy = 0

@<TRIPOS>ATOM
      1 C          -2.1080    0.0000    0.0000 C.3     1  LIG1        0.0466
      2 C          -1.1080    0.0000    0.0000 C.3     1  LIG1        0.0866
      3 C          -1.6040   -0.8750    0.0000 C.3     1  LIG1        0.0184
      4 C          -0.2420   -0.4960    0.0000 C.2     1  LIG1        0.2457
      5 N           0.6250    0.0040    0.0000 N.am    1  LIG1       -0.1792
      6 C           1.4920   -0.4830    0.0000 C.ar    1  LIG1        0.0736
      7 C           1.4920   -1.4830    0.0000 C.ar    1  LIG1        0.0197
      8 C           2.3630   -1.9790    0.0000 C.ar    1  LIG1        0.0382
      9 C           3.2290   -1.4710    0.0000 C.ar    1  LIG1        0.1386
     10 C           3.2290   -0.4670    0.0000 C.ar    1  LIG1        0.0382
     11 C           2.3630    0.0210    0.0000 C.ar    1  LIG1        0.0197
     12 O           4.0960   -1.9790    0.0000 O.3     1  LIG1       -0.4755
     13 C           4.9460   -1.4710    0.0000 C.3     1  LIG1        0.2055
     14 C           5.8210   -1.9790    0.0000 C.3     1  LIG1        0.0512
     15 O          -0.2290   -1.4960    0.0000 O.2     1  LIG1       -0.2730
     16 C          -2.6210   -0.8630    0.0000 C.ar    1  LIG1       -0.0155
     17 C          -3.6170   -0.8630    0.0000 C.ar    1  LIG1        0.0329
     18 C          -4.1000   -1.7130    0.0000 C.ar    1  LIG1        0.1384
     19 O          -5.1000   -1.7130    0.0000 O.3     1  LIG1       -0.4714
     20 C          -5.8250   -2.4210    0.0000 C.3     1  LIG1        0.2525
     21 C          -3.6170   -2.5790    0.0000 C.ar    1  LIG1        0.0369
     22 C          -2.6210   -2.5920    0.0000 C.ar    1  LIG1        0.0028
     23 C          -2.1250   -1.7250    0.0000 C.ar    1  LIG1       -0.0038
     24 C          -2.6210    0.8630    0.0000 C.ar    1  LIG1       -0.0155
     25 C          -3.6170    0.8790    0.0000 C.ar    1  LIG1        0.0329
     26 C          -4.1000    1.7460    0.0000 C.ar    1  LIG1        0.1384
     27 O          -5.1000    1.7460    0.0000 O.3     1  LIG1       -0.4714
     28 C          -5.8250    2.4500    0.0000 C.3     1  LIG1        0.2525
     29 C          -3.6040    2.5960    0.0000 C.ar    1  LIG1        0.0369
     30 C          -2.6040    2.5960    0.0000 C.ar    1  LIG1        0.0028
     31 C          -2.1080    1.7170    0.0000 C.ar    1  LIG1       -0.0038
@<TRIPOS>BOND
     1     1     2    1
     2     1     3    1
     3     1    16    1
     4     1    24    1
     5     2     3    1
     6     2     4    1
     7     4     5   am
     8     4    15    2
     9     5     6    1
    10     6     7   ar
    11     6    11   ar
    12     7     8   ar
    13     8     9   ar
    14     9    10   ar
    15     9    12    1
    16    10    11   ar
    17    12    13    1
    18    13    14    1
    19    16    17   ar
    20    16    23   ar
    21    17    18   ar
    22    18    19    1
    23    18    21   ar
    24    19    20    1
    25    21    22   ar
    26    22    23   ar
    27    24    25   ar
    28    24    31   ar
    29    25    26   ar
    30    26    27    1
    31    26    29   ar
    32    27    28    1
    33    29    30   ar
    34    30    31   ar
