@<TRIPOS>MOLECULE
33444_ChemDiv_8009-3431
 23 25 0 0 0
SMALL
GASTEIGER
Energy = 0

@<TRIPOS>ATOM
      1 N          -0.6330   -1.3130    0.0000 N.ar    1  LIG1       -0.2708
      2 C          -0.0670   -2.1420    0.0000 C.ar    1  LIG1        0.2514
      3 O          -0.6330   -2.9330    0.0000 O.2     1  LIG1       -0.4306
      4 C          -1.5960   -2.6250    0.0000 C.ar    1  LIG1        0.1634
      5 C          -1.5960   -1.6130    0.0000 C.ar    1  LIG1        0.0990
      6 C          -2.4500   -1.1130    0.0000 C.ar    1  LIG1        0.0204
      7 C          -3.3210   -1.6130    0.0000 C.ar    1  LIG1        0.0017
      8 C          -3.3210   -2.6250    0.0000 C.ar    1  LIG1        0.0032
      9 C          -2.4500   -3.1250    0.0000 C.ar    1  LIG1        0.0391
     10 S           0.9420   -2.1420    0.0000 S.2     1  LIG1        0.0095
     11 C          -0.3330   -0.3500    0.0000 C.3     1  LIG1        0.2243
     12 N           0.5630    0.0920    0.0000 N.pl3   1  LIG1       -0.2128
     13 C           1.3790   -0.4710    0.0000 C.ar    1  LIG1        0.0737
     14 C           2.2960   -0.0580    0.0000 C.ar    1  LIG1        0.0905
     15 C           2.4000    0.9290    0.0000 C.2     1  LIG1        0.3425
     16 O           3.3170    1.3080    0.0000 O.2     1  LIG1       -0.2448
     17 O           1.6000    1.5540    0.0000 O.3     1  LIG1       -0.4454
     18 C           1.7330    2.5420    0.0000 C.3     1  LIG1        0.2089
     19 C           0.8960    3.1290    0.0000 C.3     1  LIG1        0.0513
     20 C           3.1040   -0.6210    0.0000 C.ar    1  LIG1        0.0077
     21 C           3.0170   -1.6290    0.0000 C.ar    1  LIG1        0.0003
     22 C           2.1000   -2.0330    0.0000 C.ar    1  LIG1        0.0013
     23 C           1.3000   -1.4540    0.0000 C.ar    1  LIG1        0.0164
@<TRIPOS>BOND
     1     1     2   ar
     2     1     5   ar
     3     1    11    1
     4     2     3   ar
     5     2    10    2
     6     3     4   ar
     7     4     5   ar
     8     4     9   ar
     9     5     6   ar
    10     6     7   ar
    11     7     8   ar
    12     8     9   ar
    13    11    12    1
    14    12    13    1
    15    13    14   ar
    16    13    23   ar
    17    14    15    1
    18    14    20   ar
    19    15    16    2
    20    15    17    1
    21    17    18    1
    22    18    19    1
    23    20    21   ar
    24    21    22   ar
    25    22    23   ar
