@<TRIPOS>MOLECULE
33449_ChemDiv_8009-4324
 27 29 0 0 0
SMALL
GASTEIGER
Energy = 0

@<TRIPOS>ATOM
      1 N           0.3420   -0.4040    0.0000 N.ar    1  LIG1       -0.1887
      2 C          -0.1250   -1.2130    0.0000 C.ar    1  LIG1        0.2690
      3 O          -1.0750   -1.2130    0.0000 O.2     1  LIG1       -0.4117
      4 C          -1.5630   -0.4040    0.0000 C.ar    1  LIG1        0.2487
      5 N          -1.0750    0.4380    0.0000 N.ar    1  LIG1       -0.1267
      6 C          -2.4960   -0.4040    0.0000 C.ar    1  LIG1        0.0613
      7 C          -2.9960   -1.2330    0.0000 C.ar    1  LIG1        0.0450
      8 C          -3.9460   -1.2330    0.0000 C.ar    1  LIG1        0.1756
      9 C          -4.4210   -0.4040    0.0000 C.ar    1  LIG1        0.2061
     10 C          -3.9330    0.4170    0.0000 C.ar    1  LIG1        0.1756
     11 C          -2.9960    0.4170    0.0000 C.ar    1  LIG1        0.0450
     12 O          -4.4210    1.2830    0.0000 O.3     1  LIG1       -0.4683
     13 C          -3.9000    2.1460    0.0000 C.3     1  LIG1        0.2526
     14 O          -5.3580   -0.4130    0.0000 O.3     1  LIG1       -0.4654
     15 C          -5.8750    0.4710    0.0000 C.3     1  LIG1        0.2528
     16 O          -4.4210   -2.1040    0.0000 O.3     1  LIG1       -0.4683
     17 C          -5.4210   -2.1040    0.0000 C.3     1  LIG1        0.2526
     18 S           0.3710   -2.0630    0.0000 S.2     1  LIG1        0.0110
     19 C           1.3920   -0.4130    0.0000 C.3     1  LIG1        0.2429
     20 N           1.8710   -1.2750    0.0000 N.pl3   1  LIG1       -0.2118
     21 C           2.8630   -1.2750    0.0000 C.ar    1  LIG1        0.0677
     22 C           3.3790   -2.1420    0.0000 C.ar    1  LIG1        0.0185
     23 C           4.3580   -2.1420    0.0000 C.ar    1  LIG1        0.0310
     24 C           4.8750   -1.2830    0.0000 C.ar    1  LIG1        0.1402
     25 F           5.8710   -1.2830    0.0000 F       1  LIG1       -0.2042
     26 C           4.3580   -0.4460    0.0000 C.ar    1  LIG1        0.0310
     27 C           3.3790   -0.4460    0.0000 C.ar    1  LIG1        0.0185
@<TRIPOS>BOND
     1     1     2   ar
     2     1     5   ar
     3     1    19    1
     4     2     3   ar
     5     2    18    2
     6     3     4   ar
     7     4     5   ar
     8     4     6    1
     9     6     7   ar
    10     6    11   ar
    11     7     8   ar
    12     8     9   ar
    13     8    16    1
    14     9    10   ar
    15     9    14    1
    16    10    11   ar
    17    10    12    1
    18    12    13    1
    19    14    15    1
    20    16    17    1
    21    19    20    1
    22    20    21    1
    23    21    22   ar
    24    21    27   ar
    25    22    23   ar
    26    23    24   ar
    27    24    25    1
    28    24    26   ar
    29    26    27   ar
