@<TRIPOS>MOLECULE
33446_ChemDiv_8009-3532
 30 33 0 0 0
SMALL
GASTEIGER
Energy = 0

@<TRIPOS>ATOM
      1 C          -1.7710   -0.0130    0.0000 C.3     1  LIG1        0.0466
      2 C          -0.7710   -0.0130    0.0000 C.3     1  LIG1        0.0866
      3 C          -1.2790   -0.8830    0.0000 C.3     1  LIG1        0.0184
      4 C           0.0830   -0.5170    0.0000 C.2     1  LIG1        0.2457
      5 N           0.9500   -0.0130    0.0000 N.am    1  LIG1       -0.1791
      6 C           1.8130   -0.5040    0.0000 C.ar    1  LIG1        0.0764
      7 C           2.6790    0.0000    0.0000 C.ar    1  LIG1        0.0535
      8 C           3.5540   -0.4920    0.0000 C.ar    1  LIG1        0.1400
      9 O           4.4130    0.0130    0.0000 O.3     1  LIG1       -0.4714
     10 C           5.2670   -0.4790    0.0000 C.3     1  LIG1        0.2525
     11 C           3.5540   -1.4960    0.0000 C.ar    1  LIG1        0.0370
     12 C           2.6960   -2.0000    0.0000 C.ar    1  LIG1        0.0044
     13 C           1.8250   -1.5080    0.0000 C.ar    1  LIG1        0.0168
     14 O           0.0960   -1.5210    0.0000 O.2     1  LIG1       -0.2730
     15 C          -2.2750   -0.8830    0.0000 C.ar    1  LIG1       -0.0155
     16 C          -3.2750   -0.8670    0.0000 C.ar    1  LIG1        0.0329
     17 C          -3.7670   -1.7290    0.0000 C.ar    1  LIG1        0.1384
     18 O          -4.7670   -1.7290    0.0000 O.3     1  LIG1       -0.4714
     19 C          -5.2710   -2.6000    0.0000 C.3     1  LIG1        0.2525
     20 C          -3.2920   -2.6000    0.0000 C.ar    1  LIG1        0.0369
     21 C          -2.2880   -2.6000    0.0000 C.ar    1  LIG1        0.0028
     22 C          -1.7830   -1.7420    0.0000 C.ar    1  LIG1       -0.0038
     23 C          -2.2750    0.8500    0.0000 C.ar    1  LIG1       -0.0155
     24 C          -3.2920    0.8500    0.0000 C.ar    1  LIG1        0.0329
     25 C          -3.7670    1.7290    0.0000 C.ar    1  LIG1        0.1384
     26 O          -4.7670    1.7290    0.0000 O.3     1  LIG1       -0.4714
     27 C          -5.2710    0.8630    0.0000 C.3     1  LIG1        0.2525
     28 C          -3.2750    2.6040    0.0000 C.ar    1  LIG1        0.0369
     29 C          -2.2630    2.5830    0.0000 C.ar    1  LIG1        0.0028
     30 C          -1.7710    1.7170    0.0000 C.ar    1  LIG1       -0.0038
@<TRIPOS>BOND
     1     1     2    1
     2     1     3    1
     3     1    15    1
     4     1    23    1
     5     2     3    1
     6     2     4    1
     7     4     5   am
     8     4    14    2
     9     5     6    1
    10     6     7   ar
    11     6    13   ar
    12     7     8   ar
    13     8     9    1
    14     8    11   ar
    15     9    10    1
    16    11    12   ar
    17    12    13   ar
    18    15    16   ar
    19    15    22   ar
    20    16    17   ar
    21    17    18    1
    22    17    20   ar
    23    18    19    1
    24    20    21   ar
    25    21    22   ar
    26    23    24   ar
    27    23    30   ar
    28    24    25   ar
    29    25    26    1
    30    25    28   ar
    31    26    27    1
    32    28    29   ar
    33    29    30   ar
