@<TRIPOS>MOLECULE
33451_ChemDiv_8009-5503
 27 29 0 0 0
SMALL
GASTEIGER
Energy = 0

@<TRIPOS>ATOM
      1 N           0.3500    0.5000    0.0000 N.ar    1  LIG1       -0.1887
      2 C          -0.0290   -0.2920    0.0000 C.ar    1  LIG1        0.2690
      3 O          -0.9420   -0.2920    0.0000 O.2     1  LIG1       -0.4117
      4 C          -1.4250    0.4460    0.0000 C.ar    1  LIG1        0.2487
      5 N          -0.9790    1.2540    0.0000 N.ar    1  LIG1       -0.1267
      6 C          -2.4290    0.4460    0.0000 C.ar    1  LIG1        0.0613
      7 C          -2.9040   -0.4420    0.0000 C.ar    1  LIG1        0.0450
      8 C          -3.8830   -0.4420    0.0000 C.ar    1  LIG1        0.1756
      9 C          -4.4130    0.4460    0.0000 C.ar    1  LIG1        0.2061
     10 C          -3.9080    1.3040    0.0000 C.ar    1  LIG1        0.1756
     11 C          -2.9210    1.3040    0.0000 C.ar    1  LIG1        0.0450
     12 O          -4.4130    2.1170    0.0000 O.3     1  LIG1       -0.4683
     13 C          -5.4130    2.1170    0.0000 C.3     1  LIG1        0.2526
     14 O          -5.3960    0.4460    0.0000 O.3     1  LIG1       -0.4654
     15 C          -5.8920   -0.4250    0.0000 C.3     1  LIG1        0.2528
     16 O          -4.3750   -1.3000    0.0000 O.3     1  LIG1       -0.4683
     17 C          -3.8710   -2.1130    0.0000 C.3     1  LIG1        0.2526
     18 S           0.5500   -1.1040    0.0000 S.2     1  LIG1        0.0110
     19 C           1.3630    0.5000    0.0000 C.3     1  LIG1        0.2429
     20 N           1.8670   -0.3880    0.0000 N.pl3   1  LIG1       -0.2118
     21 C           2.8290   -0.3880    0.0000 C.ar    1  LIG1        0.0675
     22 C           3.3460   -1.2380    0.0000 C.ar    1  LIG1        0.0158
     23 C           4.3080   -1.2380    0.0000 C.ar    1  LIG1       -0.0029
     24 C           4.8170   -0.4040    0.0000 C.ar    1  LIG1       -0.0218
     25 C           4.3080    0.4750    0.0000 C.ar    1  LIG1       -0.0029
     26 C           3.3250    0.4750    0.0000 C.ar    1  LIG1        0.0158
     27 C           5.8880   -0.4040    0.0000 C.3     1  LIG1        0.0310
@<TRIPOS>BOND
     1     1     2   ar
     2     1     5   ar
     3     1    19    1
     4     2     3   ar
     5     2    18    2
     6     3     4   ar
     7     4     5   ar
     8     4     6    1
     9     6     7   ar
    10     6    11   ar
    11     7     8   ar
    12     8     9   ar
    13     8    16    1
    14     9    10   ar
    15     9    14    1
    16    10    11   ar
    17    10    12    1
    18    12    13    1
    19    14    15    1
    20    16    17    1
    21    19    20    1
    22    20    21    1
    23    21    22   ar
    24    21    26   ar
    25    22    23   ar
    26    23    24   ar
    27    24    25   ar
    28    24    27    1
    29    25    26   ar
