@<TRIPOS>MOLECULE
33453_ChemDiv_8009-5698
 21 23 0 0 0
SMALL
GASTEIGER
Energy = 0

@<TRIPOS>ATOM
      1 N           0.2130   -0.3170    0.0000 N.ar    1  LIG1       -0.1902
      2 C           0.5170   -1.2710    0.0000 C.ar    1  LIG1        0.2690
      3 O          -0.2920   -1.8580    0.0000 O.2     1  LIG1       -0.4117
      4 C          -1.1040   -1.2710    0.0000 C.ar    1  LIG1        0.2485
      5 N          -0.8040   -0.3170    0.0000 N.ar    1  LIG1       -0.1267
      6 C          -2.0420   -1.5920    0.0000 C.ar    1  LIG1        0.0551
      7 C          -2.7790   -0.9170    0.0000 C.ar    1  LIG1        0.0047
      8 C          -3.7460   -1.2420    0.0000 C.ar    1  LIG1        0.0002
      9 C          -3.9790   -2.2290    0.0000 C.ar    1  LIG1        0.0000
     10 C          -3.2290   -2.8790    0.0000 C.ar    1  LIG1        0.0002
     11 C          -2.2670   -2.5670    0.0000 C.ar    1  LIG1        0.0047
     12 S           1.4630   -1.5670    0.0000 S.2     1  LIG1        0.0110
     13 C           0.8000    0.4710    0.0000 C.3     1  LIG1        0.2257
     14 N           1.7580    0.3580    0.0000 N.pl3   1  LIG1       -0.2853
     15 C           2.3540    1.1420    0.0000 C.ar    1  LIG1        0.0493
     16 C           3.3750    1.0170    0.0000 C.ar    1  LIG1        0.0146
     17 C           3.9750    1.8290    0.0000 C.ar    1  LIG1        0.0013
     18 C           3.5960    2.7460    0.0000 C.ar    1  LIG1        0.0001
     19 C           2.5960    2.8830    0.0000 C.ar    1  LIG1        0.0013
     20 C           2.0000    2.0920    0.0000 C.ar    1  LIG1        0.0146
     21 C           2.1170   -0.5580    0.0000 C.3     1  LIG1        0.1140
@<TRIPOS>BOND
     1     1     2   ar
     2     1     5   ar
     3     1    13    1
     4     2     3   ar
     5     2    12    2
     6     3     4   ar
     7     4     5   ar
     8     4     6    1
     9     6     7   ar
    10     6    11   ar
    11     7     8   ar
    12     8     9   ar
    13     9    10   ar
    14    10    11   ar
    15    13    14    1
    16    14    15    1
    17    14    21    1
    18    15    16   ar
    19    15    20   ar
    20    16    17   ar
    21    17    18   ar
    22    18    19   ar
    23    19    20   ar
