@<TRIPOS>MOLECULE
33455_ChemDiv_8002-9364
 25 26 0 0 0
SMALL
GASTEIGER
Energy = 0

@<TRIPOS>ATOM
      1 C           2.1460   -0.1580    0.0000 C.2     1  LIG1        0.2647
      2 N           2.8830    0.4750    0.0000 N.am    1  LIG1       -0.2034
      3 C           4.1170    0.1330    0.0000 C.3     1  LIG1        0.0956
      4 C           4.3080   -0.9540    0.0000 C.3     1  LIG1        0.0217
      5 C           5.3580   -1.3420    0.0000 C.3     1  LIG1        0.0018
      6 C           6.2130   -0.6210    0.0000 C.3     1  LIG1        0.0001
      7 C           6.0080    0.4540    0.0000 C.3     1  LIG1        0.0018
      8 C           4.9630    0.8420    0.0000 C.3     1  LIG1        0.0217
      9 C           1.2710    0.1540    0.0000 C.ar    1  LIG1        0.0551
     10 C           1.1250    1.0380    0.0000 C.ar    1  LIG1        0.0059
     11 C           0.2420    1.3460    0.0000 C.ar    1  LIG1        0.0167
     12 C          -0.4670    0.7130    0.0000 C.ar    1  LIG1        0.0734
     13 N          -1.3210    1.0080    0.0000 N.am    1  LIG1       -0.1792
     14 C          -2.1210    0.1460    0.0000 C.2     1  LIG1        0.2456
     15 O          -1.9540   -0.7880    0.0000 O.2     1  LIG1       -0.2730
     16 C          -2.8670    0.7380    0.0000 C.3     1  LIG1        0.0872
     17 C          -3.2960   -0.0210    0.0000 C.3     1  LIG1        0.0096
     18 C          -3.8580    0.5670    0.0000 C.3     1  LIG1        0.0005
     19 C          -4.2750   -0.2460    0.0000 C.3     1  LIG1        0.0000
     20 C          -4.8380    0.3880    0.0000 C.3     1  LIG1        0.0000
     21 C          -5.2540   -0.4210    0.0000 C.3     1  LIG1        0.0000
     22 C          -6.2130    0.6170    0.0000 C.3     1  LIG1        0.0000
     23 C          -0.3210   -0.1750    0.0000 C.ar    1  LIG1        0.0167
     24 C           0.5920   -0.4210    0.0000 C.ar    1  LIG1        0.0059
     25 O           2.3210   -1.0420    0.0000 O.2     1  LIG1       -0.2684
@<TRIPOS>BOND
     1     1     2   am
     2     1     9    1
     3     1    25    2
     4     2     3    1
     5     3     4    1
     6     3     8    1
     7     4     5    1
     8     5     6    1
     9     6     7    1
    10     7     8    1
    11     9    10   ar
    12     9    24   ar
    13    10    11   ar
    14    11    12   ar
    15    12    13    1
    16    12    23   ar
    17    13    14   am
    18    14    15    2
    19    14    16    1
    20    16    17    1
    21    17    18    1
    22    18    19    1
    23    19    20    1
    24    20    21    1
    25    21    22    1
    26    23    24   ar
