@<TRIPOS>MOLECULE
33468_ChemDiv_8008-3399
 21 21 0 0 0
SMALL
GASTEIGER
Energy = 0

@<TRIPOS>ATOM
      1 C           0.4210   -1.9830    0.0000 C.ar    1  LIG1        0.1503
      2 C           0.4210   -2.9830    0.0000 C.ar    1  LIG1        0.3514
      3 O          -0.4330   -3.4830    0.0000 O.2     1  LIG1       -0.4252
      4 C          -1.3000   -2.9960    0.0000 C.ar    1  LIG1        0.1299
      5 C          -1.3000   -1.9750    0.0000 C.ar    1  LIG1        0.0754
      6 C          -0.4330   -1.4880    0.0000 C.ar    1  LIG1        0.2075
      7 O          -0.4330   -0.4880    0.0000 O.3     1  LIG1       -0.2862
      8 C          -2.1630   -3.5210    0.0000 C.3     1  LIG1        0.0727
      9 O           1.3000   -3.5080    0.0000 O.2     1  LIG1       -0.2443
     10 C           1.3000   -1.4750    0.0000 C.2     1  LIG1        0.1938
     11 C           1.3000   -0.4710    0.0000 C.3     1  LIG1        0.1355
     12 S           0.4420    0.0250    0.0000 S.3     1  LIG1       -0.0552
     13 P           0.4420    1.0250    0.0000 P.3     1  LIG1        0.2316
     14 S           1.4420    1.0250    0.0000 S.2     1  LIG1        0.0032
     15 O           0.4420    2.0250    0.0000 O.3     1  LIG1       -0.3100
     16 C           1.3000    2.5250    0.0000 C.3     1  LIG1        0.1497
     17 C           1.3000    3.5250    0.0000 C.3     1  LIG1        0.0351
     18 O          -0.5580    1.0250    0.0000 O.3     1  LIG1       -0.3100
     19 C          -1.0540    1.8790    0.0000 C.3     1  LIG1        0.1497
     20 C          -2.0500    1.8790    0.0000 C.3     1  LIG1        0.0351
     21 O           2.1580   -1.9750    0.0000 O.2     1  LIG1       -0.2901
@<TRIPOS>BOND
     1     1     2   ar
     2     1     6   ar
     3     1    10    1
     4     2     3   ar
     5     2     9    2
     6     3     4   ar
     7     4     5   ar
     8     4     8    1
     9     5     6   ar
    10     6     7    1
    11    10    11    1
    12    10    21    2
    13    11    12    1
    14    12    13    1
    15    13    14    2
    16    13    15    1
    17    13    18    1
    18    15    16    1
    19    16    17    1
    20    18    19    1
    21    19    20    1
