@<TRIPOS>MOLECULE
33466_ChemDiv_8017-7328
 12 13 0 0 0
SMALL
GASTEIGER
Energy = 0

@<TRIPOS>ATOM
      1 C           0.0670   -0.1540    0.0000 C.ar    1  LIG1        0.0624
      2 C           1.0170   -0.4670    0.0000 C.ar    1  LIG1        0.2319
      3 N           1.6040    0.3420    0.0000 N.ar    1  LIG1       -0.1738
      4 S           1.0170    1.1460    0.0000 S.2     1  LIG1        0.0163
      5 C           0.0670    0.8420    0.0000 C.ar    1  LIG1        0.0521
      6 C          -0.7920    1.3420    0.0000 C.ar    1  LIG1        0.0095
      7 C          -1.6580    0.8420    0.0000 C.ar    1  LIG1        0.0186
      8 C          -1.6580   -0.1540    0.0000 C.ar    1  LIG1        0.0893
      9 C          -0.7920   -0.6540    0.0000 C.ar    1  LIG1        0.0233
     10 N          -2.5290   -0.6540    0.0000 N.pl3   1  LIG1       -0.1281
     11 O           1.5170   -1.3380    0.0000 O.3     1  LIG1       -0.4558
     12 C           2.5250   -1.3380    0.0000 C.3     1  LIG1        0.2542
@<TRIPOS>BOND
     1     1     2   ar
     2     1     5   ar
     3     1     9   ar
     4     2     3   ar
     5     2    11    1
     6     3     4   ar
     7     4     5   ar
     8     5     6   ar
     9     6     7   ar
    10     7     8   ar
    11     8     9   ar
    12     8    10    1
    13    11    12    1
