@<TRIPOS>MOLECULE
33477_ChemDiv_8003-0856
 37 40 0 0 0
SMALL
GASTEIGER
Energy = 0

@<TRIPOS>ATOM
      1 S          -3.8500   -0.3670    0.0000 S.O2    1  LIG1        0.0162
      2 C          -4.8460   -0.3670    0.0000 C.3     1  LIG1        0.2244
      3 C          -5.3670    0.5170    0.0000 C.2     1  LIG1        0.1972
      4 O          -4.8460    1.3580    0.0000 O.2     1  LIG1       -0.2895
      5 C          -6.3630    0.5170    0.0000 C.ar    1  LIG1        0.0365
      6 C          -6.8210   -0.3670    0.0000 C.ar    1  LIG1        0.0029
      7 C          -7.8130   -0.3670    0.0000 C.ar    1  LIG1        0.0001
      8 C          -8.3380    0.4830    0.0000 C.ar    1  LIG1        0.0000
      9 C          -7.8460    1.3250    0.0000 C.ar    1  LIG1        0.0001
     10 C          -6.8540    1.3250    0.0000 C.ar    1  LIG1        0.0029
     11 C          -2.8500   -0.3670    0.0000 C.ar    1  LIG1        0.1064
     12 C          -2.3080   -1.2710    0.0000 C.ar    1  LIG1        0.0215
     13 C          -1.3080   -1.2710    0.0000 C.ar    1  LIG1        0.0388
     14 C          -0.7920   -0.3670    0.0000 C.ar    1  LIG1        0.1454
     15 O          -0.0630   -0.3880    0.0000 O.3     1  LIG1       -0.4535
     16 C           0.7420   -0.3880    0.0000 C.ar    1  LIG1        0.1454
     17 C           1.2460    0.5170    0.0000 C.ar    1  LIG1        0.0388
     18 C           2.2460    0.5170    0.0000 C.ar    1  LIG1        0.0215
     19 C           2.7500   -0.4130    0.0000 C.ar    1  LIG1        0.1064
     20 S           3.7960   -0.4130    0.0000 S.O2    1  LIG1        0.0162
     21 C           4.7960   -0.4130    0.0000 C.3     1  LIG1        0.2244
     22 C           5.2960    0.5170    0.0000 C.2     1  LIG1        0.1972
     23 O           4.8210    1.3830    0.0000 O.2     1  LIG1       -0.2895
     24 C           6.3080    0.5170    0.0000 C.ar    1  LIG1        0.0365
     25 C           6.8130   -0.3670    0.0000 C.ar    1  LIG1        0.0029
     26 C           7.8710   -0.3670    0.0000 C.ar    1  LIG1        0.0001
     27 C           8.3380    0.5460    0.0000 C.ar    1  LIG1        0.0000
     28 C           7.8250    1.4170    0.0000 C.ar    1  LIG1        0.0001
     29 C           6.8460    1.4170    0.0000 C.ar    1  LIG1        0.0029
     30 O           3.7960    0.6250    0.0000 O.2     1  LIG1       -0.1682
     31 O           3.7960   -1.4130    0.0000 O.2     1  LIG1       -0.1682
     32 C           2.2460   -1.2710    0.0000 C.ar    1  LIG1        0.0215
     33 C           1.2460   -1.2710    0.0000 C.ar    1  LIG1        0.0388
     34 C          -1.3080    0.5170    0.0000 C.ar    1  LIG1        0.0388
     35 C          -2.3420    0.5170    0.0000 C.ar    1  LIG1        0.0215
     36 O          -3.8500    0.6460    0.0000 O.2     1  LIG1       -0.1682
     37 O          -3.8500   -1.3670    0.0000 O.2     1  LIG1       -0.1682
@<TRIPOS>BOND
     1     1     2    1
     2     1    11    1
     3     1    36    2
     4     1    37    2
     5     2     3    1
     6     3     4    2
     7     3     5    1
     8     5     6   ar
     9     5    10   ar
    10     6     7   ar
    11     7     8   ar
    12     8     9   ar
    13     9    10   ar
    14    11    12   ar
    15    11    35   ar
    16    12    13   ar
    17    13    14   ar
    18    14    15    1
    19    14    34   ar
    20    15    16    1
    21    16    17   ar
    22    16    33   ar
    23    17    18   ar
    24    18    19   ar
    25    19    20    1
    26    19    32   ar
    27    20    21    1
    28    20    30    2
    29    20    31    2
    30    21    22    1
    31    22    23    2
    32    22    24    1
    33    24    25   ar
    34    24    29   ar
    35    25    26   ar
    36    26    27   ar
    37    27    28   ar
    38    28    29   ar
    39    32    33   ar
    40    34    35   ar
