@<TRIPOS>MOLECULE
33486_ChemDiv_8009-3864
 21 24 0 0 0
SMALL
GASTEIGER
Energy = 0

@<TRIPOS>ATOM
      1 N           0.3420    2.0420    0.0000 N.ar    1  LIG1       -0.0622
      2 N          -0.2460    1.2380    0.0000 N.ar    1  LIG1       -0.2094
      3 C          -1.1920    1.5580    0.0000 C.ar    1  LIG1        0.1008
      4 C          -1.1920    2.5500    0.0000 C.ar    1  LIG1        0.1218
      5 N          -0.2330    2.8500    0.0000 N.ar    1  LIG1       -0.1287
      6 C          -2.0500    3.0380    0.0000 C.ar    1  LIG1        0.0225
      7 C          -2.9250    2.5290    0.0000 C.ar    1  LIG1        0.0017
      8 C          -2.9290    1.5580    0.0000 C.ar    1  LIG1        0.0016
      9 C          -2.0500    1.0420    0.0000 C.ar    1  LIG1        0.0204
     10 C           0.0790    0.2880    0.0000 C.3     1  LIG1        0.2423
     11 N          -0.6130   -0.4540    0.0000 N.pl3   1  LIG1       -0.1896
     12 C          -0.2920   -1.4080    0.0000 C.ar    1  LIG1        0.2149
     13 C           0.6750   -1.6250    0.0000 C.ar    1  LIG1        0.1973
     14 C           1.4330   -0.9790    0.0000 C.ar    1  LIG1        0.2277
     15 N           2.4130   -1.1920    0.0000 N.ar    1  LIG1       -0.1814
     16 C           2.9250   -0.3330    0.0000 C.ar    1  LIG1        0.3164
     17 O           2.2750    0.4290    0.0000 O.2     1  LIG1       -0.3273
     18 N           1.3500    0.0290    0.0000 N.ar    1  LIG1       -0.0536
     19 N           0.7670   -2.6170    0.0000 N.ar    1  LIG1       -0.0436
     20 O          -0.1250   -3.0330    0.0000 O.2     1  LIG1       -0.2401
     21 N          -0.7920   -2.2670    0.0000 N.ar    1  LIG1       -0.0315
@<TRIPOS>BOND
     1     1     2   ar
     2     1     5   ar
     3     2     3   ar
     4     2    10    1
     5     3     4   ar
     6     3     9   ar
     7     4     5   ar
     8     4     6   ar
     9     6     7   ar
    10     7     8   ar
    11     8     9   ar
    12    10    11    1
    13    11    12    1
    14    12    13   ar
    15    12    21   ar
    16    13    14    1
    17    13    19   ar
    18    14    15   ar
    19    14    18   ar
    20    15    16   ar
    21    16    17   ar
    22    17    18   ar
    23    19    20   ar
    24    20    21   ar
