@<TRIPOS>MOLECULE
33499_ChemDiv_8006-3181
 28 30 0 0 0
SMALL
GASTEIGER
Energy = 0

@<TRIPOS>ATOM
      1 C          -4.1920    0.0750    0.0000 C.2     1  LIG1        0.2458
      2 C          -4.9960   -0.6420    0.0000 C.3     1  LIG1        0.0880
      3 C          -4.7790   -1.7380    0.0000 C.3     1  LIG1        0.0311
      4 C          -3.5540   -2.2920    0.0000 C.2     1  LIG1       -0.0305
      5 C          -4.1630   -2.4130    0.0000 C.2     1  LIG1       -0.0306
      6 C          -5.3080   -1.8210    0.0000 C.3     1  LIG1        0.0277
      7 C          -5.5250   -0.7580    0.0000 C.3     1  LIG1        0.0495
      8 C          -4.8750   -0.0960    0.0000 C.2     1  LIG1        0.0508
      9 O          -4.1210   -0.5750    0.0000 O.co2   1  LIG1       -0.5492
     10 O          -4.9580    0.7170    0.0000 O.co2   1  LIG1       -0.5492
     11 C          -6.0000   -2.6670    0.0000 C.3     1  LIG1        0.0095
     12 N          -3.3420   -0.4130    0.0000 N.am    1  LIG1       -0.1792
     13 C          -2.4880    0.1170    0.0000 C.ar    1  LIG1        0.0734
     14 C          -1.6290   -0.3670    0.0000 C.ar    1  LIG1        0.0168
     15 C          -0.7630    0.1460    0.0000 C.ar    1  LIG1        0.0078
     16 C          -0.7630    1.1500    0.0000 C.ar    1  LIG1        0.0757
     17 C           0.0960    1.6540    0.0000 C.2     1  LIG1        0.3412
     18 O           0.0960    2.6710    0.0000 O.2     1  LIG1       -0.2449
     19 O           0.9000    1.1080    0.0000 O.3     1  LIG1       -0.4454
     20 C           1.7880    1.5420    0.0000 C.3     1  LIG1        0.2088
     21 C           2.6080    0.9790    0.0000 C.3     1  LIG1        0.0475
     22 C           3.4920    1.3920    0.0000 C.3     1  LIG1        0.0038
     23 C           4.3000    0.8380    0.0000 C.3     1  LIG1        0.0001
     24 C           5.1920    1.2380    0.0000 C.3     1  LIG1        0.0000
     25 C           5.9960    0.6630    0.0000 C.3     1  LIG1        0.0000
     26 C          -1.6380    1.6380    0.0000 C.ar    1  LIG1        0.0078
     27 C          -2.5170    1.1080    0.0000 C.ar    1  LIG1        0.0168
     28 O          -4.2040    0.8460    0.0000 O.2     1  LIG1       -0.2730
@<TRIPOS>BOND
     1     1     2    1
     2     1    12   am
     3     1    28    2
     4     2     3    1
     5     2     7    1
     6     3     4    1
     7     3    11    1
     8     4     5    2
     9     5     6    1
    10     6     7    1
    11     6    11    1
    12     7     8    1
    13     8     9   ar
    14     8    10   ar
    15    12    13    1
    16    13    14   ar
    17    13    27   ar
    18    14    15   ar
    19    15    16   ar
    20    16    17    1
    21    16    26   ar
    22    17    18    2
    23    17    19    1
    24    19    20    1
    25    20    21    1
    26    21    22    1
    27    22    23    1
    28    23    24    1
    29    24    25    1
    30    26    27   ar
