@<TRIPOS>MOLECULE
33494_ChemDiv_8008-4440
 30 32 0 0 0
SMALL
GASTEIGER
Energy = 0

@<TRIPOS>ATOM
      1 C           3.0000   -0.2170    0.0000 C.ar    1  LIG1        0.1090
      2 C           2.9250    0.7540    0.0000 C.ar    1  LIG1        0.0976
      3 C           1.9500    1.0130    0.0000 C.ar    1  LIG1        0.0170
      4 C           1.4080    0.1250    0.0000 C.ar    1  LIG1        0.0653
      5 S           2.0880   -0.6250    0.0000 S.2     1  LIG1       -0.0672
      6 C           0.4080    0.1380    0.0000 C.ar    1  LIG1        0.1507
      7 O          -0.1040   -0.7000    0.0000 O.3     1  LIG1       -0.4715
      8 C          -1.1250   -0.6830    0.0000 C.3     1  LIG1        0.2443
      9 C          -1.6500   -1.5380    0.0000 C.3     1  LIG1        0.2514
     10 C          -2.6380   -1.4960    0.0000 C.3     1  LIG1        0.1758
     11 N          -3.1540   -2.3170    0.0000 N.4     1  LIG1        0.3793
     12 C          -2.7420   -3.2170    0.0000 C.3     1  LIG1        0.1387
     13 C          -3.2790   -4.0290    0.0000 C.3     1  LIG1        0.0629
     14 C          -4.2830   -3.9500    0.0000 C.3     1  LIG1        0.0123
     15 C          -4.6880   -3.0540    0.0000 C.3     1  LIG1        0.0629
     16 C          -4.1210   -2.2750    0.0000 C.3     1  LIG1        0.1387
     17 O          -1.2000   -2.4210    0.0000 O.3     1  LIG1       -0.2127
     18 C          -0.0290    1.0380    0.0000 C.ar    1  LIG1        0.0690
     19 C           0.4670    1.8790    0.0000 C.ar    1  LIG1        0.0098
     20 C           1.4420    1.8790    0.0000 C.ar    1  LIG1        0.0015
     21 BR         -1.0790    1.0920    0.0000 Br      1  LIG1       -0.0458
     22 C           3.7210    1.4130    0.0000 C.2     1  LIG1        0.3430
     23 O           4.6830    1.0920    0.0000 O.2     1  LIG1       -0.2448
     24 O           3.5130    2.4170    0.0000 O.3     1  LIG1       -0.4454
     25 C           4.3080    3.0710    0.0000 C.3     1  LIG1        0.2089
     26 C           4.1130    4.0290    0.0000 C.3     1  LIG1        0.0513
     27 N           3.8580   -0.7750    0.0000 N.am    1  LIG1       -0.1724
     28 C           3.8080   -1.7790    0.0000 C.2     1  LIG1        0.2465
     29 O           2.9380   -2.2750    0.0000 O.2     1  LIG1       -0.2730
     30 C           4.6540   -2.3170    0.0000 C.3     1  LIG1        0.0968
@<TRIPOS>BOND
     1     1     2   ar
     2     1     5   ar
     3     1    27    1
     4     2     3   ar
     5     2    22    1
     6     3     4   ar
     7     3    20   ar
     8     4     5   ar
     9     4     6   ar
    10     6     7    1
    11     6    18   ar
    12     7     8    1
    13     8     9    1
    14     9    10    1
    15     9    17    1
    16    10    11    1
    17    11    12    1
    18    11    16    1
    19    12    13    1
    20    13    14    1
    21    14    15    1
    22    15    16    1
    23    18    19   ar
    24    18    21    1
    25    19    20   ar
    26    22    23    2
    27    22    24    1
    28    24    25    1
    29    25    26    1
    30    27    28   am
    31    28    29    2
    32    28    30    1
