@<TRIPOS>MOLECULE
33496_ChemDiv_8008-4502
 22 24 0 0 0
SMALL
GASTEIGER
Energy = 0

@<TRIPOS>ATOM
      1 N          -0.3250   -1.5330    0.0000 N.ar    1  LIG1       -0.2914
      2 C           0.4960   -0.9630    0.0000 C.ar    1  LIG1        0.1814
      3 N           0.1670    0.0000    0.0000 N.ar    1  LIG1       -0.2058
      4 N          -0.8250    0.0000    0.0000 N.ar    1  LIG1       -0.1482
      5 C          -1.1000   -0.9710    0.0000 C.ar    1  LIG1        0.1648
      6 C          -2.0790   -1.2130    0.0000 C.ar    1  LIG1        0.0359
      7 C          -2.3290   -2.1750    0.0000 C.ar    1  LIG1        0.0030
      8 C          -3.3170   -2.4630    0.0000 C.ar    1  LIG1        0.0001
      9 C          -4.0330   -1.7580    0.0000 C.ar    1  LIG1        0.0000
     10 C          -3.7710   -0.7750    0.0000 C.ar    1  LIG1        0.0001
     11 C          -2.7960   -0.5130    0.0000 C.ar    1  LIG1        0.0030
     12 C           0.8250    0.7500    0.0000 C.3     1  LIG1        0.2413
     13 N           1.7790    0.5330    0.0000 N.pl3   1  LIG1       -0.2118
     14 C           2.4040    1.2920    0.0000 C.ar    1  LIG1        0.0675
     15 C           2.0670    2.2250    0.0000 C.ar    1  LIG1        0.0162
     16 C           2.6960    3.0130    0.0000 C.ar    1  LIG1        0.0013
     17 C           3.6750    2.8540    0.0000 C.ar    1  LIG1        0.0001
     18 C           4.0290    1.9000    0.0000 C.ar    1  LIG1        0.0013
     19 C           3.3880    1.1420    0.0000 C.ar    1  LIG1        0.0162
     20 S           1.4500   -1.2500    0.0000 S.2     1  LIG1       -0.0111
     21 C          -0.2790   -2.5540    0.0000 C.3     1  LIG1        0.1095
     22 C           0.5920   -3.0080    0.0000 C.3     1  LIG1        0.0266
@<TRIPOS>BOND
     1     1     2   ar
     2     1     5   ar
     3     1    21    1
     4     2     3   ar
     5     2    20    2
     6     3     4   ar
     7     3    12    1
     8     4     5   ar
     9     5     6    1
    10     6     7   ar
    11     6    11   ar
    12     7     8   ar
    13     8     9   ar
    14     9    10   ar
    15    10    11   ar
    16    12    13    1
    17    13    14    1
    18    14    15   ar
    19    14    19   ar
    20    15    16   ar
    21    16    17   ar
    22    17    18   ar
    23    18    19   ar
    24    21    22    1
