@<TRIPOS>MOLECULE
33508_ChemDiv_8012-0005
 21 24 0 0 0
SMALL
GASTEIGER
Energy = 0

@<TRIPOS>ATOM
      1 C           1.1540   -0.0040    0.0000 C.ar    1  LIG1        0.0960
      2 C           0.2380   -0.0040    0.0000 C.ar    1  LIG1        0.2669
      3 N          -0.2380    0.7710    0.0000 N.ar    1  LIG1       -0.1850
      4 C          -1.6080   -0.0040    0.0000 C.ar    1  LIG1        0.2276
      5 C          -2.5170   -0.0040    0.0000 C.ar    1  LIG1        0.1990
      6 C          -3.8960    0.7880    0.0000 C.ar    1  LIG1        0.2342
      7 N          -4.3670   -0.0040    0.0000 N.ar    1  LIG1       -0.0297
      8 O          -3.8960   -0.7960    0.0000 O.2     1  LIG1       -0.2401
      9 N          -2.9830   -0.7960    0.0000 N.ar    1  LIG1       -0.0435
     10 N          -4.3420    1.5830    0.0000 N.pl3   1  LIG1       -0.1018
     11 N          -1.1460   -0.7960    0.0000 N.ar    1  LIG1       -0.0538
     12 O          -0.2330   -0.7960    0.0000 O.2     1  LIG1       -0.3318
     13 S           1.6210   -0.7960    0.0000 S.2     1  LIG1       -0.0813
     14 C           2.5330   -0.7960    0.0000 C.ar    1  LIG1        0.0304
     15 C           3.0000   -0.0040    0.0000 C.ar    1  LIG1        0.0172
     16 C           1.6210    0.7880    0.0000 C.ar    1  LIG1        0.0687
     17 CL          1.1790    1.5830    0.0000 Cl      1  LIG1       -0.0816
     18 C           3.9500   -0.0040    0.0000 C.ar    1  LIG1        0.0014
     19 C           4.3630   -0.8080    0.0000 C.ar    1  LIG1        0.0001
     20 C           3.9330   -1.5790    0.0000 C.ar    1  LIG1        0.0005
     21 C           2.9750   -1.5790    0.0000 C.ar    1  LIG1        0.0065
@<TRIPOS>BOND
     1     1     2    1
     2     1    13   ar
     3     1    16   ar
     4     2     3   ar
     5     2    12   ar
     6     3     4   ar
     7     4     5    1
     8     4    11   ar
     9     5     6   ar
    10     5     9   ar
    11     6     7   ar
    12     6    10    1
    13     7     8   ar
    14     8     9   ar
    15    11    12   ar
    16    13    14   ar
    17    14    15   ar
    18    14    21   ar
    19    15    16   ar
    20    15    18   ar
    21    16    17    1
    22    18    19   ar
    23    19    20   ar
    24    20    21   ar
