@<TRIPOS>MOLECULE
33507_ChemDiv_8003-7742
 20 22 0 0 0
SMALL
GASTEIGER
Energy = 0

@<TRIPOS>ATOM
      1 C          -0.0040    0.9880    0.0000 C.ar    1  LIG1        0.1677
      2 C          -0.0040    0.0330    0.0000 C.ar    1  LIG1        0.1579
      3 C          -0.8670   -0.4880    0.0000 C.ar    1  LIG1        0.2783
      4 N          -1.7380    0.0040    0.0000 N.ar    1  LIG1       -0.2571
      5 C          -1.7380    1.0170    0.0000 C.ar    1  LIG1        0.1515
      6 N          -0.8670    1.5130    0.0000 N.ar    1  LIG1       -0.2106
      7 C          -2.5960    1.5130    0.0000 C.ar    1  LIG1        0.0376
      8 C          -3.4580    0.9880    0.0000 C.ar    1  LIG1        0.0046
      9 C          -3.4580    0.0330    0.0000 C.ar    1  LIG1        0.0192
     10 C          -2.5960   -0.4880    0.0000 C.ar    1  LIG1        0.0844
     11 O          -0.8670   -1.5080    0.0000 O.2     1  LIG1       -0.2657
     12 C           0.8920   -0.4580    0.0000 C.1     1  LIG1        0.1082
     13 N           1.7880   -0.9540    0.0000 N.1     1  LIG1       -0.1906
     14 N           0.8920    1.4830    0.0000 N.pl3   1  LIG1       -0.1934
     15 C           1.7540    0.9250    0.0000 C.ar    1  LIG1        0.0721
     16 C           1.6920   -0.0580    0.0000 C.ar    1  LIG1        0.0166
     17 C           2.5250   -0.6130    0.0000 C.ar    1  LIG1        0.0013
     18 C           3.3920   -0.1500    0.0000 C.ar    1  LIG1        0.0001
     19 C           3.4540    0.8630    0.0000 C.ar    1  LIG1        0.0013
     20 C           2.6170    1.3880    0.0000 C.ar    1  LIG1        0.0166
@<TRIPOS>BOND
     1     1     2   ar
     2     1     6   ar
     3     1    14    1
     4     2     3   ar
     5     2    12    1
     6     3     4   ar
     7     3    11    2
     8     4     5   ar
     9     4    10   ar
    10     5     6   ar
    11     5     7   ar
    12     7     8   ar
    13     8     9   ar
    14     9    10   ar
    15    12    13    3
    16    14    15    1
    17    15    16   ar
    18    15    20   ar
    19    16    17   ar
    20    17    18   ar
    21    18    19   ar
    22    19    20   ar
