@<TRIPOS>MOLECULE
33509_ChemDiv_8003-7752
 14 16 0 0 0
SMALL
GASTEIGER
Energy = 0

@<TRIPOS>ATOM
      1 C           0.1130    0.5080    0.0000 C.ar    1  LIG1        0.0922
      2 C           0.9710    0.0380    0.0000 C.ar    1  LIG1        0.0600
      3 C           0.9710   -0.9880    0.0000 C.ar    1  LIG1        0.2708
      4 N           0.1130   -1.4960    0.0000 N.ar    1  LIG1        0.0659
      5 C          -0.7460   -0.9880    0.0000 C.ar    1  LIG1        0.2708
      6 C          -0.7460    0.0040    0.0000 C.ar    1  LIG1        0.0600
      7 C          -1.6000    0.5080    0.0000 C.3     1  LIG1        0.0336
      8 C          -2.4920    0.0380    0.0000 C.3     1  LIG1        0.0055
      9 C          -2.4920   -0.9880    0.0000 C.3     1  LIG1        0.0117
     10 C          -1.6000   -1.4960    0.0000 C.3     1  LIG1        0.1035
     11 C           1.9170   -1.2830    0.0000 C.3     1  LIG1        0.1039
     12 C           2.4880   -0.4710    0.0000 C.3     1  LIG1        0.0162
     13 C           1.9170    0.3420    0.0000 C.3     1  LIG1        0.0342
     14 N           0.1130    1.5000    0.0000 N.pl3   1  LIG1       -0.1283
@<TRIPOS>BOND
     1     1     2   ar
     2     1     6   ar
     3     1    14    1
     4     2     3   ar
     5     2    13    1
     6     3     4   ar
     7     3    11    1
     8     4     5   ar
     9     5     6   ar
    10     5    10    1
    11     6     7    1
    12     7     8    1
    13     8     9    1
    14     9    10    1
    15    11    12    1
    16    12    13    1
