@<TRIPOS>MOLECULE
33506_ChemDiv_8011-9756
 17 19 0 0 0
SMALL
GASTEIGER
Energy = 0

@<TRIPOS>ATOM
      1 C          -0.9330   -0.3960    0.0000 C.ar    1  LIG1        0.2276
      2 N          -0.4670    0.4080    0.0000 N.ar    1  LIG1       -0.1854
      3 C           0.9330   -0.3960    0.0000 C.ar    1  LIG1        0.2615
      4 O           0.4580   -1.2000    0.0000 O.2     1  LIG1       -0.3323
      5 N          -0.4670   -1.2000    0.0000 N.ar    1  LIG1       -0.0538
      6 C           1.8540   -0.3960    0.0000 C.ar    1  LIG1        0.0752
      7 C           2.3290   -1.2000    0.0000 C.ar    1  LIG1        0.1036
      8 N           3.2500   -1.2000    0.0000 N.ar    1  LIG1       -0.2422
      9 C           3.7250   -0.3960    0.0000 C.ar    1  LIG1        0.0989
     10 C           3.2500    0.4080    0.0000 C.ar    1  LIG1        0.0208
     11 C           2.3290    0.4080    0.0000 C.ar    1  LIG1        0.0079
     12 C          -1.8580   -0.3960    0.0000 C.ar    1  LIG1        0.1990
     13 C          -3.2540    0.4080    0.0000 C.ar    1  LIG1        0.2342
     14 N          -3.7290   -0.3960    0.0000 N.ar    1  LIG1       -0.0297
     15 O          -3.2540   -1.2000    0.0000 O.2     1  LIG1       -0.2401
     16 N          -2.3290   -1.2000    0.0000 N.ar    1  LIG1       -0.0435
     17 N          -3.7040    1.2040    0.0000 N.pl3   1  LIG1       -0.1018
@<TRIPOS>BOND
     1     1     2   ar
     2     1     5   ar
     3     1    12    1
     4     2     3   ar
     5     3     4   ar
     6     3     6    1
     7     4     5   ar
     8     6     7   ar
     9     6    11   ar
    10     7     8   ar
    11     8     9   ar
    12     9    10   ar
    13    10    11   ar
    14    12    13   ar
    15    12    16   ar
    16    13    14   ar
    17    13    17    1
    18    14    15   ar
    19    15    16   ar
