@<TRIPOS>MOLECULE
33503_ChemDiv_8006-4066
 24 28 0 0 0
SMALL
GASTEIGER
Energy = 0

@<TRIPOS>ATOM
      1 C          -0.5330   -1.1750    0.0000 C.3     1  LIG1        0.0526
      2 C          -0.5330    0.0540    0.0000 C.3     1  LIG1        0.0873
      3 C           0.0540    0.8330    0.0000 C.2     1  LIG1        0.2475
      4 N           1.0880    0.8330    0.0000 N.am    1  LIG1       -0.1543
      5 C           1.6670    1.5540    0.0000 C.ar    1  LIG1        0.1858
      6 N           1.3670    2.4670    0.0000 N.ar    1  LIG1       -0.2209
      7 C           2.1630    3.0630    0.0000 C.ar    1  LIG1        0.1079
      8 C           2.9710    2.5000    0.0000 C.ar    1  LIG1        0.0588
      9 S           2.6710    1.5540    0.0000 S.2     1  LIG1       -0.0491
     10 O          -0.6210    1.7250    0.0000 O.2     1  LIG1       -0.2729
     11 C          -1.2040   -0.7710    0.0000 C.3     1  LIG1        0.0185
     12 C          -0.5080   -2.0830    0.0000 C.3     1  LIG1        0.0445
     13 C          -1.3420   -2.5920    0.0000 C.ar    1  LIG1       -0.0221
     14 C          -1.3420   -1.6420    0.0000 C.ar    1  LIG1       -0.0216
     15 C          -2.1500   -1.1670    0.0000 C.ar    1  LIG1       -0.0042
     16 C          -2.9750   -1.6420    0.0000 C.ar    1  LIG1       -0.0003
     17 C          -2.9750   -2.5920    0.0000 C.ar    1  LIG1       -0.0003
     18 C          -2.1500   -3.0580    0.0000 C.ar    1  LIG1       -0.0043
     19 C           0.3460   -2.5580    0.0000 C.ar    1  LIG1       -0.0221
     20 C           0.3460   -1.6080    0.0000 C.ar    1  LIG1       -0.0216
     21 C           1.1580   -1.1500    0.0000 C.ar    1  LIG1       -0.0042
     22 C           2.0000   -1.6080    0.0000 C.ar    1  LIG1       -0.0003
     23 C           2.0000   -2.5580    0.0000 C.ar    1  LIG1       -0.0003
     24 C           1.1580   -3.0330    0.0000 C.ar    1  LIG1       -0.0043
@<TRIPOS>BOND
     1     1     2    1
     2     1    14    1
     3     1    20    1
     4     2     3    1
     5     2    11    1
     6     3     4   am
     7     3    10    2
     8     4     5    1
     9     5     6   ar
    10     5     9   ar
    11     6     7   ar
    12     7     8   ar
    13     8     9   ar
    14    11    12    1
    15    12    13    1
    16    12    19    1
    17    13    14   ar
    18    13    18   ar
    19    14    15   ar
    20    15    16   ar
    21    16    17   ar
    22    17    18   ar
    23    19    20   ar
    24    19    24   ar
    25    20    21   ar
    26    21    22   ar
    27    22    23   ar
    28    23    24   ar
