@<TRIPOS>MOLECULE
33512_ChemDiv_8009-3870
 18 20 0 0 0
SMALL
GASTEIGER
Energy = 0

@<TRIPOS>ATOM
      1 N          -1.6710   -0.1210    0.0000 N.am    1  LIG1       -0.1795
      2 C          -1.2130   -0.9790    0.0000 C.2     1  LIG1        0.2360
      3 C          -1.9460   -1.7210    0.0000 C.3     1  LIG1        0.0954
      4 C          -2.8210   -1.2830    0.0000 C.3     1  LIG1        0.0954
      5 C          -2.6670   -0.3040    0.0000 C.2     1  LIG1        0.2360
      6 O          -3.3830    0.3630    0.0000 O.2     1  LIG1       -0.2743
      7 O          -0.2380   -1.0710    0.0000 O.2     1  LIG1       -0.2743
      8 C          -1.1880    0.7420    0.0000 C.3     1  LIG1        0.2517
      9 N          -0.1960    0.7830    0.0000 N.4     1  LIG1        0.3975
     10 C           0.3380   -0.0290    0.0000 C.3     1  LIG1        0.1684
     11 C           1.3330   -0.0290    0.0000 C.ar    1  LIG1        0.0307
     12 C           1.8040    0.8630    0.0000 C.ar    1  LIG1       -0.0147
     13 C           1.2630    1.7250    0.0000 C.3     1  LIG1        0.0890
     14 C           0.2460    1.6790    0.0000 C.3     1  LIG1        0.1463
     15 C           2.8330    0.8920    0.0000 C.ar    1  LIG1       -0.0042
     16 C           3.3790    0.0630    0.0000 C.ar    1  LIG1       -0.0003
     17 C           2.9080   -0.8460    0.0000 C.ar    1  LIG1       -0.0001
     18 C           1.8830   -0.8460    0.0000 C.ar    1  LIG1        0.0011
@<TRIPOS>BOND
     1     1     2   am
     2     1     5   am
     3     1     8    1
     4     2     3    1
     5     2     7    2
     6     3     4    1
     7     4     5    1
     8     5     6    2
     9     8     9    1
    10     9    10    1
    11     9    14    1
    12    10    11    1
    13    11    12   ar
    14    11    18   ar
    15    12    13    1
    16    12    15   ar
    17    13    14    1
    18    15    16   ar
    19    16    17   ar
    20    17    18   ar
