@<TRIPOS>MOLECULE
33519_ChemDiv_K826-0007
 26 28 0 0 0
SMALL
GASTEIGER
Energy = 0

@<TRIPOS>ATOM
      1 C          -2.6250   -0.2540    0.0000 C.2     1  LIG1        0.2454
      2 C          -3.4830    0.2330    0.0000 C.3     1  LIG1        0.0837
      3 C          -3.4830    1.2130    0.0000 C.3     1  LIG1        0.0452
      4 C          -4.3420    1.7210    0.0000 C.3     1  LIG1        0.0057
      5 C          -4.0880    0.7670    0.0000 C.3     1  LIG1        0.0009
      6 C          -4.3420   -0.2540    0.0000 C.3     1  LIG1        0.0090
      7 C          -5.1880    0.2330    0.0000 C.3     1  LIG1        0.0005
      8 C          -5.1880    1.2130    0.0000 C.3     1  LIG1        0.0004
      9 C          -2.6250    1.7210    0.0000 C.2     1  LIG1        0.0504
     10 O          -2.6080    2.7080    0.0000 O.co2   1  LIG1       -0.5492
     11 O          -1.7420    1.2540    0.0000 O.co2   1  LIG1       -0.5492
     12 N          -1.8790    0.2920    0.0000 N.am    1  LIG1       -0.1792
     13 C          -0.7460   -0.2420    0.0000 C.ar    1  LIG1        0.0734
     14 C           0.0920    0.2630    0.0000 C.ar    1  LIG1        0.0168
     15 C           0.9380   -0.2420    0.0000 C.ar    1  LIG1        0.0078
     16 C           0.9380   -1.2040    0.0000 C.ar    1  LIG1        0.0757
     17 C           1.7920   -1.7130    0.0000 C.2     1  LIG1        0.3412
     18 O           2.6380   -1.2330    0.0000 O.3     1  LIG1       -0.4454
     19 C           3.4920   -1.7130    0.0000 C.3     1  LIG1        0.2086
     20 C           4.3380   -1.2330    0.0000 C.3     1  LIG1        0.0439
     21 C           4.7880   -0.2170    0.0000 C.3     1  LIG1        0.0038
     22 C           5.1830   -1.7130    0.0000 C.3     1  LIG1        0.0038
     23 O           1.7920   -2.7040    0.0000 O.2     1  LIG1       -0.2449
     24 C           0.0920   -1.7130    0.0000 C.ar    1  LIG1        0.0078
     25 C          -0.7460   -1.2040    0.0000 C.ar    1  LIG1        0.0168
     26 O          -2.5330   -1.3040    0.0000 O.2     1  LIG1       -0.2730
@<TRIPOS>BOND
     1     1     2    1
     2     1    12   am
     3     1    26    2
     4     2     3    1
     5     2     6    1
     6     3     4    1
     7     3     9    1
     8     4     5    1
     9     4     8    1
    10     5     6    1
    11     6     7    1
    12     7     8    1
    13     9    10   ar
    14     9    11   ar
    15    12    13    1
    16    13    14   ar
    17    13    25   ar
    18    14    15   ar
    19    15    16   ar
    20    16    17    1
    21    16    24   ar
    22    17    18    1
    23    17    23    2
    24    18    19    1
    25    19    20    1
    26    20    21    1
    27    20    22    1
    28    24    25   ar
