@<TRIPOS>MOLECULE
33517_ChemDiv_8004-3475
 20 22 0 0 0
SMALL
GASTEIGER
Energy = 0

@<TRIPOS>ATOM
      1 C          -2.6960   -0.0170    0.0000 C.3     1  LIG1        0.0786
      2 C          -3.5500   -0.5040    0.0000 C.3     1  LIG1        0.0087
      3 C          -3.5790    0.5210    0.0000 C.3     1  LIG1        0.0096
      4 C          -4.5330   -0.7710    0.0000 C.3     1  LIG1        0.0005
      5 C          -4.2790   -1.7170    0.0000 C.3     1  LIG1        0.0000
      6 C          -3.2960   -1.4500    0.0000 C.3     1  LIG1        0.0005
      7 C          -1.6710   -0.0290    0.0000 C.2     1  LIG1        0.2451
      8 N          -1.1630    0.8710    0.0000 N.am    1  LIG1       -0.1792
      9 C          -0.1250    0.8710    0.0000 C.ar    1  LIG1        0.0734
     10 C           0.3380    1.7210    0.0000 C.ar    1  LIG1        0.0168
     11 C           1.3580    1.7210    0.0000 C.ar    1  LIG1        0.0078
     12 C           1.8250    0.8080    0.0000 C.ar    1  LIG1        0.0757
     13 C           2.8130    0.7540    0.0000 C.2     1  LIG1        0.3412
     14 O           3.3830    1.6210    0.0000 O.2     1  LIG1       -0.2449
     15 O           3.1790   -0.1380    0.0000 O.3     1  LIG1       -0.4454
     16 C           4.1420   -0.3040    0.0000 C.3     1  LIG1        0.2089
     17 C           4.5290   -1.2040    0.0000 C.3     1  LIG1        0.0513
     18 C           1.3290   -0.0170    0.0000 C.ar    1  LIG1        0.0078
     19 C           0.3250    0.0000    0.0000 C.ar    1  LIG1        0.0168
     20 O          -1.1880   -0.8670    0.0000 O.2     1  LIG1       -0.2730
@<TRIPOS>BOND
     1     1     2    1
     2     1     3    1
     3     1     7    1
     4     2     3    1
     5     2     4    1
     6     2     6    1
     7     4     5    1
     8     5     6    1
     9     7     8   am
    10     7    20    2
    11     8     9    1
    12     9    10   ar
    13     9    19   ar
    14    10    11   ar
    15    11    12   ar
    16    12    13    1
    17    12    18   ar
    18    13    14    2
    19    13    15    1
    20    15    16    1
    21    16    17    1
    22    18    19   ar
