@<TRIPOS>MOLECULE
33527_ChemDiv_8006-4571
 30 33 0 0 0
SMALL
GASTEIGER
Energy = 0

@<TRIPOS>ATOM
      1 N           1.5330    0.9750    0.0000 N.3     1  LIG1       -0.1350
      2 S           2.4250    0.4750    0.0000 S.O2    1  LIG1        0.0647
      3 O           2.9170    1.3580    0.0000 O.2     1  LIG1       -0.1527
      4 O           1.9250   -0.3830    0.0000 O.2     1  LIG1       -0.1527
      5 C           3.2790   -0.0250    0.0000 C.ar    1  LIG1        0.1223
      6 C           3.2790   -1.0210    0.0000 C.ar    1  LIG1        0.0199
      7 C           4.1380   -1.5210    0.0000 C.ar    1  LIG1        0.0014
      8 C           5.0210   -1.0210    0.0000 C.ar    1  LIG1        0.0001
      9 C           5.0210   -0.0250    0.0000 C.ar    1  LIG1        0.0014
     10 C           4.1380    0.4750    0.0000 C.ar    1  LIG1        0.0199
     11 C           0.6210    0.5830    0.0000 C.3     1  LIG1        0.1810
     12 N          -0.0420    1.3290    0.0000 N.3     1  LIG1       -0.1350
     13 S          -1.0420    1.3290    0.0000 S.O2    1  LIG1        0.0647
     14 C          -2.0290    1.3290    0.0000 C.ar    1  LIG1        0.1222
     15 C          -2.5290    0.4460    0.0000 C.ar    1  LIG1        0.0196
     16 C          -3.5250    0.4460    0.0000 C.ar    1  LIG1       -0.0029
     17 C          -4.0250    1.3080    0.0000 C.ar    1  LIG1       -0.0218
     18 C          -3.5250    2.1920    0.0000 C.ar    1  LIG1       -0.0029
     19 C          -2.5290    2.1920    0.0000 C.ar    1  LIG1        0.0196
     20 C          -5.0250    1.3080    0.0000 C.3     1  LIG1        0.0310
     21 O          -1.0420    2.3290    0.0000 O.2     1  LIG1       -0.1527
     22 O          -1.0420    0.3330    0.0000 O.2     1  LIG1       -0.1527
     23 C           0.4580    2.1920    0.0000 C.3     1  LIG1        0.1168
     24 C           1.4540    1.9670    0.0000 C.3     1  LIG1        0.1168
     25 C           0.4130   -0.3830    0.0000 C.ar    1  LIG1        0.0105
     26 C           1.1460   -1.0500    0.0000 C.ar    1  LIG1       -0.0015
     27 C           0.9380   -2.0210    0.0000 C.ar    1  LIG1       -0.0002
     28 C          -0.0130   -2.3250    0.0000 C.ar    1  LIG1       -0.0000
     29 C          -0.7540   -1.6580    0.0000 C.ar    1  LIG1       -0.0002
     30 C          -0.5290   -0.6750    0.0000 C.ar    1  LIG1       -0.0015
@<TRIPOS>BOND
     1     1     2    1
     2     1    11    1
     3     1    24    1
     4     2     3    2
     5     2     4    2
     6     2     5    1
     7     5     6   ar
     8     5    10   ar
     9     6     7   ar
    10     7     8   ar
    11     8     9   ar
    12     9    10   ar
    13    11    12    1
    14    11    25    1
    15    12    13    1
    16    12    23    1
    17    13    14    1
    18    13    21    2
    19    13    22    2
    20    14    15   ar
    21    14    19   ar
    22    15    16   ar
    23    16    17   ar
    24    17    18   ar
    25    17    20    1
    26    18    19   ar
    27    23    24    1
    28    25    26   ar
    29    25    30   ar
    30    26    27   ar
    31    27    28   ar
    32    28    29   ar
    33    29    30   ar
