@<TRIPOS>MOLECULE
33521_ChemDiv_8008-8085
 25 29 0 0 0
SMALL
GASTEIGER
Energy = 0

@<TRIPOS>ATOM
      1 C          -0.6290    0.8790    0.0000 C.3     1  LIG1        0.0790
      2 C          -0.3830   -0.2880    0.0000 C.3     1  LIG1        0.0521
      3 C           0.5630   -0.9210    0.0000 C.ar    1  LIG1       -0.0216
      4 C           0.5460   -1.8540    0.0000 C.ar    1  LIG1       -0.0221
      5 C          -0.4830   -1.3420    0.0000 C.3     1  LIG1        0.0444
      6 C          -1.6380   -1.8040    0.0000 C.ar    1  LIG1       -0.0221
      7 C          -1.6250   -0.8710    0.0000 C.ar    1  LIG1       -0.0216
      8 C          -2.4290   -0.4000    0.0000 C.ar    1  LIG1       -0.0042
      9 C          -3.2380   -0.8630    0.0000 C.ar    1  LIG1       -0.0003
     10 C          -3.2500   -1.7920    0.0000 C.ar    1  LIG1       -0.0003
     11 C          -2.4420   -2.2750    0.0000 C.ar    1  LIG1       -0.0043
     12 C          -1.0290    0.4330    0.0000 C.3     1  LIG1        0.0180
     13 C           1.3540   -2.3380    0.0000 C.ar    1  LIG1       -0.0043
     14 C           2.1750   -1.8670    0.0000 C.ar    1  LIG1       -0.0003
     15 C           2.1750   -0.9330    0.0000 C.ar    1  LIG1       -0.0003
     16 C           1.3710   -0.4630    0.0000 C.ar    1  LIG1       -0.0042
     17 C           0.1630    1.3540    0.0000 C.2     1  LIG1        0.2470
     18 N           0.9580    0.8920    0.0000 N.am    1  LIG1       -0.1543
     19 C           1.7670    1.3540    0.0000 C.ar    1  LIG1        0.1858
     20 N           1.9540    2.2540    0.0000 N.ar    1  LIG1       -0.2209
     21 C           2.8710    2.3420    0.0000 C.ar    1  LIG1        0.1079
     22 C           3.2460    1.5000    0.0000 C.ar    1  LIG1        0.0588
     23 S           2.5580    0.8920    0.0000 S.2     1  LIG1       -0.0491
     24 O           0.1630    2.2830    0.0000 O.2     1  LIG1       -0.2729
     25 C          -1.4380    1.3540    0.0000 C.3     1  LIG1        0.0098
@<TRIPOS>BOND
     1     1     2    1
     2     1    12    1
     3     1    17    1
     4     1    25    1
     5     2     3    1
     6     2     7    1
     7     3     4   ar
     8     3    16   ar
     9     4     5    1
    10     4    13   ar
    11     5     6    1
    12     5    12    1
    13     6     7   ar
    14     6    11   ar
    15     7     8   ar
    16     8     9   ar
    17     9    10   ar
    18    10    11   ar
    19    13    14   ar
    20    14    15   ar
    21    15    16   ar
    22    17    18   am
    23    17    24    2
    24    18    19    1
    25    19    20   ar
    26    19    23   ar
    27    20    21   ar
    28    21    22   ar
    29    22    23   ar
