@<TRIPOS>MOLECULE
33526_ChemDiv_8009-8356
 26 29 0 0 0
SMALL
GASTEIGER
Energy = 0

@<TRIPOS>ATOM
      1 C          -0.0420   -0.7250    0.0000 C.3     1  LIG1        0.2838
      2 N           0.7960   -1.2170    0.0000 N.2     1  LIG1        0.0679
      3 C           0.7960   -2.2330    0.0000 C.2     1  LIG1        0.3897
      4 N          -0.0710   -2.7330    0.0000 N.pl3   1  LIG1       -0.1718
      5 C          -0.9040   -2.2330    0.0000 C.3     1  LIG1        0.0891
      6 C          -0.9040   -1.2170    0.0000 C.3     1  LIG1        0.1024
      7 C          -1.7750   -1.7130    0.0000 C.3     1  LIG1        0.0221
      8 C          -1.7460   -2.7580    0.0000 C.3     1  LIG1        0.0221
      9 S           1.6540   -2.7460    0.0000 S.3     1  LIG1       -0.0211
     10 C           2.5040   -2.2670    0.0000 C.3     1  LIG1        0.0818
     11 C          -0.9040   -0.2290    0.0000 C.ar    1  LIG1        0.0816
     12 C          -0.9040    0.7540    0.0000 C.ar    1  LIG1        0.1443
     13 O          -0.0420    1.2500    0.0000 O.3     1  LIG1       -0.4745
     14 C           0.8290    0.7540    0.0000 C.3     1  LIG1        0.1953
     15 C           0.8290   -0.2290    0.0000 C.3     1  LIG1        0.1303
     16 C           1.7710    1.2670    0.0000 C.ar    1  LIG1        0.0174
     17 C           1.7710    2.2830    0.0000 C.ar    1  LIG1       -0.0008
     18 C           2.6420    2.7630    0.0000 C.ar    1  LIG1       -0.0002
     19 C           3.5080    2.2830    0.0000 C.ar    1  LIG1       -0.0000
     20 C           3.5080    1.2670    0.0000 C.ar    1  LIG1       -0.0002
     21 C           2.6420    0.7710    0.0000 C.ar    1  LIG1       -0.0008
     22 C          -1.7750    1.2500    0.0000 C.ar    1  LIG1        0.0788
     23 C          -2.6460    0.7540    0.0000 C.ar    1  LIG1        0.1988
     24 C          -2.6460   -0.2290    0.0000 C.ar    1  LIG1        0.0421
     25 C          -1.7750   -0.7250    0.0000 C.ar    1  LIG1        0.0085
     26 O          -3.5130    1.2500    0.0000 O.3     1  LIG1       -0.2865
@<TRIPOS>BOND
     1     1     2    1
     2     1     6    1
     3     1    11    1
     4     1    15    1
     5     2     3    2
     6     3     4    1
     7     3     9    1
     8     4     5    1
     9     5     6    1
    10     5     7    1
    11     5     8    1
    12     9    10    1
    13    11    12   ar
    14    11    25   ar
    15    12    13    1
    16    12    22   ar
    17    13    14    1
    18    14    15    1
    19    14    16    1
    20    16    17   ar
    21    16    21   ar
    22    17    18   ar
    23    18    19   ar
    24    19    20   ar
    25    20    21   ar
    26    22    23   ar
    27    23    24   ar
    28    23    26    1
    29    24    25   ar
