@<TRIPOS>MOLECULE
33535_ChemDiv_8006-5037
 19 20 0 0 0
SMALL
GASTEIGER
Energy = 0

@<TRIPOS>ATOM
      1 C          -0.8630    0.2580    0.0000 C.ar    1  LIG1        0.0129
      2 C          -0.0040   -0.2540    0.0000 C.ar    1  LIG1       -0.0031
      3 C          -0.0040   -1.2460    0.0000 C.ar    1  LIG1        0.0557
      4 N          -0.8630   -1.7540    0.0000 N.ar    1  LIG1       -0.2500
      5 C          -1.7290   -1.2460    0.0000 C.ar    1  LIG1        0.0809
      6 C          -1.7290   -0.2540    0.0000 C.ar    1  LIG1        0.0185
      7 C          -2.5960    0.2580    0.0000 C.ar    1  LIG1        0.0015
      8 C          -3.4630   -0.2540    0.0000 C.ar    1  LIG1        0.0001
      9 C          -3.4630   -1.2460    0.0000 C.ar    1  LIG1        0.0015
     10 C          -2.5960   -1.7540    0.0000 C.ar    1  LIG1        0.0191
     11 C           0.8630   -1.7540    0.0000 C.3     1  LIG1        0.0518
     12 C           0.8630    0.2580    0.0000 C.3     1  LIG1        0.0529
     13 C           1.7250   -0.2250    0.0000 C.2     1  LIG1       -0.0298
     14 C           2.5920    0.2920    0.0000 C.2     1  LIG1       -0.0475
     15 C           2.5630    1.2830    0.0000 C.3     1  LIG1        0.0260
     16 C           3.4580   -0.1920    0.0000 C.3     1  LIG1        0.0260
     17 C          -0.8630    1.2500    0.0000 C.2     1  LIG1        0.0727
     18 O          -1.7290    1.7580    0.0000 O.co2   1  LIG1       -0.5446
     19 O          -0.0040    1.7580    0.0000 O.co2   1  LIG1       -0.5446
@<TRIPOS>BOND
     1     1     2   ar
     2     1     6   ar
     3     1    17    1
     4     2     3   ar
     5     2    12    1
     6     3     4   ar
     7     3    11    1
     8     4     5   ar
     9     5     6   ar
    10     5    10   ar
    11     6     7   ar
    12     7     8   ar
    13     8     9   ar
    14     9    10   ar
    15    12    13    1
    16    13    14    2
    17    14    15    1
    18    14    16    1
    19    17    18   ar
    20    17    19   ar
