@<TRIPOS>MOLECULE
33534_ChemDiv_8008-6206
 24 27 0 0 0
SMALL
GASTEIGER
Energy = 0

@<TRIPOS>ATOM
      1 N          -1.3880    0.1830    0.0000 N.am    1  LIG1       -0.1996
      2 C          -0.1420    0.7290    0.0000 C.2     1  LIG1        0.2589
      3 C           0.8750    0.7290    0.0000 C.ar    1  LIG1        0.0587
      4 C           0.8750   -0.2130    0.0000 C.ar    1  LIG1        0.0587
      5 C          -0.1880   -0.2420    0.0000 C.2     1  LIG1        0.2589
      6 O          -0.1880   -1.2210    0.0000 O.2     1  LIG1       -0.2691
      7 C           1.6830   -0.6920    0.0000 C.ar    1  LIG1        0.0047
      8 C           2.5000   -0.2250    0.0000 C.ar    1  LIG1        0.0013
      9 C           2.5000    0.7250    0.0000 C.ar    1  LIG1        0.0141
     10 C           1.6880    1.1920    0.0000 C.ar    1  LIG1        0.0058
     11 C           3.5920    1.3170    0.0000 C.2     1  LIG1        0.0729
     12 O           3.6130    2.2500    0.0000 O.co2   1  LIG1       -0.5446
     13 O           4.3880    0.8330    0.0000 O.co2   1  LIG1       -0.5446
     14 O          -0.1420    1.8500    0.0000 O.2     1  LIG1       -0.2691
     15 C          -2.5080    0.1830    0.0000 C.ar    1  LIG1        0.0788
     16 C          -2.9880   -0.6130    0.0000 C.ar    1  LIG1        0.0953
     17 N          -2.5210   -1.4330    0.0000 N.ar    1  LIG1       -0.2426
     18 C          -2.9960   -2.2460    0.0000 C.ar    1  LIG1        0.0989
     19 C          -3.9330   -2.2460    0.0000 C.ar    1  LIG1        0.0207
     20 C          -4.3920   -1.4330    0.0000 C.ar    1  LIG1        0.0031
     21 C          -3.9330   -0.6130    0.0000 C.ar    1  LIG1        0.0189
     22 C          -4.3920    0.1920    0.0000 C.ar    1  LIG1        0.0016
     23 C          -3.9210    1.0040    0.0000 C.ar    1  LIG1        0.0014
     24 C          -2.9880    1.0040    0.0000 C.ar    1  LIG1        0.0169
@<TRIPOS>BOND
     1     1     2   am
     2     1     5   am
     3     1    15    1
     4     2     3    1
     5     2    14    2
     6     3     4   ar
     7     3    10   ar
     8     4     5    1
     9     4     7   ar
    10     5     6    2
    11     7     8   ar
    12     8     9   ar
    13     9    10   ar
    14     9    11    1
    15    11    12   ar
    16    11    13   ar
    17    15    16   ar
    18    15    24   ar
    19    16    17   ar
    20    16    21   ar
    21    17    18   ar
    22    18    19   ar
    23    19    20   ar
    24    20    21   ar
    25    21    22   ar
    26    22    23   ar
    27    23    24   ar
