@<TRIPOS>MOLECULE
33530_ChemDiv_8008-6018
 17 19 0 0 0
SMALL
GASTEIGER
Energy = 0

@<TRIPOS>ATOM
      1 C           0.1040    0.5290    0.0000 C.3     1  LIG1        0.2006
      2 C           0.1040   -0.5210    0.0000 C.3     1  LIG1        0.2063
      3 C           1.0790   -0.8250    0.0000 C.2     1  LIG1        0.3994
      4 N           1.6880    0.0170    0.0000 N.am    1  LIG1        0.0320
      5 C           1.0790    0.8540    0.0000 C.2     1  LIG1        0.3660
      6 O           1.4290    1.8330    0.0000 O.2     1  LIG1       -0.2417
      7 N           1.4290   -1.8250    0.0000 N.pl3   1  LIG1        0.2099
      8 C           0.1420   -1.5330    0.0000 C.1     1  LIG1        0.0849
      9 N           0.1880   -2.5960    0.0000 N.1     1  LIG1       -0.1953
     10 C          -0.7830   -1.0330    0.0000 C.3     1  LIG1        0.0477
     11 C          -1.6920   -0.4960    0.0000 C.2     1  LIG1       -0.0293
     12 C          -1.6920    0.5290    0.0000 C.2     1  LIG1       -0.0294
     13 C          -0.7830    1.0420    0.0000 C.3     1  LIG1        0.0472
     14 C          -0.2790    0.3330    0.0000 C.3     1  LIG1        0.0063
     15 C          -0.2790   -0.3790    0.0000 C.3     1  LIG1        0.0064
     16 C           0.1040    1.5750    0.0000 C.1     1  LIG1        0.0844
     17 N           0.0830    2.6000    0.0000 N.1     1  LIG1       -0.1953
@<TRIPOS>BOND
     1     1     2    1
     2     1     5    1
     3     1    13    1
     4     1    16    1
     5     2     3    1
     6     2     8    1
     7     2    10    1
     8     3     4    2
     9     3     7    1
    10     4     5   am
    11     5     6    2
    12     8     9    3
    13    10    11    1
    14    10    15    1
    15    11    12    2
    16    12    13    1
    17    13    14    1
    18    14    15    1
    19    16    17    3
