@<TRIPOS>MOLECULE
33532_ChemDiv_8008-6119
 26 28 0 0 0
SMALL
GASTEIGER
Energy = 0

@<TRIPOS>ATOM
      1 C           1.1210   -0.6080    0.0000 C.3     1  LIG1        0.1658
      2 O           1.1130    0.1710    0.0000 O.3     1  LIG1       -0.4480
      3 C           1.7750    0.5580    0.0000 C.2     1  LIG1        0.3413
      4 O           2.5000    0.1420    0.0000 O.2     1  LIG1       -0.2449
      5 C           1.7380    1.3420    0.0000 C.ar    1  LIG1        0.0757
      6 C           1.0330    1.7170    0.0000 C.ar    1  LIG1        0.0064
      7 C           0.9960    2.5080    0.0000 C.ar    1  LIG1        0.0002
      8 C           1.6710    2.9710    0.0000 C.ar    1  LIG1        0.0000
      9 C           2.3330    2.5960    0.0000 C.ar    1  LIG1        0.0002
     10 C           2.4040    1.7830    0.0000 C.ar    1  LIG1        0.0064
     11 C           0.7500   -1.7630    0.0000 C.3     1  LIG1        0.1012
     12 C          -0.7670   -1.3000    0.0000 C.3     1  LIG1        0.0907
     13 N          -1.7420   -2.0330    0.0000 N.4     1  LIG1        0.3688
     14 C          -1.2250   -0.6750    0.0000 C.3     1  LIG1        0.1416
     15 C           0.0670   -1.0880    0.0000 C.3     1  LIG1        0.0978
     16 C           0.0670   -0.1210    0.0000 C.3     1  LIG1        0.0101
     17 C          -2.8500   -2.0420    0.0000 C.3     1  LIG1        0.0870
     18 C          -3.7750   -2.9670    0.0000 C.3     1  LIG1        0.0626
     19 C          -3.7920   -1.3580    0.0000 C.3     1  LIG1        0.0626
     20 C          -0.7670   -2.3290    0.0000 C.3     1  LIG1        0.0627
     21 C           1.9920   -0.8830    0.0000 C.ar    1  LIG1        0.0140
     22 C           2.6830   -0.2630    0.0000 C.ar    1  LIG1       -0.0009
     23 C           3.5830   -0.5380    0.0000 C.ar    1  LIG1       -0.0002
     24 C           3.7880   -1.4290    0.0000 C.ar    1  LIG1       -0.0000
     25 C           3.0880   -2.0670    0.0000 C.ar    1  LIG1       -0.0002
     26 C           2.1960   -1.7830    0.0000 C.ar    1  LIG1       -0.0009
@<TRIPOS>BOND
     1     1     2    1
     2     1    11    1
     3     1    15    1
     4     1    21    1
     5     2     3    1
     6     3     4    2
     7     3     5    1
     8     5     6   ar
     9     5    10   ar
    10     6     7   ar
    11     7     8   ar
    12     8     9   ar
    13     9    10   ar
    14    11    12    1
    15    12    13    1
    16    12    20    1
    17    13    14    1
    18    13    17    1
    19    14    15    1
    20    15    16    1
    21    17    18    1
    22    17    19    1
    23    21    22   ar
    24    21    26   ar
    25    22    23   ar
    26    23    24   ar
    27    24    25   ar
    28    25    26   ar
