@<TRIPOS>MOLECULE
33533_ChemDiv_8006-4764
 21 23 0 0 0
SMALL
GASTEIGER
Energy = 0

@<TRIPOS>ATOM
      1 C           2.2500   -0.4210    0.0000 C.ar    1  LIG1        0.1042
      2 C           1.6920    0.3920    0.0000 C.ar    1  LIG1        0.1025
      3 C           0.6960    0.0880    0.0000 C.ar    1  LIG1        0.0550
      4 C           0.6960   -0.9380    0.0000 C.ar    1  LIG1        0.1210
      5 S           1.6830   -1.2250    0.0000 S.2     1  LIG1       -0.0613
      6 N          -0.2460   -1.2420    0.0000 N.ar    1  LIG1       -0.2021
      7 S          -0.8420   -0.4040    0.0000 S.2     1  LIG1        0.0199
      8 C          -0.2380    0.3830    0.0000 C.ar    1  LIG1        0.0762
      9 S          -0.5880    1.3210    0.0000 S.3     1  LIG1       -0.1009
     10 C          -1.6750    1.3210    0.0000 C.3     1  LIG1        0.0897
     11 C          -2.1210    0.4170    0.0000 C.ar    1  LIG1       -0.0004
     12 C          -3.1330    0.4170    0.0000 C.ar    1  LIG1        0.0545
     13 CL         -3.6330    1.2710    0.0000 Cl      1  LIG1       -0.0825
     14 C          -3.6500   -0.4380    0.0000 C.ar    1  LIG1        0.0111
     15 C          -3.1330   -1.3170    0.0000 C.ar    1  LIG1        0.0008
     16 C          -2.1380   -1.3170    0.0000 C.ar    1  LIG1       -0.0002
     17 C          -1.6330   -0.4380    0.0000 C.ar    1  LIG1       -0.0026
     18 N           2.0500    1.3210    0.0000 N.pl3   1  LIG1       -0.1273
     19 C           3.1670   -0.4210    0.0000 C.2     1  LIG1        0.2916
     20 O           3.6130    0.4750    0.0000 O.2     1  LIG1       -0.2661
     21 N           3.6460   -1.2080    0.0000 N.am    1  LIG1       -0.0832
@<TRIPOS>BOND
     1     1     2   ar
     2     1     5   ar
     3     1    19    1
     4     2     3   ar
     5     2    18    1
     6     3     4   ar
     7     3     8   ar
     8     4     5   ar
     9     4     6   ar
    10     6     7   ar
    11     7     8   ar
    12     8     9    1
    13     9    10    1
    14    10    11    1
    15    11    12   ar
    16    11    17   ar
    17    12    13    1
    18    12    14   ar
    19    14    15   ar
    20    15    16   ar
    21    16    17   ar
    22    19    20    2
    23    19    21   am
