@<TRIPOS>MOLECULE
33544_ChemDiv_8009-4638
 13 15 0 0 0
SMALL
GASTEIGER
Energy = 0

@<TRIPOS>ATOM
      1 N          -0.8750   -0.2500    0.0000 N.ar    1  LIG1       -0.1633
      2 C          -0.0170    0.2580    0.0000 C.ar    1  LIG1        0.2318
      3 C           0.8500   -0.2500    0.0000 C.ar    1  LIG1        0.0890
      4 S           0.8500   -1.2630    0.0000 S.3     1  LIG1       -0.1005
      5 C          -0.0170   -1.7460    0.0000 C.3     1  LIG1        0.1474
      6 C          -0.8750   -1.2630    0.0000 C.3     1  LIG1        0.3343
      7 C           1.7330    0.2580    0.0000 C.ar    1  LIG1        0.0121
      8 C           1.7330    1.2460    0.0000 C.ar    1  LIG1        0.0009
      9 C           0.8500    1.7500    0.0000 C.ar    1  LIG1        0.0059
     10 C          -0.0170    1.2460    0.0000 C.ar    1  LIG1        0.0643
     11 C          -0.8750    1.7500    0.0000 C.ar    1  LIG1        0.0122
     12 C          -1.7380    1.2460    0.0000 C.ar    1  LIG1        0.0758
     13 C          -1.7380    0.2580    0.0000 C.ar    1  LIG1        0.2900
@<TRIPOS>BOND
     1     1     2   ar
     2     1     6    1
     3     1    13   ar
     4     2     3   ar
     5     2    10   ar
     6     3     4    1
     7     3     7   ar
     8     4     5    1
     9     5     6    1
    10     7     8   ar
    11     8     9   ar
    12     9    10   ar
    13    10    11   ar
    14    11    12   ar
    15    12    13   ar
