@<TRIPOS>MOLECULE
33540_ChemDiv_8016-9739
 21 25 0 0 0
SMALL
GASTEIGER
Energy = 0

@<TRIPOS>ATOM
      1 S           0.9920    1.1710    0.0000 S.O     1  LIG1        0.1212
      2 N           1.4130    0.2750    0.0000 N.pl3   1  LIG1       -0.2377
      3 C           0.9290   -0.5960    0.0000 C.ar    1  LIG1        0.0553
      4 C           1.6040   -1.3210    0.0000 C.ar    1  LIG1       -0.0063
      5 C           2.5040   -0.9080    0.0000 C.3     1  LIG1        0.0501
      6 C           2.3790    0.0830    0.0000 C.3     1  LIG1        0.1098
      7 C           1.3170   -2.2580    0.0000 C.ar    1  LIG1       -0.0030
      8 C           0.3540   -2.4830    0.0000 C.ar    1  LIG1       -0.0002
      9 C          -0.3210   -1.7580    0.0000 C.ar    1  LIG1        0.0013
     10 C          -0.0330   -0.8170    0.0000 C.ar    1  LIG1        0.0151
     11 C           0.0040    1.1330    0.0000 C.3     1  LIG1        0.0856
     12 C          -0.8960    0.9080    0.0000 C.3     1  LIG1        0.0141
     13 C          -1.7380    1.2210    0.0000 C.3     1  LIG1        0.0010
     14 C          -1.7460    2.1830    0.0000 C.3     1  LIG1        0.0001
     15 C          -0.8830    2.4880    0.0000 C.3     1  LIG1        0.0010
     16 C           0.0130    2.1210    0.0000 C.3     1  LIG1        0.0141
     17 C          -1.5460    1.6880    0.0000 C.3     1  LIG1        0.0001
     18 C          -1.5460    0.6710    0.0000 C.3     1  LIG1        0.0010
     19 C          -0.6460    0.3080    0.0000 C.3     1  LIG1        0.0141
     20 C          -2.5080    0.4080    0.0000 C.3     1  LIG1        0.0001
     21 O           1.6920    2.2250    0.0000 O.2     1  LIG1       -0.2365
@<TRIPOS>BOND
     1     1     2    1
     2     1    11    1
     3     1    21    2
     4     2     3    1
     5     2     6    1
     6     3     4   ar
     7     3    10   ar
     8     4     5    1
     9     4     7   ar
    10     5     6    1
    11     7     8   ar
    12     8     9   ar
    13     9    10   ar
    14    11    12    1
    15    11    16    1
    16    11    19    1
    17    12    13    1
    18    13    14    1
    19    13    20    1
    20    14    15    1
    21    15    16    1
    22    15    17    1
    23    17    18    1
    24    18    19    1
    25    18    20    1
