@<TRIPOS>MOLECULE
33542_ChemDiv_8009-4156
 32 37 0 0 0
SMALL
GASTEIGER
Energy = 0

@<TRIPOS>ATOM
      1 C          -0.2960    1.0000    0.0000 C.2     1  LIG1        0.0324
      2 C           0.5830    0.5080    0.0000 C.3     1  LIG1        0.1423
      3 C           1.4500    1.0000    0.0000 C.ar    1  LIG1        0.0419
      4 C           2.3540    0.6040    0.0000 C.ar    1  LIG1        0.1023
      5 N           3.0250    1.3460    0.0000 N.ar    1  LIG1       -0.1482
      6 N           2.5290    2.2130    0.0000 N.ar    1  LIG1       -0.1466
      7 C           1.5460    2.0040    0.0000 C.ar    1  LIG1        0.1214
      8 C           2.5670   -0.3710    0.0000 C.ar    1  LIG1        0.0192
      9 C           1.8250   -1.0380    0.0000 C.ar    1  LIG1        0.0015
     10 C           2.0330   -2.0250    0.0000 C.ar    1  LIG1        0.0000
     11 C           3.0000   -2.3290    0.0000 C.ar    1  LIG1        0.0000
     12 C           3.7250   -1.6460    0.0000 C.ar    1  LIG1        0.0000
     13 C           3.5170   -0.6790    0.0000 C.ar    1  LIG1        0.0015
     14 N           0.5830   -0.4960    0.0000 N.pl3   1  LIG1       -0.2303
     15 C          -0.2830   -0.9960    0.0000 C.ar    1  LIG1        0.0656
     16 C          -1.1580   -0.4960    0.0000 C.ar    1  LIG1        0.0108
     17 C          -1.1580    0.4920    0.0000 C.2     1  LIG1       -0.0202
     18 C          -2.0130    1.0000    0.0000 C.3     1  LIG1        0.0266
     19 C          -2.0130    2.0040    0.0000 C.3     1  LIG1        0.0113
     20 C          -1.1580    2.5130    0.0000 C.3     1  LIG1        0.0692
     21 C          -0.2960    2.0170    0.0000 C.2     1  LIG1        0.1707
     22 O           0.5710    2.5130    0.0000 O.2     1  LIG1       -0.2916
     23 C          -2.5210    1.1380    0.0000 C.3     1  LIG1        0.0008
     24 C          -2.8790    2.5130    0.0000 C.3     1  LIG1        0.0008
     25 C          -2.0000   -0.9960    0.0000 C.ar    1  LIG1        0.0009
     26 C          -2.0000   -2.0000    0.0000 C.ar    1  LIG1        0.0001
     27 C          -1.1580   -2.5080    0.0000 C.ar    1  LIG1        0.0013
     28 C          -0.2830   -2.0000    0.0000 C.ar    1  LIG1        0.0161
     29 C          -2.8670   -2.5080    0.0000 C.ar    1  LIG1        0.0000
     30 C          -3.7290   -2.0000    0.0000 C.ar    1  LIG1        0.0000
     31 C          -3.7290   -0.9960    0.0000 C.ar    1  LIG1        0.0000
     32 C          -2.8670   -0.4960    0.0000 C.ar    1  LIG1        0.0000
@<TRIPOS>BOND
     1     1     2    1
     2     1    17    2
     3     1    21    1
     4     2     3    1
     5     2    14    1
     6     3     4   ar
     7     3     7   ar
     8     4     5   ar
     9     4     8    1
    10     5     6   ar
    11     6     7   ar
    12     8     9   ar
    13     8    13   ar
    14     9    10   ar
    15    10    11   ar
    16    11    12   ar
    17    12    13   ar
    18    14    15    1
    19    15    16   ar
    20    15    28   ar
    21    16    17    1
    22    16    25   ar
    23    17    18    1
    24    18    19    1
    25    19    20    1
    26    19    23    1
    27    19    24    1
    28    20    21    1
    29    21    22    2
    30    25    26   ar
    31    25    32   ar
    32    26    27   ar
    33    26    29   ar
    34    27    28   ar
    35    29    30   ar
    36    30    31   ar
    37    31    32   ar
