@<TRIPOS>MOLECULE
33552_ChemDiv_8009-5472
 22 26 0 0 0
SMALL
GASTEIGER
Energy = 0

@<TRIPOS>ATOM
      1 C          -0.8540   -0.3920    0.0000 C.3     1  LIG1        0.2154
      2 C          -0.8540    0.4290    0.0000 C.3     1  LIG1        0.2154
      3 N           0.4080    1.5380    0.0000 N.am    1  LIG1       -0.1625
      4 C           1.9880    0.0250    0.0000 C.2     1  LIG1        0.3428
      5 N           0.4080   -1.5130    0.0000 N.am    1  LIG1       -0.1625
      6 O           2.9880    0.0380    0.0000 O.2     1  LIG1       -0.2491
      7 N          -0.0710    0.6630    0.0000 N.am    1  LIG1       -0.1625
      8 C           0.3830    0.0170    0.0000 C.2     1  LIG1        0.3428
      9 N          -0.0710   -0.6380    0.0000 N.am    1  LIG1       -0.1625
     10 O           1.2000    0.0170    0.0000 O.2     1  LIG1       -0.2491
     11 C          -1.5710    0.8380    0.0000 C.ar    1  LIG1        0.0180
     12 C          -2.2710    0.4080    0.0000 C.ar    1  LIG1       -0.0009
     13 C          -2.2710   -0.4040    0.0000 C.ar    1  LIG1       -0.0009
     14 C          -1.5710   -0.8080    0.0000 C.ar    1  LIG1        0.0180
     15 C          -1.5710   -1.6380    0.0000 C.ar    1  LIG1       -0.0009
     16 C          -2.2710   -2.0670    0.0000 C.ar    1  LIG1       -0.0002
     17 C          -2.9920   -1.6580    0.0000 C.ar    1  LIG1       -0.0000
     18 C          -2.9920   -0.8250    0.0000 C.ar    1  LIG1       -0.0002
     19 C          -2.9920    0.8130    0.0000 C.ar    1  LIG1       -0.0002
     20 C          -2.9920    1.6500    0.0000 C.ar    1  LIG1       -0.0000
     21 C          -2.2710    2.0710    0.0000 C.ar    1  LIG1       -0.0002
     22 C          -1.5710    1.6630    0.0000 C.ar    1  LIG1       -0.0009
@<TRIPOS>BOND
     1     1     2    1
     2     1     5    1
     3     1     9    1
     4     1    14    1
     5     2     3    1
     6     2     7    1
     7     2    11    1
     8     3     4   am
     9     4     5   am
    10     4     6    2
    11     7     8   am
    12     8     9   am
    13     8    10    2
    14    11    12   ar
    15    11    22   ar
    16    12    13    1
    17    12    19   ar
    18    13    14   ar
    19    13    18   ar
    20    14    15   ar
    21    15    16   ar
    22    16    17   ar
    23    17    18   ar
    24    19    20   ar
    25    20    21   ar
    26    21    22   ar
