@<TRIPOS>MOLECULE
33553_ChemDiv_8006-5076
 16 18 0 0 0
SMALL
GASTEIGER
Energy = 0

@<TRIPOS>ATOM
      1 O           1.7130    0.1420    0.0000 O.3     1  LIG1       -0.3240
      2 C           2.5710    1.0130    0.0000 C.3     1  LIG1        0.2959
      3 C           2.1080   -0.3460    0.0000 C.2     1  LIG1        0.2077
      4 C           0.6290   -0.3420    0.0000 C.3     1  LIG1        0.0834
      5 C          -0.1040   -1.0250    0.0000 C.3     1  LIG1        0.0892
      6 C           0.2080    0.1420    0.0000 C.3     1  LIG1        0.1583
      7 C           0.5580    1.2380    0.0000 C.3     1  LIG1        0.1756
      8 O           1.5420    1.5630    0.0000 O.3     1  LIG1       -0.3223
      9 S          -0.7330   -0.8580    0.0000 S.3     1  LIG1       -0.1115
     10 C          -1.3040   -0.9130    0.0000 C.ar    1  LIG1        0.0253
     11 C          -1.6960   -0.2710    0.0000 C.ar    1  LIG1        0.0062
     12 C          -2.4500   -0.2630    0.0000 C.ar    1  LIG1        0.0005
     13 C          -2.8330   -0.9040    0.0000 C.ar    1  LIG1        0.0000
     14 C          -2.4630   -1.5580    0.0000 C.ar    1  LIG1        0.0005
     15 C          -1.6960   -1.5580    0.0000 C.ar    1  LIG1        0.0062
     16 O           2.8290   -1.1000    0.0000 O.2     1  LIG1       -0.2908
@<TRIPOS>BOND
     1     1     2    1
     2     1     6    1
     3     2     3    1
     4     2     8    1
     5     3     4    1
     6     3    16    2
     7     4     5    1
     8     5     6    1
     9     5     9    1
    10     6     7    1
    11     7     8    1
    12     9    10    1
    13    10    11   ar
    14    10    15   ar
    15    11    12   ar
    16    12    13   ar
    17    13    14   ar
    18    14    15   ar
