@<TRIPOS>MOLECULE
33555_ChemDiv_8006-5087
 16 18 0 0 0
SMALL
GASTEIGER
Energy = 0

@<TRIPOS>ATOM
      1 N           0.1000   -0.0330    0.0000 N.am    1  LIG1       -0.2069
      2 C           0.6750    0.7920    0.0000 C.3     1  LIG1        0.1765
      3 N           0.1000    1.6000    0.0000 N.pl3   1  LIG1       -0.2174
      4 C          -0.8710    1.3130    0.0000 C.ar    1  LIG1        0.0809
      5 C          -0.8710    0.2920    0.0000 C.ar    1  LIG1        0.0733
      6 C          -1.7420   -0.2040    0.0000 C.ar    1  LIG1        0.0164
      7 C          -2.6130    0.3130    0.0000 C.ar    1  LIG1        0.0014
      8 C          -2.6130    1.2920    0.0000 C.ar    1  LIG1        0.0014
      9 C          -1.7420    1.8040    0.0000 C.ar    1  LIG1        0.0174
     10 C           1.6170    0.4880    0.0000 C.3     1  LIG1        0.1702
     11 O           1.6380   -0.4830    0.0000 O.3     1  LIG1       -0.4382
     12 C           0.7000   -0.8250    0.0000 C.2     1  LIG1        0.4098
     13 O           0.4250   -1.8000    0.0000 O.2     1  LIG1       -0.2258
     14 C           1.8630    1.4580    0.0000 C.3     1  LIG1        0.0473
     15 C           2.6080    0.5670    0.0000 C.3     1  LIG1        0.0473
     16 C           1.2170    1.6000    0.0000 C.3     1  LIG1        0.0465
@<TRIPOS>BOND
     1     1     2    1
     2     1     5    1
     3     1    12   am
     4     2     3    1
     5     2    10    1
     6     2    16    1
     7     3     4    1
     8     4     5   ar
     9     4     9   ar
    10     5     6   ar
    11     6     7   ar
    12     7     8   ar
    13     8     9   ar
    14    10    11    1
    15    10    14    1
    16    10    15    1
    17    11    12    1
    18    12    13    2
