@<TRIPOS>MOLECULE
33566_ChemDiv_8009-1374
 28 32 0 0 0
SMALL
GASTEIGER
Energy = 0

@<TRIPOS>ATOM
      1 N          -0.1670    0.5960    0.0000 N.ar    1  LIG1       -0.2275
      2 C           0.3420    0.7830    0.0000 C.ar    1  LIG1        0.1835
      3 N           0.9670    0.3330    0.0000 N.ar    1  LIG1       -0.2731
      4 C           0.8380   -0.4830    0.0000 C.ar    1  LIG1        0.1499
      5 N           0.2710   -0.6920    0.0000 N.ar    1  LIG1       -0.1537
      6 C           0.8630   -1.1920    0.0000 C.3     1  LIG1        0.0924
      7 C           1.4500   -1.4080    0.0000 C.ar    1  LIG1       -0.0146
      8 C           2.3630   -0.9130    0.0000 C.ar    1  LIG1       -0.0038
      9 C           3.2460   -1.4250    0.0000 C.ar    1  LIG1       -0.0003
     10 C           3.2460   -2.4830    0.0000 C.ar    1  LIG1       -0.0000
     11 C           2.3290   -2.9790    0.0000 C.ar    1  LIG1       -0.0003
     12 C           1.4330   -2.4290    0.0000 C.ar    1  LIG1       -0.0038
     13 C           1.8290    0.7250    0.0000 C.ar    1  LIG1        0.0669
     14 C           1.8830    1.7880    0.0000 C.ar    1  LIG1        0.0176
     15 C           2.8000    2.2630    0.0000 C.ar    1  LIG1        0.0015
     16 C           3.6540    1.7330    0.0000 C.ar    1  LIG1        0.0001
     17 C           3.6630    0.7210    0.0000 C.ar    1  LIG1        0.0015
     18 C           2.7210    0.2290    0.0000 C.ar    1  LIG1        0.0176
     19 S           0.4790    1.5710    0.0000 S.2     1  LIG1       -0.0109
     20 C          -0.8290    0.3250    0.0000 C.3     1  LIG1        0.1444
     21 C          -1.9830    0.2210    0.0000 C.3     1  LIG1        0.1705
     22 O          -2.4420    1.4920    0.0000 O.3     1  LIG1       -0.3229
     23 C          -3.4750    1.9880    0.0000 C.3     1  LIG1        0.2960
     24 C          -2.1000    2.0040    0.0000 C.2     1  LIG1        0.2087
     25 C          -1.6460    0.6920    0.0000 C.3     1  LIG1        0.0968
     26 O          -1.4790    2.9830    0.0000 O.2     1  LIG1       -0.2907
     27 O          -3.6670    0.8830    0.0000 O.3     1  LIG1       -0.3223
     28 C          -3.0500    0.1000    0.0000 C.3     1  LIG1        0.1767
@<TRIPOS>BOND
     1     1     2   ar
     2     1     5   ar
     3     1    20    1
     4     2     3   ar
     5     2    19    2
     6     3     4   ar
     7     3    13    1
     8     4     5   ar
     9     4     6    1
    10     6     7    1
    11     7     8   ar
    12     7    12   ar
    13     8     9   ar
    14     9    10   ar
    15    10    11   ar
    16    11    12   ar
    17    13    14   ar
    18    13    18   ar
    19    14    15   ar
    20    15    16   ar
    21    16    17   ar
    22    17    18   ar
    23    20    21    1
    24    20    25    1
    25    21    22    1
    26    21    28    1
    27    22    23    1
    28    23    24    1
    29    23    27    1
    30    24    25    1
    31    24    26    2
    32    27    28    1
