@<TRIPOS>MOLECULE
33567_ChemDiv_8014-8487
 27 29 0 0 0
SMALL
GASTEIGER
Energy = 0

@<TRIPOS>ATOM
      1 C           1.4960    1.3000    0.0000 C.2     1  LIG1        0.3033
      2 N           0.9960    0.4330    0.0000 N.am    1  LIG1       -0.1742
      3 C          -0.0040    0.4330    0.0000 C.ar    1  LIG1        0.0738
      4 C          -0.5040    1.3000    0.0000 C.ar    1  LIG1        0.0197
      5 C          -1.5040    1.3000    0.0000 C.ar    1  LIG1        0.0382
      6 C          -2.0040    0.4330    0.0000 C.ar    1  LIG1        0.1391
      7 O          -3.0040    0.4330    0.0000 O.3     1  LIG1       -0.4706
      8 C          -3.5040   -0.4330    0.0000 C.3     1  LIG1        0.2320
      9 C          -4.5040   -0.4330    0.0000 C.ar    1  LIG1        0.0212
     10 C          -5.0040   -1.2960    0.0000 C.ar    1  LIG1       -0.0007
     11 C          -6.0000   -1.2960    0.0000 C.ar    1  LIG1       -0.0002
     12 C          -6.5000   -0.4330    0.0000 C.ar    1  LIG1       -0.0000
     13 C          -6.0000    0.4330    0.0000 C.ar    1  LIG1       -0.0002
     14 C          -5.0040    0.4330    0.0000 C.ar    1  LIG1       -0.0007
     15 C          -1.5040   -0.4330    0.0000 C.ar    1  LIG1        0.0382
     16 C          -0.5040   -0.4330    0.0000 C.ar    1  LIG1        0.0197
     17 C           2.4960    1.3000    0.0000 C.3     1  LIG1        0.2270
     18 N           2.9960    0.4330    0.0000 N.4     1  LIG1        0.3867
     19 C           2.4960   -0.4330    0.0000 C.3     1  LIG1        0.1570
     20 C           2.9960   -1.2960    0.0000 C.3     1  LIG1        0.1367
     21 N           3.9960   -1.2960    0.0000 N.3     1  LIG1       -0.2497
     22 C           4.4960   -0.4330    0.0000 C.3     1  LIG1        0.1367
     23 C           3.9960    0.4330    0.0000 C.3     1  LIG1        0.1570
     24 C           4.4960   -2.1630    0.0000 C.3     1  LIG1        0.1798
     25 C           5.4960   -2.1630    0.0000 C.1     1  LIG1        0.0912
     26 N           6.5000   -2.1630    0.0000 N.1     1  LIG1       -0.1944
     27 O           0.9960    2.1670    0.0000 O.2     1  LIG1       -0.2665
@<TRIPOS>BOND
     1     1     2   am
     2     1    17    1
     3     1    27    2
     4     2     3    1
     5     3     4   ar
     6     3    16   ar
     7     4     5   ar
     8     5     6   ar
     9     6     7    1
    10     6    15   ar
    11     7     8    1
    12     8     9    1
    13     9    10   ar
    14     9    14   ar
    15    10    11   ar
    16    11    12   ar
    17    12    13   ar
    18    13    14   ar
    19    15    16   ar
    20    17    18    1
    21    18    19    1
    22    18    23    1
    23    19    20    1
    24    20    21    1
    25    21    22    1
    26    21    24    1
    27    22    23    1
    28    24    25    1
    29    25    26    3
