@<TRIPOS>MOLECULE
33562_ChemDiv_8008-8849
 35 40 0 0 0
SMALL
GASTEIGER
Energy = 0

@<TRIPOS>ATOM
      1 N          -0.2000   -0.3540    0.0000 N.pl3   1  LIG1       -0.1461
      2 C          -0.2000   -1.1460    0.0000 C.2     1  LIG1        0.3867
      3 N          -0.9580   -1.6460    0.0000 N.2     1  LIG1        0.0558
      4 N          -1.7460   -1.1460    0.0000 N.pl3   1  LIG1       -0.0738
      5 C          -1.7460   -0.3540    0.0000 C.3     1  LIG1        0.3069
      6 C          -2.6330    0.0830    0.0000 C.ar    1  LIG1        0.0472
      7 C          -2.6630    1.0960    0.0000 C.ar    1  LIG1        0.0417
      8 C          -3.5710    1.5540    0.0000 C.ar    1  LIG1        0.1763
      9 C          -4.4130    1.0080    0.0000 C.ar    1  LIG1        0.1764
     10 O          -5.1830    1.6580    0.0000 O.3     1  LIG1       -0.4346
     11 C          -4.8330    2.5540    0.0000 C.3     1  LIG1        0.4294
     12 O          -3.8500    2.5250    0.0000 O.3     1  LIG1       -0.4346
     13 C          -4.3710    0.0000    0.0000 C.ar    1  LIG1        0.0401
     14 C          -3.4790   -0.4580    0.0000 C.ar    1  LIG1        0.0048
     15 C          -2.6960   -1.4880    0.0000 C.ar    1  LIG1        0.0961
     16 C          -3.4670   -0.8330    0.0000 C.ar    1  LIG1        0.0184
     17 C          -4.4130   -1.1750    0.0000 C.ar    1  LIG1        0.0014
     18 C          -4.6000   -2.1670    0.0000 C.ar    1  LIG1        0.0001
     19 C          -3.8210   -2.8210    0.0000 C.ar    1  LIG1        0.0014
     20 C          -2.8540   -2.4750    0.0000 C.ar    1  LIG1        0.0184
     21 C           0.7290   -1.4880    0.0000 C.2     1  LIG1        0.2573
     22 O           1.5170   -0.8630    0.0000 O.2     1  LIG1       -0.2833
     23 C           0.8750   -2.4580    0.0000 C.3     1  LIG1        0.0856
     24 C           0.6750    0.0830    0.0000 C.ar    1  LIG1        0.1408
     25 C           1.5170   -0.4580    0.0000 C.ar    1  LIG1        0.0416
     26 C           2.4040    0.0000    0.0000 C.ar    1  LIG1        0.0180
     27 C           2.4750    0.9880    0.0000 C.ar    1  LIG1        0.0482
     28 N           3.3710    1.4040    0.0000 N.pl3   1  LIG1       -0.3028
     29 C           4.2130    0.8540    0.0000 C.3     1  LIG1        0.1231
     30 C           5.1000    1.2920    0.0000 C.3     1  LIG1        0.1636
     31 O           5.1790    2.2630    0.0000 O.3     1  LIG1       -0.3501
     32 C           4.3580    2.8250    0.0000 C.3     1  LIG1        0.1636
     33 C           3.4420    2.3830    0.0000 C.3     1  LIG1        0.1231
     34 C           1.6210    1.5540    0.0000 C.ar    1  LIG1        0.0180
     35 C           0.7170    1.0960    0.0000 C.ar    1  LIG1        0.0416
@<TRIPOS>BOND
     1     1     2    1
     2     1     5    1
     3     1    24    1
     4     2     3    2
     5     2    21    1
     6     3     4    1
     7     4     5    1
     8     4    15    1
     9     5     6    1
    10     6     7   ar
    11     6    14   ar
    12     7     8   ar
    13     8     9   ar
    14     8    12    1
    15     9    10    1
    16     9    13   ar
    17    10    11    1
    18    11    12    1
    19    13    14   ar
    20    15    16   ar
    21    15    20   ar
    22    16    17   ar
    23    17    18   ar
    24    18    19   ar
    25    19    20   ar
    26    21    22    2
    27    21    23    1
    28    24    25   ar
    29    24    35   ar
    30    25    26   ar
    31    26    27   ar
    32    27    28    1
    33    27    34   ar
    34    28    29    1
    35    28    33    1
    36    29    30    1
    37    30    31    1
    38    31    32    1
    39    32    33    1
    40    34    35   ar
