@<TRIPOS>MOLECULE
33564_ChemDiv_8008-9165
 27 31 0 0 0
SMALL
GASTEIGER
Energy = 0

@<TRIPOS>ATOM
      1 N          -0.1630    0.6460    0.0000 N.ar    1  LIG1       -0.2272
      2 C           0.3290    0.8210    0.0000 C.ar    1  LIG1        0.1837
      3 N           0.9540    0.3830    0.0000 N.ar    1  LIG1       -0.2700
      4 C           0.8170   -0.4210    0.0000 C.ar    1  LIG1        0.1686
      5 N           0.2630   -0.6250    0.0000 N.ar    1  LIG1       -0.1495
      6 C           1.3710   -1.2380    0.0000 C.ar    1  LIG1        0.0362
      7 C           2.3670   -1.1500    0.0000 C.ar    1  LIG1        0.0031
      8 C           2.9420   -1.9830    0.0000 C.ar    1  LIG1        0.0001
      9 C           2.5130   -2.8960    0.0000 C.ar    1  LIG1        0.0000
     10 C           1.5170   -2.9750    0.0000 C.ar    1  LIG1        0.0001
     11 C           0.9460   -2.1380    0.0000 C.ar    1  LIG1        0.0031
     12 C           1.7960    0.7710    0.0000 C.ar    1  LIG1        0.0672
     13 C           1.8460    1.8130    0.0000 C.ar    1  LIG1        0.0176
     14 C           2.7500    2.2710    0.0000 C.ar    1  LIG1        0.0015
     15 C           3.5830    1.7630    0.0000 C.ar    1  LIG1        0.0001
     16 C           3.5920    0.7630    0.0000 C.ar    1  LIG1        0.0015
     17 C           2.6710    0.2880    0.0000 C.ar    1  LIG1        0.0176
     18 S           0.4710    1.5960    0.0000 S.2     1  LIG1       -0.0109
     19 C          -0.8170    0.3750    0.0000 C.3     1  LIG1        0.1444
     20 C          -1.9460    0.2750    0.0000 C.3     1  LIG1        0.1705
     21 O          -2.3920    1.5210    0.0000 O.3     1  LIG1       -0.3229
     22 C          -3.4080    2.0130    0.0000 C.3     1  LIG1        0.2960
     23 C          -2.0580    2.0250    0.0000 C.2     1  LIG1        0.2087
     24 C          -1.6170    0.7330    0.0000 C.3     1  LIG1        0.0968
     25 O          -1.4460    2.9790    0.0000 O.2     1  LIG1       -0.2907
     26 O          -3.5960    0.9250    0.0000 O.3     1  LIG1       -0.3223
     27 C          -2.9920    0.1500    0.0000 C.3     1  LIG1        0.1767
@<TRIPOS>BOND
     1     1     2   ar
     2     1     5   ar
     3     1    19    1
     4     2     3   ar
     5     2    18    2
     6     3     4   ar
     7     3    12    1
     8     4     5   ar
     9     4     6    1
    10     6     7   ar
    11     6    11   ar
    12     7     8   ar
    13     8     9   ar
    14     9    10   ar
    15    10    11   ar
    16    12    13   ar
    17    12    17   ar
    18    13    14   ar
    19    14    15   ar
    20    15    16   ar
    21    16    17   ar
    22    19    20    1
    23    19    24    1
    24    20    21    1
    25    20    27    1
    26    21    22    1
    27    22    23    1
    28    22    26    1
    29    23    24    1
    30    23    25    2
    31    26    27    1
