@<TRIPOS>MOLECULE
33563_ChemDiv_K088-1900
 26 29 0 0 0
SMALL
GASTEIGER
Energy = 0

@<TRIPOS>ATOM
      1 C          -0.7830   -1.3750    0.0000 C.2     1  LIG1        0.1602
      2 N           0.2040   -1.5330    0.0000 N.2     1  LIG1       -0.2047
      3 C           0.6130   -0.6080    0.0000 C.2     1  LIG1        0.2334
      4 O          -0.0920    0.0580    0.0000 O.3     1  LIG1       -0.4019
      5 C          -0.9750   -0.4000    0.0000 C.2     1  LIG1        0.3649
      6 O          -1.8880    0.0380    0.0000 O.2     1  LIG1       -0.2427
      7 C           1.6000   -0.4000    0.0000 C.2     1  LIG1        0.0582
      8 C           1.9170    0.5460    0.0000 C.2     1  LIG1        0.0056
      9 C           2.8750    0.7630    0.0000 C.ar    1  LIG1        0.0108
     10 C           3.1830    1.7040    0.0000 C.ar    1  LIG1        0.0585
     11 C           4.1500    1.9130    0.0000 C.ar    1  LIG1        0.0228
     12 C           4.8460    1.1750    0.0000 C.ar    1  LIG1        0.0585
     13 C           4.5080    0.2290    0.0000 C.ar    1  LIG1        0.0114
     14 C           3.5460    0.0130    0.0000 C.ar    1  LIG1        0.0017
     15 CL          5.8380    1.3380    0.0000 Cl      1  LIG1       -0.0822
     16 CL          2.5040    2.4420    0.0000 Cl      1  LIG1       -0.0822
     17 C          -1.5500   -2.0420    0.0000 C.2     1  LIG1        0.0259
     18 C          -2.5130   -1.6960    0.0000 C.ar    1  LIG1        0.0049
     19 C          -3.3040   -2.3210    0.0000 C.ar    1  LIG1        0.0402
     20 C          -4.2210   -1.9500    0.0000 C.ar    1  LIG1        0.1764
     21 C          -4.3960   -1.0040    0.0000 C.ar    1  LIG1        0.1764
     22 O          -5.4000   -0.8630    0.0000 O.3     1  LIG1       -0.4346
     23 C          -5.8420   -1.7170    0.0000 C.3     1  LIG1        0.4294
     24 O          -5.1170   -2.4380    0.0000 O.3     1  LIG1       -0.4346
     25 C          -3.6170   -0.3540    0.0000 C.ar    1  LIG1        0.0402
     26 C          -2.7040   -0.6830    0.0000 C.ar    1  LIG1        0.0034
@<TRIPOS>BOND
     1     1     2    1
     2     1     5    1
     3     1    17    2
     4     2     3    2
     5     3     4    1
     6     3     7    1
     7     4     5    1
     8     5     6    2
     9     7     8    2
    10     8     9    1
    11     9    10   ar
    12     9    14   ar
    13    10    11   ar
    14    10    16    1
    15    11    12   ar
    16    12    13   ar
    17    12    15    1
    18    13    14   ar
    19    17    18    1
    20    18    19   ar
    21    18    26   ar
    22    19    20   ar
    23    20    21   ar
    24    20    24    1
    25    21    22    1
    26    21    25   ar
    27    22    23    1
    28    23    24    1
    29    25    26   ar
