@<TRIPOS>MOLECULE
33561_ChemDiv_K088-1165
 25 28 0 0 0
SMALL
GASTEIGER
Energy = 0

@<TRIPOS>ATOM
      1 C          -0.5540    1.6040    0.0000 C.2     1  LIG1        0.1602
      2 N          -0.3670    0.6210    0.0000 N.2     1  LIG1       -0.2047
      3 C           0.6250    0.5040    0.0000 C.2     1  LIG1        0.2334
      4 O           1.0540    1.4250    0.0000 O.3     1  LIG1       -0.4019
      5 C           0.3250    2.0920    0.0000 C.2     1  LIG1        0.3649
      6 O           0.4380    3.1080    0.0000 O.2     1  LIG1       -0.2427
      7 C           1.1080   -0.3880    0.0000 C.2     1  LIG1        0.0582
      8 C           2.0920   -0.4420    0.0000 C.2     1  LIG1        0.0048
      9 C           2.5580   -1.3330    0.0000 C.ar    1  LIG1        0.0002
     10 C           2.0250   -2.1670    0.0000 C.ar    1  LIG1        0.0000
     11 C           2.4830   -3.0330    0.0000 C.ar    1  LIG1        0.0000
     12 C           3.4540   -3.1040    0.0000 C.ar    1  LIG1        0.0000
     13 C           4.0040   -2.2750    0.0000 C.ar    1  LIG1        0.0000
     14 C           3.5670   -1.3790    0.0000 C.ar    1  LIG1        0.0000
     15 C          -1.4290    2.0920    0.0000 C.2     1  LIG1        0.0258
     16 C          -2.2790    1.5460    0.0000 C.ar    1  LIG1        0.0017
     17 C          -2.2330    0.5750    0.0000 C.ar    1  LIG1        0.0001
     18 C          -3.0830    0.0000    0.0000 C.ar    1  LIG1        0.0000
     19 C          -3.9630    0.4830    0.0000 C.ar    1  LIG1        0.0000
     20 C          -4.0080    1.5000    0.0000 C.ar    1  LIG1        0.0000
     21 C          -3.1580    2.0250    0.0000 C.ar    1  LIG1        0.0001
     22 C          -3.0580   -0.9460    0.0000 C.ar    1  LIG1        0.0000
     23 C          -2.1630   -1.4500    0.0000 C.ar    1  LIG1        0.0000
     24 C          -1.3170   -0.9250    0.0000 C.ar    1  LIG1        0.0000
     25 C          -1.3750    0.1130    0.0000 C.ar    1  LIG1        0.0000
@<TRIPOS>BOND
     1     1     2    1
     2     1     5    1
     3     1    15    2
     4     2     3    2
     5     3     4    1
     6     3     7    1
     7     4     5    1
     8     5     6    2
     9     7     8    2
    10     8     9    1
    11     9    10   ar
    12     9    14   ar
    13    10    11   ar
    14    11    12   ar
    15    12    13   ar
    16    13    14   ar
    17    15    16    1
    18    16    17   ar
    19    16    21   ar
    20    17    18   ar
    21    17    25   ar
    22    18    19   ar
    23    18    22   ar
    24    19    20   ar
    25    20    21   ar
    26    22    23   ar
    27    23    24   ar
    28    24    25   ar
