@<TRIPOS>MOLECULE
33568_ChemDiv_8009-6193
 23 26 0 0 0
SMALL
GASTEIGER
Energy = 0

@<TRIPOS>ATOM
      1 N           1.0210   -0.4080    0.0000 N.ar    1  LIG1       -0.2277
      2 C           0.5460   -1.2080    0.0000 C.ar    1  LIG1        0.1796
      3 N          -0.8250   -0.4080    0.0000 N.ar    1  LIG1       -0.2925
      4 C          -0.3670    0.3790    0.0000 C.ar    1  LIG1        0.1461
      5 N           0.5460    0.3790    0.0000 N.ar    1  LIG1       -0.1541
      6 C          -0.8080    1.2130    0.0000 C.3     1  LIG1        0.0921
      7 C          -1.8040    1.2130    0.0000 C.ar    1  LIG1       -0.0146
      8 C          -2.3210    0.3630    0.0000 C.ar    1  LIG1       -0.0038
      9 C          -3.2920    0.3630    0.0000 C.ar    1  LIG1       -0.0003
     10 C          -3.7920    1.2130    0.0000 C.ar    1  LIG1       -0.0000
     11 C          -3.2920    2.0290    0.0000 C.ar    1  LIG1       -0.0003
     12 C          -2.3210    2.0290    0.0000 C.ar    1  LIG1       -0.0038
     13 C          -1.7460   -0.4080    0.0000 C.3     1  LIG1        0.1336
     14 S           1.0210   -2.0250    0.0000 S.2     1  LIG1       -0.0112
     15 C           1.9210   -0.4080    0.0000 C.3     1  LIG1        0.1443
     16 C           2.3830    0.3790    0.0000 C.3     1  LIG1        0.1705
     17 O           3.3210    0.3790    0.0000 O.3     1  LIG1       -0.3229
     18 C           3.7790   -0.4080    0.0000 C.3     1  LIG1        0.2960
     19 C           3.3210   -1.2080    0.0000 C.2     1  LIG1        0.2087
     20 C           2.4130   -1.2080    0.0000 C.3     1  LIG1        0.0968
     21 O           3.7880   -2.0250    0.0000 O.2     1  LIG1       -0.2907
     22 O           3.7880    1.1420    0.0000 O.3     1  LIG1       -0.3223
     23 C           2.3830    1.1420    0.0000 C.3     1  LIG1        0.1767
@<TRIPOS>BOND
     1     1     2   ar
     2     1     5   ar
     3     1    15    1
     4     2     3   ar
     5     2    14    2
     6     3     4   ar
     7     3    13    1
     8     4     5   ar
     9     4     6    1
    10     6     7    1
    11     7     8   ar
    12     7    12   ar
    13     8     9   ar
    14     9    10   ar
    15    10    11   ar
    16    11    12   ar
    17    15    16    1
    18    15    20    1
    19    16    17    1
    20    16    23    1
    21    17    18    1
    22    18    19    1
    23    18    22    1
    24    19    20    1
    25    19    21    2
    26    22    23    1
