@<TRIPOS>MOLECULE
33577_ChemDiv_8008-7427
 26 29 0 0 0
SMALL
GASTEIGER
Energy = 0

@<TRIPOS>ATOM
      1 N           1.4920    0.6290    0.0000 N.am    1  LIG1       -0.2777
      2 C           0.6420    1.1250    0.0000 C.2     1  LIG1        0.2490
      3 C          -0.2290    0.6080    0.0000 C.ar    1  LIG1        0.0537
      4 C          -1.0790    1.0960    0.0000 C.ar    1  LIG1        0.0058
      5 C          -1.9290    0.6080    0.0000 C.ar    1  LIG1        0.0155
      6 C          -1.9290   -0.3710    0.0000 C.ar    1  LIG1        0.0606
      7 N          -2.7790   -0.8630    0.0000 N.am    1  LIG1       -0.2081
      8 C          -2.8420   -1.8250    0.0000 C.2     1  LIG1        0.2356
      9 C          -3.8170   -2.0920    0.0000 C.3     1  LIG1        0.0956
     10 C          -4.3380   -1.2420    0.0000 C.3     1  LIG1        0.0956
     11 C          -3.6790   -0.4630    0.0000 C.2     1  LIG1        0.2356
     12 O          -3.9130    0.5080    0.0000 O.2     1  LIG1       -0.2741
     13 O          -2.0750   -2.4580    0.0000 O.2     1  LIG1       -0.2741
     14 C          -1.0790   -0.8630    0.0000 C.ar    1  LIG1        0.0155
     15 C          -0.2290   -0.3710    0.0000 C.ar    1  LIG1        0.0058
     16 O           0.6420    2.1080    0.0000 O.2     1  LIG1       -0.2699
     17 C           2.3420    1.1250    0.0000 C.3     1  LIG1        0.0757
     18 C           3.2580    0.8540    0.0000 C.3     1  LIG1        0.0198
     19 C           3.5500   -0.1710    0.0000 C.3     1  LIG1        0.0016
     20 C           3.6830    1.6130    0.0000 C.3     1  LIG1        0.0018
     21 C           2.4540    2.0040    0.0000 C.3     1  LIG1        0.0215
     22 C           1.6290    1.5170    0.0000 C.3     1  LIG1        0.0936
     23 C           1.8830    2.4630    0.0000 C.3     1  LIG1        0.0215
     24 C           4.3330    1.7250    0.0000 C.3     1  LIG1        0.0001
     25 C           3.0250   -0.6040    0.0000 C.3     1  LIG1        0.0001
     26 C           4.2750    0.0790    0.0000 C.3     1  LIG1        0.0001
@<TRIPOS>BOND
     1     1     2   am
     2     1    17    1
     3     1    22    1
     4     2     3    1
     5     2    16    2
     6     3     4   ar
     7     3    15   ar
     8     4     5   ar
     9     5     6   ar
    10     6     7    1
    11     6    14   ar
    12     7     8   am
    13     7    11   am
    14     8     9    1
    15     8    13    2
    16     9    10    1
    17    10    11    1
    18    11    12    2
    19    14    15   ar
    20    17    18    1
    21    17    23    1
    22    18    19    1
    23    19    20    1
    24    19    25    1
    25    19    26    1
    26    20    21    1
    27    20    24    1
    28    21    22    1
    29    21    23    1
