@<TRIPOS>MOLECULE
33585_ChemDiv_K940-1888
 31 33 0 0 0
SMALL
GASTEIGER
Energy = 0

@<TRIPOS>ATOM
      1 C           1.2920    0.7540    0.0000 C.2     1  LIG1        0.2619
      2 N           2.1630    1.2670    0.0000 N.am    1  LIG1       -0.1780
      3 C           2.1630    2.2630    0.0000 C.ar    1  LIG1        0.0736
      4 C           1.2920    2.7670    0.0000 C.ar    1  LIG1        0.0197
      5 C           1.2920    3.7670    0.0000 C.ar    1  LIG1        0.0382
      6 C           2.1540    4.2580    0.0000 C.ar    1  LIG1        0.1386
      7 C           3.0290    3.7580    0.0000 C.ar    1  LIG1        0.0382
      8 C           3.0290    2.7630    0.0000 C.ar    1  LIG1        0.0197
      9 O           2.1540    5.2750    0.0000 O.3     1  LIG1       -0.4755
     10 C           3.0250    5.7830    0.0000 C.3     1  LIG1        0.2055
     11 C           3.0250    6.7710    0.0000 C.3     1  LIG1        0.0512
     12 C           1.2920   -0.2330    0.0000 C.3     1  LIG1        0.1609
     13 N           0.4290   -0.7420    0.0000 N.3     1  LIG1       -0.2548
     14 C           0.4290   -1.7420    0.0000 C.3     1  LIG1        0.1362
     15 C          -0.4380   -2.2330    0.0000 C.3     1  LIG1        0.1569
     16 N          -1.3080   -1.7420    0.0000 N.4     1  LIG1        0.3855
     17 C          -2.1710   -2.2290    0.0000 C.3     1  LIG1        0.2089
     18 C          -2.1710   -3.2330    0.0000 C.2     1  LIG1        0.2296
     19 C          -1.2960   -3.7290    0.0000 C.ar    1  LIG1        0.0408
     20 C          -1.3080   -4.7380    0.0000 C.ar    1  LIG1        0.0062
     21 C          -0.4500   -5.2420    0.0000 C.ar    1  LIG1        0.0370
     22 C           0.4250   -4.7580    0.0000 C.ar    1  LIG1        0.1386
     23 C           0.4290   -3.7630    0.0000 C.ar    1  LIG1        0.0370
     24 C          -0.4330   -3.2460    0.0000 C.ar    1  LIG1        0.0062
     25 O           1.2880   -5.2670    0.0000 O.3     1  LIG1       -0.4755
     26 C           1.2750   -6.2540    0.0000 C.3     1  LIG1        0.2055
     27 C           2.1330   -6.7710    0.0000 C.3     1  LIG1        0.0512
     28 O          -3.0330   -3.7290    0.0000 O.2     1  LIG1       -0.2851
     29 C          -1.3080   -0.7420    0.0000 C.3     1  LIG1        0.1569
     30 C          -0.4330   -0.2420    0.0000 C.3     1  LIG1        0.1362
     31 O           0.4290    1.2540    0.0000 O.2     1  LIG1       -0.2715
@<TRIPOS>BOND
     1     1     2   am
     2     1    12    1
     3     1    31    2
     4     2     3    1
     5     3     4   ar
     6     3     8   ar
     7     4     5   ar
     8     5     6   ar
     9     6     7   ar
    10     6     9    1
    11     7     8   ar
    12     9    10    1
    13    10    11    1
    14    12    13    1
    15    13    14    1
    16    13    30    1
    17    14    15    1
    18    15    16    1
    19    16    17    1
    20    16    29    1
    21    17    18    1
    22    18    19    1
    23    18    28    2
    24    19    20   ar
    25    19    24   ar
    26    20    21   ar
    27    21    22   ar
    28    22    23   ar
    29    22    25    1
    30    23    24   ar
    31    25    26    1
    32    26    27    1
    33    29    30    1
