@<TRIPOS>MOLECULE
33582_ChemDiv_8009-6144
 24 28 0 0 0
SMALL
GASTEIGER
Energy = 0

@<TRIPOS>ATOM
      1 N          -0.2920    0.0250    0.0000 N.ar    1  LIG1       -0.2416
      2 C          -0.8040    0.8880    0.0000 C.ar    1  LIG1        0.2669
      3 C          -1.8130    0.8750    0.0000 C.ar    1  LIG1        0.0567
      4 C          -2.3040   -0.0080    0.0000 C.ar    1  LIG1        0.0092
      5 C          -1.7960   -0.8500    0.0000 C.ar    1  LIG1        0.0567
      6 C          -0.7710   -0.8380    0.0000 C.ar    1  LIG1        0.2669
      7 O          -0.2670   -1.7000    0.0000 O.2     1  LIG1       -0.2665
      8 C          -2.2670   -1.7380    0.0000 C.ar    1  LIG1        0.0047
      9 C          -3.2630   -1.7580    0.0000 C.ar    1  LIG1        0.0002
     10 C          -3.7750   -0.8960    0.0000 C.ar    1  LIG1        0.0000
     11 C          -3.2960   -0.0330    0.0000 C.ar    1  LIG1        0.0003
     12 C          -3.8250    0.8420    0.0000 C.ar    1  LIG1        0.0000
     13 C          -3.3460    1.7040    0.0000 C.ar    1  LIG1        0.0002
     14 C          -2.3250    1.7290    0.0000 C.ar    1  LIG1        0.0047
     15 O          -0.3130    1.7630    0.0000 O.2     1  LIG1       -0.2665
     16 C           0.7040    0.0380    0.0000 C.ar    1  LIG1        0.0729
     17 C           1.2330   -0.8000    0.0000 C.ar    1  LIG1        0.0579
     18 C           2.2380   -0.7750    0.0000 C.ar    1  LIG1        0.1779
     19 C           2.7170    0.0750    0.0000 C.ar    1  LIG1        0.1765
     20 O           3.7000   -0.1040    0.0000 O.3     1  LIG1       -0.4346
     21 C           3.8210   -1.0880    0.0000 C.3     1  LIG1        0.4294
     22 O           2.9080   -1.5080    0.0000 O.3     1  LIG1       -0.4346
     23 C           2.2040    0.9500    0.0000 C.ar    1  LIG1        0.0417
     24 C           1.2080    0.9130    0.0000 C.ar    1  LIG1        0.0210
@<TRIPOS>BOND
     1     1     2   ar
     2     1     6   ar
     3     1    16    1
     4     2     3   ar
     5     2    15    2
     6     3     4   ar
     7     3    14   ar
     8     4     5   ar
     9     4    11   ar
    10     5     6   ar
    11     5     8   ar
    12     6     7    2
    13     8     9   ar
    14     9    10   ar
    15    10    11   ar
    16    11    12   ar
    17    12    13   ar
    18    13    14   ar
    19    16    17   ar
    20    16    24   ar
    21    17    18   ar
    22    18    19   ar
    23    18    22    1
    24    19    20    1
    25    19    23   ar
    26    20    21    1
    27    21    22    1
    28    23    24   ar
