@<TRIPOS>MOLECULE
33587_ChemDiv_K940-1895
 33 35 0 0 0
SMALL
GASTEIGER
Energy = 0

@<TRIPOS>ATOM
      1 C          -2.1630   -2.7290    0.0000 C.2     1  LIG1        0.2619
      2 N          -1.2920   -3.2540    0.0000 N.am    1  LIG1       -0.1778
      3 C          -1.3000   -4.2580    0.0000 C.ar    1  LIG1        0.0794
      4 C          -0.4420   -4.7540    0.0000 C.ar    1  LIG1        0.0537
      5 C          -0.4420   -5.7540    0.0000 C.ar    1  LIG1        0.1431
      6 C          -1.3000   -6.2500    0.0000 C.ar    1  LIG1        0.0738
      7 C          -2.1670   -5.7630    0.0000 C.ar    1  LIG1        0.1431
      8 C          -2.1630   -4.7670    0.0000 C.ar    1  LIG1        0.0537
      9 O          -3.0420   -6.2630    0.0000 O.3     1  LIG1       -0.4713
     10 C          -3.0420   -7.2500    0.0000 C.3     1  LIG1        0.2525
     11 O           0.4380   -6.2630    0.0000 O.3     1  LIG1       -0.4713
     12 C           1.3080   -5.7540    0.0000 C.3     1  LIG1        0.2525
     13 C          -2.1630   -1.7420    0.0000 C.3     1  LIG1        0.1609
     14 N          -1.3000   -1.2540    0.0000 N.3     1  LIG1       -0.2548
     15 C          -0.4290   -1.7500    0.0000 C.3     1  LIG1        0.1362
     16 C           0.4380   -1.2540    0.0000 C.3     1  LIG1        0.1570
     17 N           0.4380   -0.2580    0.0000 N.4     1  LIG1        0.3867
     18 C           1.2960    0.2500    0.0000 C.3     1  LIG1        0.2270
     19 C           1.2960    1.2380    0.0000 C.2     1  LIG1        0.3033
     20 N           2.1710    1.7460    0.0000 N.am    1  LIG1       -0.1742
     21 C           2.1710    2.7460    0.0000 C.ar    1  LIG1        0.0738
     22 C           3.0380    3.2460    0.0000 C.ar    1  LIG1        0.0197
     23 C           3.0380    4.2380    0.0000 C.ar    1  LIG1        0.0382
     24 C           2.1580    4.7420    0.0000 C.ar    1  LIG1        0.1386
     25 C           1.2960    4.2420    0.0000 C.ar    1  LIG1        0.0382
     26 C           1.2960    3.2500    0.0000 C.ar    1  LIG1        0.0197
     27 O           2.1580    5.7540    0.0000 O.3     1  LIG1       -0.4755
     28 C           3.0290    6.2630    0.0000 C.3     1  LIG1        0.2055
     29 C           3.0290    7.2500    0.0000 C.3     1  LIG1        0.0512
     30 O           0.4380    1.7380    0.0000 O.2     1  LIG1       -0.2665
     31 C          -0.4250    0.2420    0.0000 C.3     1  LIG1        0.1570
     32 C          -1.3000   -0.2580    0.0000 C.3     1  LIG1        0.1362
     33 O          -3.0250   -3.2460    0.0000 O.2     1  LIG1       -0.2715
@<TRIPOS>BOND
     1     1     2   am
     2     1    13    1
     3     1    33    2
     4     2     3    1
     5     3     4   ar
     6     3     8   ar
     7     4     5   ar
     8     5     6   ar
     9     5    11    1
    10     6     7   ar
    11     7     8   ar
    12     7     9    1
    13     9    10    1
    14    11    12    1
    15    13    14    1
    16    14    15    1
    17    14    32    1
    18    15    16    1
    19    16    17    1
    20    17    18    1
    21    17    31    1
    22    18    19    1
    23    19    20   am
    24    19    30    2
    25    20    21    1
    26    21    22   ar
    27    21    26   ar
    28    22    23   ar
    29    23    24   ar
    30    24    25   ar
    31    24    27    1
    32    25    26   ar
    33    27    28    1
    34    28    29    1
    35    31    32    1
