@<TRIPOS>MOLECULE
33586_ChemDiv_8012-8848
 28 32 0 0 0
SMALL
GASTEIGER
Energy = 0

@<TRIPOS>ATOM
      1 N           0.5920   -0.6830    0.0000 N.ar    1  LIG1       -0.2259
      2 C           0.1460   -1.2960    0.0000 C.ar    1  LIG1        0.1847
      3 N          -0.5790   -1.0420    0.0000 N.ar    1  LIG1       -0.2568
      4 C          -0.5790   -0.2960    0.0000 C.ar    1  LIG1        0.2444
      5 N           0.1460   -0.0380    0.0000 N.ar    1  LIG1       -0.1316
      6 N          -1.2210    0.1170    0.0000 N.pl3   1  LIG1       -0.1775
      7 C          -1.8880   -0.1960    0.0000 C.ar    1  LIG1        0.0736
      8 C          -2.5330    0.1830    0.0000 C.ar    1  LIG1        0.0166
      9 C          -3.2380   -0.1500    0.0000 C.ar    1  LIG1        0.0013
     10 C          -3.2540   -0.9080    0.0000 C.ar    1  LIG1        0.0001
     11 C          -2.6380   -1.3170    0.0000 C.ar    1  LIG1        0.0013
     12 C          -1.9710   -0.9750    0.0000 C.ar    1  LIG1        0.0166
     13 C          -1.2000   -1.4960    0.0000 C.ar    1  LIG1        0.0684
     14 C          -1.1250   -2.2540    0.0000 C.ar    1  LIG1        0.0177
     15 C          -1.7250   -2.7330    0.0000 C.ar    1  LIG1        0.0015
     16 C          -2.4130   -2.4290    0.0000 C.ar    1  LIG1        0.0001
     17 C          -2.4920   -1.6580    0.0000 C.ar    1  LIG1        0.0015
     18 C          -1.8880   -1.2080    0.0000 C.ar    1  LIG1        0.0177
     19 S           0.4250   -2.0170    0.0000 S.2     1  LIG1       -0.0108
     20 C           0.6210    0.1920    0.0000 C.3     1  LIG1        0.1444
     21 C           1.2670    1.3420    0.0000 C.3     1  LIG1        0.1705
     22 O           2.6170    1.3420    0.0000 O.3     1  LIG1       -0.3229
     23 C           3.2500    0.1920    0.0000 C.3     1  LIG1        0.2960
     24 C           2.6170   -0.9290    0.0000 C.2     1  LIG1        0.2087
     25 C           1.3130   -0.9290    0.0000 C.3     1  LIG1        0.0968
     26 O           3.2500   -2.0880    0.0000 O.2     1  LIG1       -0.2907
     27 O           3.2500    2.7380    0.0000 O.3     1  LIG1       -0.3223
     28 C           1.2670    2.7380    0.0000 C.3     1  LIG1        0.1767
@<TRIPOS>BOND
     1     1     2   ar
     2     1     5   ar
     3     1    20    1
     4     2     3   ar
     5     2    19    2
     6     3     4   ar
     7     3    13    1
     8     4     5   ar
     9     4     6    1
    10     6     7    1
    11     7     8   ar
    12     7    12   ar
    13     8     9   ar
    14     9    10   ar
    15    10    11   ar
    16    11    12   ar
    17    13    14   ar
    18    13    18   ar
    19    14    15   ar
    20    15    16   ar
    21    16    17   ar
    22    17    18   ar
    23    20    21    1
    24    20    25    1
    25    21    22    1
    26    21    28    1
    27    22    23    1
    28    23    24    1
    29    23    27    1
    30    24    25    1
    31    24    26    2
    32    27    28    1
