@<TRIPOS>MOLECULE
33588_ChemDiv_8013-1701
 28 32 0 0 0
SMALL
GASTEIGER
Energy = 0

@<TRIPOS>ATOM
      1 N          -0.9540   -1.2880    0.0000 N.ar    1  LIG1       -0.2272
      2 C          -1.4380   -0.3750    0.0000 C.ar    1  LIG1        0.1837
      3 N          -0.7130    0.3710    0.0000 N.ar    1  LIG1       -0.2700
      4 C           0.2170   -0.0880    0.0000 C.ar    1  LIG1        0.1687
      5 N           0.0670   -1.1080    0.0000 N.ar    1  LIG1       -0.1495
      6 C           1.1290    0.3920    0.0000 C.ar    1  LIG1        0.0384
      7 C           2.0080   -0.1670    0.0000 C.ar    1  LIG1        0.0327
      8 C           2.9170    0.3210    0.0000 C.ar    1  LIG1        0.1402
      9 F           3.7960   -0.2380    0.0000 F       1  LIG1       -0.2042
     10 C           2.9630    1.3500    0.0000 C.ar    1  LIG1        0.0296
     11 C           2.0790    1.9040    0.0000 C.ar    1  LIG1        0.0024
     12 C           1.1670    1.4170    0.0000 C.ar    1  LIG1        0.0032
     13 C          -0.8880    1.3790    0.0000 C.ar    1  LIG1        0.0672
     14 C          -1.8580    1.7330    0.0000 C.ar    1  LIG1        0.0176
     15 C          -2.0330    2.7500    0.0000 C.ar    1  LIG1        0.0015
     16 C          -1.2420    3.4130    0.0000 C.ar    1  LIG1        0.0001
     17 C          -0.2670    3.0540    0.0000 C.ar    1  LIG1        0.0015
     18 C          -0.0880    2.0380    0.0000 C.ar    1  LIG1        0.0176
     19 S          -2.4580   -0.2210    0.0000 S.2     1  LIG1       -0.0109
     20 C          -1.6290   -1.9040    0.0000 C.3     1  LIG1        0.1444
     21 C          -2.0170   -2.8710    0.0000 C.3     1  LIG1        0.1705
     22 O          -2.7920   -2.2170    0.0000 O.3     1  LIG1       -0.3229
     23 C          -3.6790   -2.2130    0.0000 C.3     1  LIG1        0.2960
     24 C          -3.3460   -1.5380    0.0000 C.2     1  LIG1        0.2087
     25 C          -2.2790   -2.0750    0.0000 C.3     1  LIG1        0.0968
     26 O          -3.6710   -0.5580    0.0000 O.2     1  LIG1       -0.2907
     27 O          -3.8000   -2.9130    0.0000 O.3     1  LIG1       -0.3223
     28 C          -2.9000   -3.4080    0.0000 C.3     1  LIG1        0.1767
@<TRIPOS>BOND
     1     1     2   ar
     2     1     5   ar
     3     1    20    1
     4     2     3   ar
     5     2    19    2
     6     3     4   ar
     7     3    13    1
     8     4     5   ar
     9     4     6    1
    10     6     7   ar
    11     6    12   ar
    12     7     8   ar
    13     8     9    1
    14     8    10   ar
    15    10    11   ar
    16    11    12   ar
    17    13    14   ar
    18    13    18   ar
    19    14    15   ar
    20    15    16   ar
    21    16    17   ar
    22    17    18   ar
    23    20    21    1
    24    20    25    1
    25    21    22    1
    26    21    28    1
    27    22    23    1
    28    23    24    1
    29    23    27    1
    30    24    25    1
    31    24    26    2
    32    27    28    1
