@<TRIPOS>MOLECULE
33589_ChemDiv_K940-1900
 36 39 0 0 0
SMALL
GASTEIGER
Energy = 0

@<TRIPOS>ATOM
      1 C           3.4580   -0.7580    0.0000 C.2     1  LIG1        0.2619
      2 N           4.3330   -0.2500    0.0000 N.am    1  LIG1       -0.1780
      3 C           4.3330    0.7500    0.0000 C.ar    1  LIG1        0.0736
      4 C           5.2000    1.2460    0.0000 C.ar    1  LIG1        0.0197
      5 C           5.2000    2.2460    0.0000 C.ar    1  LIG1        0.0382
      6 C           4.3210    2.7500    0.0000 C.ar    1  LIG1        0.1386
      7 C           3.4580    2.2500    0.0000 C.ar    1  LIG1        0.0382
      8 C           3.4580    1.2540    0.0000 C.ar    1  LIG1        0.0197
      9 O           4.3210    3.7630    0.0000 O.3     1  LIG1       -0.4755
     10 C           5.1960    4.2710    0.0000 C.3     1  LIG1        0.2055
     11 C           5.1960    5.2580    0.0000 C.3     1  LIG1        0.0512
     12 C           3.4580   -1.7460    0.0000 C.3     1  LIG1        0.1609
     13 N           2.5960   -2.2580    0.0000 N.3     1  LIG1       -0.2548
     14 C           2.5960   -3.2540    0.0000 C.3     1  LIG1        0.1362
     15 C           1.7290   -3.7500    0.0000 C.3     1  LIG1        0.1570
     16 N           0.8580   -3.2540    0.0000 N.4     1  LIG1        0.3867
     17 C          -0.0040   -3.7460    0.0000 C.3     1  LIG1        0.2270
     18 C          -0.0040   -4.7500    0.0000 C.2     1  LIG1        0.3033
     19 N          -0.8670   -5.2580    0.0000 N.am    1  LIG1       -0.1742
     20 C          -1.7500   -4.7500    0.0000 C.ar    1  LIG1        0.0738
     21 C          -1.7330   -3.7670    0.0000 C.ar    1  LIG1        0.0197
     22 C          -2.6000   -3.2710    0.0000 C.ar    1  LIG1        0.0388
     23 C          -3.4630   -3.7500    0.0000 C.ar    1  LIG1        0.1454
     24 O          -4.3420   -3.2630    0.0000 O.3     1  LIG1       -0.4535
     25 C          -4.3420   -2.2580    0.0000 C.ar    1  LIG1        0.1453
     26 C          -3.4790   -1.7630    0.0000 C.ar    1  LIG1        0.0375
     27 C          -3.4630   -0.7670    0.0000 C.ar    1  LIG1        0.0031
     28 C          -4.3420   -0.2580    0.0000 C.ar    1  LIG1        0.0002
     29 C          -5.2040   -0.7580    0.0000 C.ar    1  LIG1        0.0031
     30 C          -5.2040   -1.7580    0.0000 C.ar    1  LIG1        0.0375
     31 C          -3.4630   -4.7630    0.0000 C.ar    1  LIG1        0.0388
     32 C          -2.6000   -5.2500    0.0000 C.ar    1  LIG1        0.0197
     33 O           0.8580   -5.2420    0.0000 O.2     1  LIG1       -0.2665
     34 C           0.8580   -2.2580    0.0000 C.3     1  LIG1        0.1570
     35 C           1.7380   -1.7580    0.0000 C.3     1  LIG1        0.1362
     36 O           2.5960   -0.2580    0.0000 O.2     1  LIG1       -0.2715
@<TRIPOS>BOND
     1     1     2   am
     2     1    12    1
     3     1    36    2
     4     2     3    1
     5     3     4   ar
     6     3     8   ar
     7     4     5   ar
     8     5     6   ar
     9     6     7   ar
    10     6     9    1
    11     7     8   ar
    12     9    10    1
    13    10    11    1
    14    12    13    1
    15    13    14    1
    16    13    35    1
    17    14    15    1
    18    15    16    1
    19    16    17    1
    20    16    34    1
    21    17    18    1
    22    18    19   am
    23    18    33    2
    24    19    20    1
    25    20    21   ar
    26    20    32   ar
    27    21    22   ar
    28    22    23   ar
    29    23    24    1
    30    23    31   ar
    31    24    25    1
    32    25    26   ar
    33    25    30   ar
    34    26    27   ar
    35    27    28   ar
    36    28    29   ar
    37    29    30   ar
    38    31    32   ar
    39    34    35    1
