@<TRIPOS>MOLECULE
33599_ChemDiv_8008-3538
 24 25 0 0 0
SMALL
GASTEIGER
Energy = 0

@<TRIPOS>ATOM
      1 C           0.6420    0.1130    0.0000 C.3     1  LIG1        0.2055
      2 C           0.2540   -1.0790    0.0000 C.3     1  LIG1        0.1827
      3 N          -1.3130   -0.6040    0.0000 N.4     1  LIG1        0.3721
      4 C          -2.3210   -1.3630    0.0000 C.3     1  LIG1        0.1381
      5 C          -1.7880    0.0460    0.0000 C.3     1  LIG1        0.0610
      6 C          -0.4540   -0.3790    0.0000 C.3     1  LIG1        0.0564
      7 C          -2.6130    0.0460    0.0000 C.3     1  LIG1        0.0057
      8 C          -2.6130    0.8500    0.0000 C.3     1  LIG1        0.0002
      9 C          -3.4040    0.0460    0.0000 C.3     1  LIG1        0.0002
     10 C          -2.6130   -0.6040    0.0000 C.3     1  LIG1        0.0002
     11 C          -1.3130   -1.6670    0.0000 C.3     1  LIG1        0.0464
     12 C          -1.3040   -2.4040    0.0000 C.3     1  LIG1        0.0569
     13 C          -0.5880   -1.6670    0.0000 C.3     1  LIG1        0.0569
     14 C          -1.9380   -1.6670    0.0000 C.3     1  LIG1        0.0569
     15 O           0.6290    0.9210    0.0000 O.3     1  LIG1       -0.4455
     16 C          -0.2290    1.4040    0.0000 C.2     1  LIG1        0.3178
     17 O          -1.0790    0.8880    0.0000 O.2     1  LIG1       -0.2501
     18 C          -0.2290    2.4080    0.0000 C.3     1  LIG1        0.1212
     19 C           1.5380   -0.1670    0.0000 C.ar    1  LIG1        0.0193
     20 C           1.7500   -1.1000    0.0000 C.ar    1  LIG1       -0.0007
     21 C           2.6710   -1.3920    0.0000 C.ar    1  LIG1       -0.0002
     22 C           3.4000   -0.7330    0.0000 C.ar    1  LIG1       -0.0000
     23 C           3.1880    0.1830    0.0000 C.ar    1  LIG1       -0.0002
     24 C           2.2580    0.4710    0.0000 C.ar    1  LIG1       -0.0007
@<TRIPOS>BOND
     1     1     2    1
     2     1     6    1
     3     1    15    1
     4     1    19    1
     5     2     3    1
     6     3     4    1
     7     3    11    1
     8     4     5    1
     9     5     6    1
    10     5     7    1
    11     7     8    1
    12     7     9    1
    13     7    10    1
    14    11    12    1
    15    11    13    1
    16    11    14    1
    17    15    16    1
    18    16    17    2
    19    16    18    1
    20    19    20   ar
    21    19    24   ar
    22    20    21   ar
    23    21    22   ar
    24    22    23   ar
    25    23    24   ar
