@<TRIPOS>MOLECULE
33590_ChemDiv_8014-1175
 25 29 0 0 0
SMALL
GASTEIGER
Energy = 0

@<TRIPOS>ATOM
      1 N          -0.1710   -2.5960    0.0000 N.ar    1  LIG1       -0.2081
      2 C          -0.1580   -1.5500    0.0000 C.ar    1  LIG1        0.2013
      3 N           0.8330   -1.2420    0.0000 N.ar    1  LIG1       -0.1873
      4 N           1.4330   -2.0880    0.0000 N.ar    1  LIG1       -0.0398
      5 N           0.8130   -2.9250    0.0000 N.ar    1  LIG1       -0.0438
      6 C           1.1630   -0.2580    0.0000 C.ar    1  LIG1        0.0864
      7 C           2.1790   -0.0580    0.0000 C.ar    1  LIG1        0.0188
      8 C           2.5080    0.9210    0.0000 C.ar    1  LIG1        0.0290
      9 C           1.8250    1.6960    0.0000 C.ar    1  LIG1        0.0753
     10 C           2.3540    2.5830    0.0000 C.2     1  LIG1        0.3413
     11 O           3.3670    2.3630    0.0000 O.3     1  LIG1       -0.4404
     12 C           3.4630    1.3290    0.0000 C.3     1  LIG1        0.2356
     13 O           1.9420    3.5420    0.0000 O.2     1  LIG1       -0.2449
     14 C           0.8040    1.4880    0.0000 C.ar    1  LIG1        0.0078
     15 C           0.4750    0.5130    0.0000 C.ar    1  LIG1        0.0195
     16 S          -0.9960   -0.9290    0.0000 S.2     1  LIG1       -0.0094
     17 C          -1.0670   -2.8080    0.0000 C.3     1  LIG1        0.1460
     18 C          -1.8670   -3.4790    0.0000 C.3     1  LIG1        0.1705
     19 O          -2.2420   -2.5330    0.0000 O.3     1  LIG1       -0.3229
     20 C          -3.0170   -2.1040    0.0000 C.3     1  LIG1        0.2960
     21 C          -2.4040   -1.6670    0.0000 C.2     1  LIG1        0.2087
     22 C          -1.7250   -2.6500    0.0000 C.3     1  LIG1        0.0968
     23 O          -2.2210   -0.6420    0.0000 O.2     1  LIG1       -0.2907
     24 O          -3.4670   -2.6670    0.0000 O.3     1  LIG1       -0.3223
     25 C          -2.9080   -3.5380    0.0000 C.3     1  LIG1        0.1767
@<TRIPOS>BOND
     1     1     2   ar
     2     1     5   ar
     3     1    17    1
     4     2     3   ar
     5     2    16    2
     6     3     4   ar
     7     3     6    1
     8     4     5   ar
     9     6     7   ar
    10     6    15   ar
    11     7     8   ar
    12     8     9   ar
    13     8    12    1
    14     9    10    1
    15     9    14   ar
    16    10    11    1
    17    10    13    2
    18    11    12    1
    19    14    15   ar
    20    17    18    1
    21    17    22    1
    22    18    19    1
    23    18    25    1
    24    19    20    1
    25    20    21    1
    26    20    24    1
    27    21    22    1
    28    21    23    2
    29    24    25    1
