@<TRIPOS>MOLECULE
33595_ChemDiv_8006-5495
 28 31 0 0 0
SMALL
GASTEIGER
Energy = 0

@<TRIPOS>ATOM
      1 N          -0.1250    0.5460    0.0000 N.am    1  LIG1       -0.1998
      2 C           0.8630    0.2420    0.0000 C.2     1  LIG1        0.2589
      3 C           1.4380    1.0380    0.0000 C.ar    1  LIG1        0.0587
      4 C           0.8630    1.8380    0.0000 C.ar    1  LIG1        0.0587
      5 C          -0.1250    1.5330    0.0000 C.2     1  LIG1        0.2589
      6 O          -0.9130    2.1420    0.0000 O.2     1  LIG1       -0.2691
      7 C           1.2500    2.7500    0.0000 C.ar    1  LIG1        0.0047
      8 C           2.2330    2.8670    0.0000 C.ar    1  LIG1        0.0013
      9 C           2.8420    2.0460    0.0000 C.ar    1  LIG1        0.0141
     10 C           2.4130    1.1330    0.0000 C.ar    1  LIG1        0.0058
     11 C           3.8380    2.1670    0.0000 C.2     1  LIG1        0.0729
     12 O           4.2710    3.0830    0.0000 O.co2   1  LIG1       -0.5446
     13 O           4.4130    1.3420    0.0000 O.co2   1  LIG1       -0.5446
     14 O           1.1670   -0.7290    0.0000 O.2     1  LIG1       -0.2691
     15 C          -0.9710    0.0330    0.0000 C.ar    1  LIG1        0.0765
     16 C          -0.9710   -0.9710    0.0000 C.ar    1  LIG1        0.0874
     17 N          -0.0830   -1.4880    0.0000 N.am    1  LIG1       -0.1779
     18 C          -0.0830   -2.4790    0.0000 C.2     1  LIG1        0.2461
     19 O           0.7540   -3.0790    0.0000 O.2     1  LIG1       -0.2730
     20 C          -0.8920   -2.9380    0.0000 C.3     1  LIG1        0.0968
     21 C          -1.8210   -1.4580    0.0000 C.ar    1  LIG1        0.0179
     22 C          -2.7130   -0.9710    0.0000 C.ar    1  LIG1        0.0014
     23 C          -2.7130    0.0330    0.0000 C.ar    1  LIG1        0.0013
     24 C          -1.8210    0.5460    0.0000 C.ar    1  LIG1        0.0167
     25 C          -3.5580    0.5460    0.0000 C.ar    1  LIG1        0.0000
     26 C          -4.4170    0.0330    0.0000 C.ar    1  LIG1        0.0000
     27 C          -4.4170   -0.9710    0.0000 C.ar    1  LIG1        0.0000
     28 C          -3.5580   -1.4580    0.0000 C.ar    1  LIG1        0.0000
@<TRIPOS>BOND
     1     1     2   am
     2     1     5   am
     3     1    15    1
     4     2     3    1
     5     2    14    2
     6     3     4   ar
     7     3    10   ar
     8     4     5    1
     9     4     7   ar
    10     5     6    2
    11     7     8   ar
    12     8     9   ar
    13     9    10   ar
    14     9    11    1
    15    11    12   ar
    16    11    13   ar
    17    15    16   ar
    18    15    24   ar
    19    16    17    1
    20    16    21   ar
    21    17    18   am
    22    18    19    2
    23    18    20    1
    24    21    22   ar
    25    22    23   ar
    26    22    28   ar
    27    23    24   ar
    28    23    25   ar
    29    25    26   ar
    30    26    27   ar
    31    27    28   ar
