@<TRIPOS>MOLECULE
33592_ChemDiv_8014-2704
 15 17 0 0 0
SMALL
GASTEIGER
Energy = 0

@<TRIPOS>ATOM
      1 N           0.8290    0.3040    0.0000 N.ar    1  LIG1       -0.2160
      2 C          -0.0250   -0.1920    0.0000 C.3     1  LIG1        0.1453
      3 C          -0.6420   -0.9540    0.0000 C.3     1  LIG1        0.1705
      4 O          -1.6130   -0.6420    0.0000 O.3     1  LIG1       -0.3229
      5 C          -2.3920   -0.9540    0.0000 C.3     1  LIG1        0.2960
      6 C          -1.7710   -0.1920    0.0000 C.2     1  LIG1        0.2087
      7 C          -0.7750   -0.5750    0.0000 C.3     1  LIG1        0.0968
      8 O          -1.7710    0.7960    0.0000 O.2     1  LIG1       -0.2907
      9 O          -2.3920   -1.7710    0.0000 O.3     1  LIG1       -0.3223
     10 C          -0.6460   -1.7670    0.0000 C.3     1  LIG1        0.1767
     11 N           1.7290   -0.1000    0.0000 N.ar    1  LIG1       -0.0431
     12 N           2.3880    0.6330    0.0000 N.ar    1  LIG1       -0.0230
     13 N           1.8960    1.4880    0.0000 N.ar    1  LIG1       -0.1127
     14 C           0.9330    1.2830    0.0000 C.ar    1  LIG1        0.1613
     15 C           0.0790    1.7750    0.0000 C.3     1  LIG1        0.0754
@<TRIPOS>BOND
     1     1     2    1
     2     1    11   ar
     3     1    14   ar
     4     2     3    1
     5     2     7    1
     6     3     4    1
     7     3    10    1
     8     4     5    1
     9     5     6    1
    10     5     9    1
    11     6     7    1
    12     6     8    2
    13     9    10    1
    14    11    12   ar
    15    12    13   ar
    16    13    14   ar
    17    14    15    1
