@<TRIPOS>MOLECULE
33597_ChemDiv_8006-5502
 21 22 0 0 0
SMALL
GASTEIGER
Energy = 0

@<TRIPOS>ATOM
      1 C           0.1500    0.6670    0.0000 C.3     1  LIG1        0.2055
      2 C           0.1500   -0.3210    0.0000 C.3     1  LIG1        0.1827
      3 N           1.0250   -0.8290    0.0000 N.4     1  LIG1        0.3721
      4 C           1.0250   -1.8130    0.0000 C.3     1  LIG1        0.0464
      5 C           1.0250   -2.8250    0.0000 C.3     1  LIG1        0.0569
      6 C           0.0420   -1.8130    0.0000 C.3     1  LIG1        0.0569
      7 C           2.0380   -1.8130    0.0000 C.3     1  LIG1        0.0569
      8 C           1.9000   -0.3210    0.0000 C.3     1  LIG1        0.1381
      9 C           1.9000    0.6670    0.0000 C.3     1  LIG1        0.0610
     10 C           1.0250    1.1750    0.0000 C.3     1  LIG1        0.0564
     11 C           2.7710    1.1750    0.0000 C.3     1  LIG1        0.0063
     12 O          -0.6380    1.2290    0.0000 O.3     1  LIG1       -0.4455
     13 C          -0.5460    2.2500    0.0000 C.2     1  LIG1        0.3178
     14 O          -1.3670    2.8290    0.0000 O.2     1  LIG1       -0.2501
     15 C           0.3460    2.6630    0.0000 C.3     1  LIG1        0.1212
     16 C          -0.8170    0.4420    0.0000 C.ar    1  LIG1        0.0193
     17 C          -1.1290   -0.5170    0.0000 C.ar    1  LIG1       -0.0007
     18 C          -2.1000   -0.7290    0.0000 C.ar    1  LIG1       -0.0002
     19 C          -2.7750    0.0170    0.0000 C.ar    1  LIG1       -0.0000
     20 C          -2.4920    0.9630    0.0000 C.ar    1  LIG1       -0.0002
     21 C          -1.5080    1.1750    0.0000 C.ar    1  LIG1       -0.0007
@<TRIPOS>BOND
     1     1     2    1
     2     1    10    1
     3     1    12    1
     4     1    16    1
     5     2     3    1
     6     3     4    1
     7     3     8    1
     8     4     5    1
     9     4     6    1
    10     4     7    1
    11     8     9    1
    12     9    10    1
    13     9    11    1
    14    12    13    1
    15    13    14    2
    16    13    15    1
    17    16    17   ar
    18    16    21   ar
    19    17    18   ar
    20    18    19   ar
    21    19    20   ar
    22    20    21   ar
