@<TRIPOS>MOLECULE
33591_ChemDiv_K940-2780
 36 39 0 0 0
SMALL
GASTEIGER
Energy = 0

@<TRIPOS>ATOM
      1 C           3.8880    0.5040    0.0000 C.2     1  LIG1        0.2620
      2 N           4.7580    1.0080    0.0000 N.am    1  LIG1       -0.1750
      3 C           4.7460    2.0040    0.0000 C.ar    1  LIG1        0.1072
      4 C           5.6250    2.5130    0.0000 C.ar    1  LIG1        0.1539
      5 O           6.5000    2.0170    0.0000 O.3     1  LIG1       -0.4701
      6 C           6.5170    1.0080    0.0000 C.3     1  LIG1        0.2525
      7 C           5.6250    3.5000    0.0000 C.ar    1  LIG1        0.0383
      8 C           4.7580    4.0080    0.0000 C.ar    1  LIG1        0.0032
      9 C           3.8880    3.5000    0.0000 C.ar    1  LIG1        0.0015
     10 C           3.8880    2.5000    0.0000 C.ar    1  LIG1        0.0197
     11 C           3.8880   -0.4960    0.0000 C.3     1  LIG1        0.1609
     12 N           3.0250   -1.0040    0.0000 N.3     1  LIG1       -0.2548
     13 C           3.0250   -2.0000    0.0000 C.3     1  LIG1        0.1362
     14 C           2.1630   -2.4960    0.0000 C.3     1  LIG1        0.1570
     15 N           1.2880   -2.0000    0.0000 N.4     1  LIG1        0.3867
     16 C           0.4250   -2.4920    0.0000 C.3     1  LIG1        0.2270
     17 C           0.4250   -3.4920    0.0000 C.2     1  LIG1        0.3033
     18 N          -0.4380   -4.0080    0.0000 N.am    1  LIG1       -0.1742
     19 C          -1.3210   -3.5080    0.0000 C.ar    1  LIG1        0.0738
     20 C          -2.1710   -4.0080    0.0000 C.ar    1  LIG1        0.0197
     21 C          -3.0330   -3.5210    0.0000 C.ar    1  LIG1        0.0382
     22 C          -3.0330   -2.5210    0.0000 C.ar    1  LIG1        0.1391
     23 O          -3.9080   -2.0170    0.0000 O.3     1  LIG1       -0.4706
     24 C          -3.9210   -1.0170    0.0000 C.3     1  LIG1        0.2320
     25 C          -4.7880   -0.5210    0.0000 C.ar    1  LIG1        0.0212
     26 C          -4.7880    0.4790    0.0000 C.ar    1  LIG1       -0.0007
     27 C          -5.6500    0.9750    0.0000 C.ar    1  LIG1       -0.0002
     28 C          -6.5170    0.4750    0.0000 C.ar    1  LIG1       -0.0000
     29 C          -6.5170   -0.5330    0.0000 C.ar    1  LIG1       -0.0002
     30 C          -5.6500   -1.0170    0.0000 C.ar    1  LIG1       -0.0007
     31 C          -2.1830   -2.0210    0.0000 C.ar    1  LIG1        0.0382
     32 C          -1.3130   -2.5210    0.0000 C.ar    1  LIG1        0.0197
     33 O           1.2960   -3.9750    0.0000 O.2     1  LIG1       -0.2665
     34 C           1.2880   -1.0040    0.0000 C.3     1  LIG1        0.1570
     35 C           2.1580   -0.5040    0.0000 C.3     1  LIG1        0.1362
     36 O           3.0170    1.0040    0.0000 O.2     1  LIG1       -0.2715
@<TRIPOS>BOND
     1     1     2   am
     2     1    11    1
     3     1    36    2
     4     2     3    1
     5     3     4   ar
     6     3    10   ar
     7     4     5    1
     8     4     7   ar
     9     5     6    1
    10     7     8   ar
    11     8     9   ar
    12     9    10   ar
    13    11    12    1
    14    12    13    1
    15    12    35    1
    16    13    14    1
    17    14    15    1
    18    15    16    1
    19    15    34    1
    20    16    17    1
    21    17    18   am
    22    17    33    2
    23    18    19    1
    24    19    20   ar
    25    19    32   ar
    26    20    21   ar
    27    21    22   ar
    28    22    23    1
    29    22    31   ar
    30    23    24    1
    31    24    25    1
    32    25    26   ar
    33    25    30   ar
    34    26    27   ar
    35    27    28   ar
    36    28    29   ar
    37    29    30   ar
    38    31    32   ar
    39    34    35    1
