@<TRIPOS>MOLECULE
33593_ChemDiv_K940-2973
 28 30 0 0 0
SMALL
GASTEIGER
Energy = 0

@<TRIPOS>ATOM
      1 C           0.8540    1.2710    0.0000 C.2     1  LIG1        0.2619
      2 N           1.7170    1.7710    0.0000 N.am    1  LIG1       -0.1772
      3 C           1.7170    2.7710    0.0000 C.ar    1  LIG1        0.0839
      4 C           2.5880    3.2830    0.0000 C.ar    1  LIG1        0.0729
      5 CL          3.4710    2.7830    0.0000 Cl      1  LIG1       -0.0809
      6 C           2.5790    4.2630    0.0000 C.ar    1  LIG1        0.0127
      7 C           1.7170    4.7630    0.0000 C.ar    1  LIG1        0.0010
      8 C           0.8500    4.2580    0.0000 C.ar    1  LIG1        0.0014
      9 C           0.8540    3.2540    0.0000 C.ar    1  LIG1        0.0175
     10 C           0.8540    0.2710    0.0000 C.3     1  LIG1        0.1609
     11 N          -0.0080   -0.2290    0.0000 N.3     1  LIG1       -0.2548
     12 C          -0.8710    0.2670    0.0000 C.3     1  LIG1        0.1362
     13 C          -1.7330   -0.2330    0.0000 C.3     1  LIG1        0.1569
     14 N          -1.7330   -1.2250    0.0000 N.4     1  LIG1        0.3855
     15 C          -2.6000   -1.7170    0.0000 C.3     1  LIG1        0.2089
     16 C          -2.6000   -2.7210    0.0000 C.2     1  LIG1        0.2297
     17 C          -1.7330   -3.2290    0.0000 C.ar    1  LIG1        0.0440
     18 C          -0.8630   -2.7380    0.0000 C.ar    1  LIG1        0.0484
     19 C          -0.0080   -3.2500    0.0000 C.ar    1  LIG1        0.2343
     20 C          -0.0170   -4.2580    0.0000 C.ar    1  LIG1        0.2343
     21 C          -0.8880   -4.7420    0.0000 C.ar    1  LIG1        0.0455
     22 C          -1.7500   -4.2290    0.0000 C.ar    1  LIG1        0.0065
     23 O           0.8540   -4.7630    0.0000 O.3     1  LIG1       -0.2831
     24 O           0.8630   -2.7670    0.0000 O.3     1  LIG1       -0.2831
     25 O          -3.4750   -3.2210    0.0000 O.2     1  LIG1       -0.2851
     26 C          -0.8630   -1.7210    0.0000 C.3     1  LIG1        0.1569
     27 C          -0.0080   -1.2330    0.0000 C.3     1  LIG1        0.1362
     28 O          -0.0170    1.7670    0.0000 O.2     1  LIG1       -0.2715
@<TRIPOS>BOND
     1     1     2   am
     2     1    10    1
     3     1    28    2
     4     2     3    1
     5     3     4   ar
     6     3     9   ar
     7     4     5    1
     8     4     6   ar
     9     6     7   ar
    10     7     8   ar
    11     8     9   ar
    12    10    11    1
    13    11    12    1
    14    11    27    1
    15    12    13    1
    16    13    14    1
    17    14    15    1
    18    14    26    1
    19    15    16    1
    20    16    17    1
    21    16    25    2
    22    17    18   ar
    23    17    22   ar
    24    18    19   ar
    25    19    20   ar
    26    19    24    1
    27    20    21   ar
    28    20    23    1
    29    21    22   ar
    30    26    27    1
