@<TRIPOS>MOLECULE
33605_ChemDiv_C389-0664
 31 34 0 0 0
SMALL
GASTEIGER
Energy = 0

@<TRIPOS>ATOM
      1 N          -2.5750    3.7630    0.0000 N.am    1  LIG1       -0.2586
      2 C          -1.7580    4.3540    0.0000 C.2     1  LIG1        0.2294
      3 O          -0.8130    4.0370    0.0000 O.2     1  LIG1       -0.2745
      4 C          -2.0580    5.3170    0.0000 C.3     1  LIG1        0.0874
      5 C          -3.0750    5.3170    0.0000 C.3     1  LIG1        0.0315
      6 C          -3.3790    4.3630    0.0000 C.3     1  LIG1        0.0987
      7 C          -2.5750    2.7630    0.0000 C.ar    1  LIG1        0.0538
      8 C          -3.4250    2.2630    0.0000 C.ar    1  LIG1        0.0150
      9 C          -3.4250    1.2710    0.0000 C.ar    1  LIG1        0.0058
     10 C          -2.5920    0.7750    0.0000 C.ar    1  LIG1        0.0551
     11 C          -2.5920   -0.2330    0.0000 C.2     1  LIG1        0.2648
     12 O          -1.7080   -0.7420    0.0000 O.2     1  LIG1       -0.2684
     13 N          -3.4500   -0.7250    0.0000 N.am    1  LIG1       -0.2014
     14 C          -3.4500   -1.7330    0.0000 C.3     1  LIG1        0.1216
     15 C          -2.6000   -2.2500    0.0000 C.3     1  LIG1        0.0861
     16 C          -2.6000   -3.2380    0.0000 C.3     1  LIG1        0.1404
     17 N          -1.7580   -3.7540    0.0000 N.4     1  LIG1        0.3773
     18 C          -1.7580   -4.7380    0.0000 C.3     1  LIG1        0.1386
     19 C          -0.9080   -5.2630    0.0000 C.3     1  LIG1        0.0632
     20 C          -0.0420   -4.7790    0.0000 C.3     1  LIG1        0.0162
     21 C           0.8170   -5.2920    0.0000 C.3     1  LIG1        0.0268
     22 C           1.6920   -4.8000    0.0000 C.ar    1  LIG1       -0.0222
     23 C           1.7130   -3.8000    0.0000 C.ar    1  LIG1       -0.0043
     24 C           2.5790   -3.3170    0.0000 C.ar    1  LIG1       -0.0003
     25 C           3.4460   -3.8330    0.0000 C.ar    1  LIG1       -0.0000
     26 C           3.4210   -4.8330    0.0000 C.ar    1  LIG1       -0.0003
     27 C           2.5500   -5.3170    0.0000 C.ar    1  LIG1       -0.0043
     28 C          -0.0250   -3.7670    0.0000 C.3     1  LIG1        0.0632
     29 C          -0.8830   -3.2500    0.0000 C.3     1  LIG1        0.1386
     30 C          -1.7040    1.2630    0.0000 C.ar    1  LIG1        0.0058
     31 C          -1.7040    2.2460    0.0000 C.ar    1  LIG1        0.0150
@<TRIPOS>BOND
     1     1     2   am
     2     1     6    1
     3     1     7    1
     4     2     3    2
     5     2     4    1
     6     4     5    1
     7     5     6    1
     8     7     8   ar
     9     7    31   ar
    10     8     9   ar
    11     9    10   ar
    12    10    11    1
    13    10    30   ar
    14    11    12    2
    15    11    13   am
    16    13    14    1
    17    14    15    1
    18    15    16    1
    19    16    17    1
    20    17    18    1
    21    17    29    1
    22    18    19    1
    23    19    20    1
    24    20    21    1
    25    20    28    1
    26    21    22    1
    27    22    23   ar
    28    22    27   ar
    29    23    24   ar
    30    24    25   ar
    31    25    26   ar
    32    26    27   ar
    33    28    29    1
    34    30    31   ar
