@<TRIPOS>MOLECULE
33604_ChemDiv_8009-6736
 20 23 0 0 0
SMALL
GASTEIGER
Energy = 0

@<TRIPOS>ATOM
      1 C          -2.5580   -0.2170    0.0000 C.ar    1  LIG1        0.1422
      2 C          -3.4250    0.2670    0.0000 C.ar    1  LIG1        0.1853
      3 N          -4.1750   -0.4170    0.0000 N.ar    1  LIG1       -0.2032
      4 C          -3.7670   -1.3080    0.0000 C.ar    1  LIG1        0.2004
      5 N          -2.7750   -1.1830    0.0000 N.ar    1  LIG1       -0.2188
      6 N          -3.4250    1.2670    0.0000 N.ar    1  LIG1       -0.2032
      7 C          -2.5580    1.7540    0.0000 C.ar    1  LIG1        0.2008
      8 N          -1.7040    1.2670    0.0000 N.ar    1  LIG1       -0.2160
      9 C          -1.7040    0.2670    0.0000 C.ar    1  LIG1        0.1294
     10 S          -0.8210   -0.2580    0.0000 S.3     1  LIG1       -0.0885
     11 C           0.0630    0.2670    0.0000 C.3     1  LIG1        0.0900
     12 C           0.9210   -0.2580    0.0000 C.ar    1  LIG1       -0.0077
     13 C           1.8130    0.2250    0.0000 C.ar    1  LIG1        0.0368
     14 C           2.6710   -0.2580    0.0000 C.ar    1  LIG1        0.1761
     15 C           2.6710   -1.2670    0.0000 C.ar    1  LIG1        0.1764
     16 O           3.6000   -1.5920    0.0000 O.3     1  LIG1       -0.4346
     17 C           4.1710   -0.7420    0.0000 C.3     1  LIG1        0.4294
     18 O           3.6000    0.0670    0.0000 O.3     1  LIG1       -0.4346
     19 C           1.8130   -1.7500    0.0000 C.ar    1  LIG1        0.0399
     20 C           0.9210   -1.2670    0.0000 C.ar    1  LIG1       -0.0001
@<TRIPOS>BOND
     1     1     2   ar
     2     1     5   ar
     3     1     9   ar
     4     2     3   ar
     5     2     6   ar
     6     3     4   ar
     7     4     5   ar
     8     6     7   ar
     9     7     8   ar
    10     8     9   ar
    11     9    10    1
    12    10    11    1
    13    11    12    1
    14    12    13   ar
    15    12    20   ar
    16    13    14   ar
    17    14    15   ar
    18    14    18    1
    19    15    16    1
    20    15    19   ar
    21    16    17    1
    22    17    18    1
    23    19    20   ar
