@<TRIPOS>MOLECULE
33603_ChemDiv_C389-0625
 23 25 0 0 0
SMALL
GASTEIGER
Energy = 0

@<TRIPOS>ATOM
      1 N           1.2380    2.5330    0.0000 N.am    1  LIG1       -0.2586
      2 C           2.0170    3.1460    0.0000 C.2     1  LIG1        0.2294
      3 O           2.9880    2.8790    0.0000 O.2     1  LIG1       -0.2745
      4 C           1.6670    4.0790    0.0000 C.3     1  LIG1        0.0874
      5 C           0.6790    4.0250    0.0000 C.3     1  LIG1        0.0315
      6 C           0.4080    3.0750    0.0000 C.3     1  LIG1        0.0987
      7 C           1.2380    1.5210    0.0000 C.ar    1  LIG1        0.0538
      8 C           2.1040    1.0210    0.0000 C.ar    1  LIG1        0.0150
      9 C           2.1040    0.0170    0.0000 C.ar    1  LIG1        0.0058
     10 C           1.2380   -0.4880    0.0000 C.ar    1  LIG1        0.0551
     11 C           1.2380   -1.4830    0.0000 C.2     1  LIG1        0.2650
     12 N           0.3750   -1.9830    0.0000 N.am    1  LIG1       -0.1955
     13 C          -0.5000   -2.4880    0.0000 C.3     1  LIG1        0.1717
     14 C          -1.3630   -1.9830    0.0000 C.3     1  LIG1        0.1092
     15 N          -2.2330   -2.4880    0.0000 N.4     1  LIG1        0.3743
     16 C          -2.9920   -1.8170    0.0000 C.3     1  LIG1        0.1385
     17 C          -2.5670   -0.9080    0.0000 C.3     1  LIG1        0.0687
     18 C          -1.5790   -1.0170    0.0000 C.3     1  LIG1        0.0647
     19 C          -2.3330   -3.4830    0.0000 C.3     1  LIG1        0.1385
     20 C          -1.5250   -4.0790    0.0000 C.3     1  LIG1        0.0688
     21 O           2.1040   -1.9830    0.0000 O.2     1  LIG1       -0.2684
     22 C           0.3750    0.0170    0.0000 C.ar    1  LIG1        0.0058
     23 C           0.3750    1.0210    0.0000 C.ar    1  LIG1        0.0150
@<TRIPOS>BOND
     1     1     2   am
     2     1     6    1
     3     1     7    1
     4     2     3    2
     5     2     4    1
     6     4     5    1
     7     5     6    1
     8     7     8   ar
     9     7    23   ar
    10     8     9   ar
    11     9    10   ar
    12    10    11    1
    13    10    22   ar
    14    11    12   am
    15    11    21    2
    16    12    13    1
    17    13    14    1
    18    14    15    1
    19    14    18    1
    20    15    16    1
    21    15    19    1
    22    16    17    1
    23    17    18    1
    24    19    20    1
    25    22    23   ar
