@<TRIPOS>MOLECULE
33601_ChemDiv_8015-1480
 33 36 0 0 0
SMALL
GASTEIGER
Energy = 0

@<TRIPOS>ATOM
      1 N          -1.7500    0.1540    0.0000 N.am    1  LIG1       -0.2206
      2 C          -1.4420    1.1080    0.0000 C.2     1  LIG1        0.2384
      3 C          -0.4460    1.1080    0.0000 C.3     1  LIG1        0.1578
      4 C          -0.1380    0.1540    0.0000 C.3     1  LIG1        0.2302
      5 C          -0.9420   -0.4290    0.0000 C.2     1  LIG1        0.2892
      6 O          -0.9420   -1.4330    0.0000 O.2     1  LIG1       -0.2680
      7 N           0.7290   -0.3460    0.0000 N.4     1  LIG1        0.4511
      8 C           1.5920    0.1540    0.0000 C.3     1  LIG1        0.2073
      9 C           2.4580   -0.3460    0.0000 C.3     1  LIG1        0.1313
     10 C           3.3290    0.1540    0.0000 C.3     1  LIG1        0.1450
     11 N           4.1960   -0.3460    0.0000 N.4     1  LIG1        0.3774
     12 C           4.1960   -1.3460    0.0000 C.3     1  LIG1        0.1391
     13 C           5.0630   -1.8460    0.0000 C.3     1  LIG1        0.0721
     14 C           5.9290   -1.3460    0.0000 C.3     1  LIG1        0.0917
     15 C           6.7960   -1.8460    0.0000 C.2     1  LIG1        0.2607
     16 O           6.7960   -2.8500    0.0000 O.2     1  LIG1       -0.2717
     17 N           7.6670   -1.3460    0.0000 N.am    1  LIG1       -0.0878
     18 C           5.9290   -0.3460    0.0000 C.3     1  LIG1        0.0721
     19 C           5.0630    0.1540    0.0000 C.3     1  LIG1        0.1391
     20 O          -1.9420    1.9710    0.0000 O.2     1  LIG1       -0.2742
     21 C          -2.6210   -0.3460    0.0000 C.3     1  LIG1        0.1276
     22 C          -3.4880    0.1540    0.0000 C.ar    1  LIG1       -0.0018
     23 C          -4.3540   -0.3460    0.0000 C.ar    1  LIG1       -0.0013
     24 C          -5.2210    0.1540    0.0000 C.ar    1  LIG1        0.0146
     25 C          -5.2210    1.1540    0.0000 C.ar    1  LIG1        0.0538
     26 N          -6.0830    1.6500    0.0000 N.am    1  LIG1       -0.2586
     27 C          -6.9960    1.2500    0.0000 C.2     1  LIG1        0.2294
     28 O          -6.9960    0.2500    0.0000 O.2     1  LIG1       -0.2745
     29 C          -7.6670    1.9920    0.0000 C.3     1  LIG1        0.0874
     30 C          -7.1630    2.8540    0.0000 C.3     1  LIG1        0.0315
     31 C          -6.1880    2.6460    0.0000 C.3     1  LIG1        0.0987
     32 C          -4.3540    1.6500    0.0000 C.ar    1  LIG1        0.0146
     33 C          -3.4880    1.1540    0.0000 C.ar    1  LIG1       -0.0013
@<TRIPOS>BOND
     1     1     2   am
     2     1     5   am
     3     1    21    1
     4     2     3    1
     5     2    20    2
     6     3     4    1
     7     4     5    1
     8     4     7    1
     9     5     6    2
    10     7     8    1
    11     8     9    1
    12     9    10    1
    13    10    11    1
    14    11    12    1
    15    11    19    1
    16    12    13    1
    17    13    14    1
    18    14    15    1
    19    14    18    1
    20    15    16    2
    21    15    17   am
    22    18    19    1
    23    21    22    1
    24    22    23   ar
    25    22    33   ar
    26    23    24   ar
    27    24    25   ar
    28    25    26    1
    29    25    32   ar
    30    26    27   am
    31    26    31    1
    32    27    28    2
    33    27    29    1
    34    29    30    1
    35    30    31    1
    36    32    33   ar
