@<TRIPOS>MOLECULE
33608_ChemDiv_8009-6762
 28 30 0 0 0
SMALL
GASTEIGER
Energy = 0

@<TRIPOS>ATOM
      1 C           0.4130   -1.2420    0.0000 C.ar    1  LIG1        0.1639
      2 C           0.4130   -0.2630    0.0000 C.ar    1  LIG1        0.1018
      3 C           1.2750    0.2500    0.0000 C.ar    1  LIG1        0.0139
      4 C           2.1380   -0.2630    0.0000 C.ar    1  LIG1        0.0199
      5 C           2.1380   -1.2420    0.0000 C.ar    1  LIG1        0.0828
      6 N           1.2750   -1.7580    0.0000 N.ar    1  LIG1       -0.2281
      7 C           3.0040   -1.7580    0.0000 C.ar    1  LIG1        0.0177
      8 C           3.0040   -2.7750    0.0000 C.ar    1  LIG1        0.0015
      9 C           3.8630   -3.2540    0.0000 C.ar    1  LIG1        0.0000
     10 C           4.7250   -2.7750    0.0000 C.ar    1  LIG1        0.0000
     11 C           4.7250   -1.7580    0.0000 C.ar    1  LIG1        0.0000
     12 C           3.8630   -1.2420    0.0000 C.ar    1  LIG1        0.0015
     13 C           1.2750    1.2420    0.0000 C.ar    1  LIG1        0.0008
     14 C           0.4130    1.7580    0.0000 C.ar    1  LIG1        0.0000
     15 C           0.4130    2.7460    0.0000 C.ar    1  LIG1        0.0000
     16 C           1.2750    3.2580    0.0000 C.ar    1  LIG1        0.0000
     17 C           2.1380    2.7460    0.0000 C.ar    1  LIG1        0.0000
     18 C           2.1380    1.7580    0.0000 C.ar    1  LIG1        0.0000
     19 C          -0.4500    0.2500    0.0000 C.1     1  LIG1        0.1033
     20 N          -1.3130    0.7630    0.0000 N.1     1  LIG1       -0.1907
     21 N          -0.4500   -1.7880    0.0000 N.am    1  LIG1       -0.1592
     22 C          -1.3130   -1.2790    0.0000 C.2     1  LIG1        0.2583
     23 C          -2.1420   -1.8210    0.0000 C.3     1  LIG1        0.1963
     24 C          -3.0330   -1.3080    0.0000 C.2     1  LIG1        0.3266
     25 O          -3.0330   -0.3250    0.0000 O.2     1  LIG1       -0.2495
     26 O          -3.8630   -1.8500    0.0000 O.3     1  LIG1       -0.4440
     27 C          -4.7290   -1.3420    0.0000 C.3     1  LIG1        0.2556
     28 O          -1.3380   -0.2880    0.0000 O.2     1  LIG1       -0.2723
@<TRIPOS>BOND
     1     1     2   ar
     2     1     6   ar
     3     1    21    1
     4     2     3   ar
     5     2    19    1
     6     3     4   ar
     7     3    13    1
     8     4     5   ar
     9     5     6   ar
    10     5     7    1
    11     7     8   ar
    12     7    12   ar
    13     8     9   ar
    14     9    10   ar
    15    10    11   ar
    16    11    12   ar
    17    13    14   ar
    18    13    18   ar
    19    14    15   ar
    20    15    16   ar
    21    16    17   ar
    22    17    18   ar
    23    19    20    3
    24    21    22   am
    25    22    23    1
    26    22    28    2
    27    23    24    1
    28    24    25    2
    29    24    26    1
    30    26    27    1
