@<TRIPOS>MOLECULE
33617_ChemDiv_8006-5637
 12 12 0 0 0
SMALL
GASTEIGER
Energy = 0

@<TRIPOS>ATOM
      1 N           0.7460    0.8790    0.0000 N.am    1  LIG1       -0.1251
      2 C          -0.2540    0.8540    0.0000 C.2     1  LIG1        0.2647
      3 C          -0.7630    0.0130    0.0000 C.3     1  LIG1        0.2137
      4 C          -0.2540   -0.8540    0.0000 C.2     1  LIG1        0.2647
      5 N           0.7460   -0.8540    0.0000 N.am    1  LIG1       -0.1251
      6 C           1.2540    0.0130    0.0000 C.2     1  LIG1        0.3525
      7 O           2.2540    0.0130    0.0000 O.2     1  LIG1       -0.2483
      8 O          -0.7630   -1.7250    0.0000 O.2     1  LIG1       -0.2719
      9 C          -1.7580    0.0170    0.0000 C.2     1  LIG1        0.1683
     10 O          -2.2580   -0.8420    0.0000 O.2     1  LIG1       -0.2950
     11 C          -2.2330    0.8960    0.0000 C.3     1  LIG1        0.0733
     12 O          -0.7630    1.7290    0.0000 O.2     1  LIG1       -0.2719
@<TRIPOS>BOND
     1     1     2   am
     2     1     6   am
     3     2     3    1
     4     2    12    2
     5     3     4    1
     6     3     9    1
     7     4     5   am
     8     4     8    2
     9     5     6   am
    10     6     7    2
    11     9    10    2
    12     9    11    1
