@<TRIPOS>MOLECULE
33618_ChemDiv_8008-9750
 24 26 0 0 0
SMALL
GASTEIGER
Energy = 0

@<TRIPOS>ATOM
      1 C           0.4330   -2.4960    0.0000 C.ar    1  LIG1        0.1676
      2 C           0.4330   -1.4960    0.0000 C.ar    1  LIG1        0.0943
      3 C          -0.4460   -0.9960    0.0000 C.ar    1  LIG1        0.0202
      4 C          -1.3170   -1.4960    0.0000 C.ar    1  LIG1        0.1034
      5 C          -1.3170   -2.4960    0.0000 C.ar    1  LIG1        0.1808
      6 N          -0.4460   -2.9960    0.0000 N.ar    1  LIG1       -0.2078
      7 N          -2.1830   -2.9830    0.0000 N.pl3   1  LIG1       -0.1064
      8 C          -2.1830   -1.0130    0.0000 C.1     1  LIG1        0.1034
      9 N          -3.0540   -0.5290    0.0000 N.1     1  LIG1       -0.1907
     10 C          -0.4460    0.0000    0.0000 C.ar    1  LIG1        0.0042
     11 C           0.4170    0.4670    0.0000 C.ar    1  LIG1        0.0402
     12 C           0.4630    1.4830    0.0000 C.ar    1  LIG1        0.1774
     13 C          -0.4130    2.0130    0.0000 C.ar    1  LIG1        0.2293
     14 C          -1.2750    1.5460    0.0000 C.ar    1  LIG1        0.0452
     15 C          -1.3080    0.5130    0.0000 C.ar    1  LIG1        0.0035
     16 O          -0.4130    3.0000    0.0000 O.3     1  LIG1       -0.2833
     17 O           1.3420    1.9330    0.0000 O.3     1  LIG1       -0.4682
     18 C           2.1710    1.4210    0.0000 C.3     1  LIG1        0.2526
     19 C           1.3080   -0.9960    0.0000 C.ar    1  LIG1        0.2814
     20 N           2.1830   -1.4960    0.0000 N.ar    1  LIG1       -0.2210
     21 C           2.1830   -2.4960    0.0000 C.ar    1  LIG1       -0.0025
     22 N           1.3080   -2.9960    0.0000 N.ar    1  LIG1       -0.2395
     23 S           3.0500   -2.9830    0.0000 S.3     1  LIG1       -0.7188
     24 O           1.3080   -0.0170    0.0000 O.3     1  LIG1       -0.2651
@<TRIPOS>BOND
     1     1     2   ar
     2     1     6   ar
     3     1    22   ar
     4     2     3   ar
     5     2    19   ar
     6     3     4   ar
     7     3    10    1
     8     4     5   ar
     9     4     8    1
    10     5     6   ar
    11     5     7    1
    12     8     9    3
    13    10    11   ar
    14    10    15   ar
    15    11    12   ar
    16    12    13   ar
    17    12    17    1
    18    13    14   ar
    19    13    16    1
    20    14    15   ar
    21    17    18    1
    22    19    20   ar
    23    19    24    1
    24    20    21   ar
    25    21    22   ar
    26    21    23    1
