@<TRIPOS>MOLECULE
33620_ChemDiv_8008-9779
 32 35 0 0 0
SMALL
GASTEIGER
Energy = 0

@<TRIPOS>ATOM
      1 S          -3.2960   -0.7540    0.0000 S.O2    1  LIG1        0.0770
      2 N          -3.2790    0.2420    0.0000 N.pl3   1  LIG1       -0.1812
      3 C          -2.4210    0.7420    0.0000 C.3     1  LIG1        0.2020
      4 C          -1.5540    0.2420    0.0000 C.2     1  LIG1        0.2635
      5 O          -1.5540   -0.7710    0.0000 O.2     1  LIG1       -0.2714
      6 N          -0.6790    0.7330    0.0000 N.am    1  LIG1       -0.2030
      7 C           0.1750    0.2290    0.0000 C.3     1  LIG1        0.1272
      8 C           1.0500    0.7170    0.0000 C.3     1  LIG1        0.0875
      9 S           1.9170    0.2130    0.0000 S.3     1  LIG1       -0.0866
     10 C           2.7920    0.7000    0.0000 C.ar    1  LIG1        0.1364
     11 N           2.9000    1.6920    0.0000 N.ar    1  LIG1       -0.2320
     12 C           3.8830    1.8880    0.0000 C.ar    1  LIG1        0.0884
     13 C           4.3750    1.0210    0.0000 C.ar    1  LIG1        0.0490
     14 S           3.6920    0.2750    0.0000 S.2     1  LIG1       -0.0603
     15 C           5.3710    1.0130    0.0000 C.ar    1  LIG1        0.0080
     16 C           5.8960    1.8710    0.0000 C.ar    1  LIG1        0.0006
     17 C           5.3960    2.7420    0.0000 C.ar    1  LIG1        0.0016
     18 C           4.3880    2.7580    0.0000 C.ar    1  LIG1        0.0196
     19 C          -4.1500    0.7420    0.0000 C.ar    1  LIG1        0.0694
     20 C          -4.1500    1.7580    0.0000 C.ar    1  LIG1        0.0161
     21 C          -5.0000    2.2500    0.0000 C.ar    1  LIG1        0.0013
     22 C          -5.8580    1.7580    0.0000 C.ar    1  LIG1        0.0001
     23 C          -5.8580    0.7420    0.0000 C.ar    1  LIG1        0.0013
     24 C          -5.0000    0.2500    0.0000 C.ar    1  LIG1        0.0161
     25 O          -2.8040   -1.6080    0.0000 O.2     1  LIG1       -0.1497
     26 O          -2.3000   -0.7540    0.0000 O.2     1  LIG1       -0.1497
     27 C          -4.1630   -1.2460    0.0000 C.ar    1  LIG1        0.1254
     28 C          -4.1710   -2.2630    0.0000 C.ar    1  LIG1        0.0202
     29 C          -5.0420   -2.7540    0.0000 C.ar    1  LIG1        0.0014
     30 C          -5.9000   -2.2380    0.0000 C.ar    1  LIG1        0.0001
     31 C          -5.8920   -1.2380    0.0000 C.ar    1  LIG1        0.0014
     32 C          -5.0080   -0.7420    0.0000 C.ar    1  LIG1        0.0202
@<TRIPOS>BOND
     1     1     2    1
     2     1    25    2
     3     1    26    2
     4     1    27    1
     5     2     3    1
     6     2    19    1
     7     3     4    1
     8     4     5    2
     9     4     6   am
    10     6     7    1
    11     7     8    1
    12     8     9    1
    13     9    10    1
    14    10    11   ar
    15    10    14   ar
    16    11    12   ar
    17    12    13   ar
    18    12    18   ar
    19    13    14   ar
    20    13    15   ar
    21    15    16   ar
    22    16    17   ar
    23    17    18   ar
    24    19    20   ar
    25    19    24   ar
    26    20    21   ar
    27    21    22   ar
    28    22    23   ar
    29    23    24   ar
    30    27    28   ar
    31    27    32   ar
    32    28    29   ar
    33    29    30   ar
    34    30    31   ar
    35    31    32   ar
