@<TRIPOS>MOLECULE
33622_ChemDiv_8009-0073
 25 25 0 0 0
SMALL
GASTEIGER
Energy = 0

@<TRIPOS>ATOM
      1 C          -2.7670   -0.5380    0.0000 C.3     1  LIG1        0.1294
      2 C          -3.7580   -0.5380    0.0000 C.3     1  LIG1        0.1302
      3 N          -4.2540    0.3290    0.0000 N.am    1  LIG1       -0.1678
      4 C          -3.7580    1.1920    0.0000 C.2     1  LIG1        0.4213
      5 O          -2.7670    1.1920    0.0000 O.2     1  LIG1       -0.2246
      6 O          -4.2830    2.0920    0.0000 O.3     1  LIG1       -0.4294
      7 C          -5.2750    2.0920    0.0000 C.3     1  LIG1        0.2574
      8 C          -4.0710   -1.5000    0.0000 C.3     1  LIG1        0.0811
      9 S          -3.2630   -2.0880    0.0000 S.3     1  LIG1       -0.1374
     10 C          -2.4540   -1.5000    0.0000 C.3     1  LIG1        0.0695
     11 C          -1.4710   -1.8080    0.0000 C.3     1  LIG1        0.0126
     12 C          -0.7290   -1.1580    0.0000 C.3     1  LIG1        0.0015
     13 C           0.2000   -1.4670    0.0000 C.3     1  LIG1        0.0117
     14 C           0.9670   -0.7880    0.0000 C.3     1  LIG1        0.1096
     15 C           1.8960   -1.0960    0.0000 C.2     1  LIG1        0.3170
     16 O           2.1130   -2.0540    0.0000 O.2     1  LIG1       -0.2501
     17 O           2.6420   -0.4460    0.0000 O.3     1  LIG1       -0.4485
     18 C           3.6000   -0.7540    0.0000 C.3     1  LIG1        0.2084
     19 C           4.3420   -0.0750    0.0000 C.3     1  LIG1        0.0474
     20 C           5.2710   -0.3830    0.0000 C.3     1  LIG1        0.0040
     21 N          -2.1460    0.2960    0.0000 N.am    1  LIG1       -0.1678
     22 C          -1.1630    0.2040    0.0000 C.2     1  LIG1        0.4213
     23 O          -0.7630   -0.6960    0.0000 O.2     1  LIG1       -0.2246
     24 O          -0.6040    1.0380    0.0000 O.3     1  LIG1       -0.4294
     25 C          -1.0080    1.9380    0.0000 C.3     1  LIG1        0.2574
@<TRIPOS>BOND
     1     1     2    1
     2     1    10    1
     3     1    21    1
     4     2     3    1
     5     2     8    1
     6     3     4   am
     7     4     5    2
     8     4     6    1
     9     6     7    1
    10     8     9    1
    11     9    10    1
    12    10    11    1
    13    11    12    1
    14    12    13    1
    15    13    14    1
    16    14    15    1
    17    15    16    2
    18    15    17    1
    19    17    18    1
    20    18    19    1
    21    19    20    1
    22    21    22   am
    23    22    23    2
    24    22    24    1
    25    24    25    1
