@<TRIPOS>MOLECULE
33627_ChemDiv_8006-6567
 18 19 0 0 0
SMALL
GASTEIGER
Energy = 0

@<TRIPOS>ATOM
      1 C          -0.2130   -0.2630    0.0000 C.ar    1  LIG1        0.1145
      2 C           0.7380   -0.5500    0.0000 C.2     1  LIG1        0.3462
      3 O           1.2920    0.2630    0.0000 O.3     1  LIG1       -0.4171
      4 C           0.7380    1.0790    0.0000 C.3     1  LIG1        0.3155
      5 C          -0.2130    0.7580    0.0000 C.ar    1  LIG1        0.0567
      6 C          -1.0580    1.2500    0.0000 C.ar    1  LIG1        0.0053
      7 C          -1.9250    0.7580    0.0000 C.ar    1  LIG1        0.0399
      8 C          -1.9250   -0.2630    0.0000 C.ar    1  LIG1        0.1726
      9 C          -1.0580   -0.7500    0.0000 C.ar    1  LIG1        0.1784
     10 O          -1.0580   -1.7420    0.0000 O.3     1  LIG1       -0.4682
     11 C          -0.2130   -2.2330    0.0000 C.3     1  LIG1        0.2526
     12 O          -2.8000   -0.7500    0.0000 O.3     1  LIG1       -0.4684
     13 C          -3.6750   -0.2630    0.0000 C.3     1  LIG1        0.2526
     14 O           1.0540    2.0380    0.0000 O.3     1  LIG1       -0.3171
     15 C           2.0670    2.2380    0.0000 C.3     1  LIG1        0.1462
     16 C           2.7130    1.4540    0.0000 C.3     1  LIG1        0.0322
     17 C           3.6710    1.6540    0.0000 C.3     1  LIG1        0.0027
     18 O           1.0540   -1.5380    0.0000 O.2     1  LIG1       -0.2447
@<TRIPOS>BOND
     1     1     2    1
     2     1     5   ar
     3     1     9   ar
     4     2     3    1
     5     2    18    2
     6     3     4    1
     7     4     5    1
     8     4    14    1
     9     5     6   ar
    10     6     7   ar
    11     7     8   ar
    12     8     9   ar
    13     8    12    1
    14     9    10    1
    15    10    11    1
    16    12    13    1
    17    14    15    1
    18    15    16    1
    19    16    17    1
