@<TRIPOS>MOLECULE
33624_ChemDiv_8009-0107
 15 16 0 0 0
SMALL
GASTEIGER
Energy = 0

@<TRIPOS>ATOM
      1 N           1.7250    0.3960    0.0000 N.ar    1  LIG1       -0.2214
      2 C           2.6580    0.0420    0.0000 C.ar    1  LIG1        0.2006
      3 S           2.5830   -0.9250    0.0000 S.2     1  LIG1       -0.0479
      4 C           1.6290   -1.2000    0.0000 C.ar    1  LIG1        0.0573
      5 C           1.0830   -0.3420    0.0000 C.ar    1  LIG1        0.0898
      6 C           0.1130   -0.2080    0.0000 C.ar    1  LIG1        0.0182
      7 C          -0.2630    0.7380    0.0000 C.ar    1  LIG1        0.0015
      8 C          -1.2210    0.8710    0.0000 C.ar    1  LIG1        0.0012
      9 C          -1.8750    0.1330    0.0000 C.ar    1  LIG1        0.0140
     10 C          -2.9040    0.2920    0.0000 C.2     1  LIG1        0.0729
     11 O          -3.5380   -0.5000    0.0000 O.co2   1  LIG1       -0.5446
     12 O          -3.2580    1.2040    0.0000 O.co2   1  LIG1       -0.5446
     13 C          -1.5290   -0.8420    0.0000 C.ar    1  LIG1        0.0012
     14 C          -0.5130   -0.9580    0.0000 C.ar    1  LIG1        0.0015
     15 N           3.5330    0.5790    0.0000 N.pl3   1  LIG1       -0.0998
@<TRIPOS>BOND
     1     1     2   ar
     2     1     5   ar
     3     2     3   ar
     4     2    15    1
     5     3     4   ar
     6     4     5   ar
     7     5     6    1
     8     6     7   ar
     9     6    14   ar
    10     7     8   ar
    11     8     9   ar
    12     9    10    1
    13     9    13   ar
    14    10    11   ar
    15    10    12   ar
    16    13    14   ar
