@<TRIPOS>MOLECULE
33630_ChemDiv_8009-0749
 27 29 0 0 0
SMALL
GASTEIGER
Energy = 0

@<TRIPOS>ATOM
      1 C           0.7500   -0.2130    0.0000 C.ar    1  LIG1        0.0886
      2 C           1.3040   -1.0290    0.0000 C.ar    1  LIG1        0.0436
      3 N           0.7500   -1.8460    0.0000 N.ar    1  LIG1       -0.3304
      4 C          -0.2210   -1.5420    0.0000 C.ar    1  LIG1        0.0599
      5 C          -0.2210   -0.5210    0.0000 C.ar    1  LIG1        0.0278
      6 C          -1.0920   -0.0290    0.0000 C.ar    1  LIG1        0.0749
      7 C          -1.0830    0.9580    0.0000 C.3     1  LIG1        0.1694
      8 N          -1.9250    1.4710    0.0000 N.4     1  LIG1        0.3808
      9 C          -1.9460    2.4790    0.0000 C.3     1  LIG1        0.1390
     10 C          -2.8080    2.9580    0.0000 C.3     1  LIG1        0.0629
     11 C          -3.6790    2.4500    0.0000 C.3     1  LIG1        0.0123
     12 C          -3.6670    1.4710    0.0000 C.3     1  LIG1        0.0629
     13 C          -2.7750    0.9670    0.0000 C.3     1  LIG1        0.1390
     14 C          -1.9710   -0.5210    0.0000 C.ar    1  LIG1        0.1973
     15 C          -1.9710   -1.5420    0.0000 C.ar    1  LIG1        0.0434
     16 C          -1.0920   -2.0210    0.0000 C.ar    1  LIG1        0.0204
     17 O          -2.8080    0.0040    0.0000 O.3     1  LIG1       -0.2867
     18 C           1.0750   -2.7790    0.0000 C.3     1  LIG1        0.1057
     19 C           2.0420   -2.9540    0.0000 C.3     1  LIG1        0.0245
     20 C           2.6830   -2.1710    0.0000 C.3     1  LIG1        0.0020
     21 C           3.6750   -2.3380    0.0000 C.3     1  LIG1        0.0001
     22 C           2.3040   -1.0290    0.0000 C.3     1  LIG1        0.0502
     23 C           1.0830    0.7170    0.0000 C.2     1  LIG1        0.3423
     24 O           0.4130    1.4580    0.0000 O.2     1  LIG1       -0.2449
     25 O           2.0540    0.9040    0.0000 O.3     1  LIG1       -0.4454
     26 C           2.4040    1.8500    0.0000 C.3     1  LIG1        0.2089
     27 C           3.4040    2.0130    0.0000 C.3     1  LIG1        0.0513
@<TRIPOS>BOND
     1     1     2   ar
     2     1     5   ar
     3     1    23    1
     4     2     3   ar
     5     2    22    1
     6     3     4   ar
     7     3    18    1
     8     4     5   ar
     9     4    16   ar
    10     5     6   ar
    11     6     7    1
    12     6    14   ar
    13     7     8    1
    14     8     9    1
    15     8    13    1
    16     9    10    1
    17    10    11    1
    18    11    12    1
    19    12    13    1
    20    14    15   ar
    21    14    17    1
    22    15    16   ar
    23    18    19    1
    24    19    20    1
    25    20    21    1
    26    23    24    2
    27    23    25    1
    28    25    26    1
    29    26    27    1
