@<TRIPOS>MOLECULE
33639_ChemDiv_8005-4031
 18 19 0 0 0
SMALL
GASTEIGER
Energy = 0

@<TRIPOS>ATOM
      1 C          -4.1000   -0.1080    0.0000 C.3     1  LIG1        0.0091
      2 C          -3.5750    0.7460    0.0000 C.3     1  LIG1        0.0091
      3 C          -3.1170   -0.1380    0.0000 C.3     1  LIG1        0.0782
      4 C          -2.2630   -0.6540    0.0000 C.2     1  LIG1        0.2409
      5 O          -2.2630   -1.6380    0.0000 O.2     1  LIG1       -0.2734
      6 N          -1.3880   -0.1880    0.0000 N.am    1  LIG1       -0.2054
      7 C          -0.5290   -0.7130    0.0000 C.3     1  LIG1        0.1151
      8 C           0.3630   -0.2290    0.0000 C.3     1  LIG1        0.0234
      9 C           1.2250   -0.7580    0.0000 C.3     1  LIG1        0.0018
     10 C           2.0790   -0.2920    0.0000 C.3     1  LIG1        0.0001
     11 C           2.9540   -0.8290    0.0000 C.3     1  LIG1        0.0000
     12 C           3.8170   -0.3420    0.0000 C.3     1  LIG1        0.0000
     13 C           4.6790   -0.8790    0.0000 C.3     1  LIG1        0.0000
     14 C           5.5670   -0.3750    0.0000 C.3     1  LIG1        0.0000
     15 C          -4.0580    1.6040    0.0000 C.3     1  LIG1        0.0005
     16 C          -5.0420    1.6420    0.0000 C.3     1  LIG1        0.0000
     17 C          -5.5710    0.7880    0.0000 C.3     1  LIG1        0.0000
     18 C          -5.1040   -0.1080    0.0000 C.3     1  LIG1        0.0005
@<TRIPOS>BOND
     1     1     2    1
     2     1     3    1
     3     1    18    1
     4     2     3    1
     5     2    15    1
     6     3     4    1
     7     4     5    2
     8     4     6   am
     9     6     7    1
    10     7     8    1
    11     8     9    1
    12     9    10    1
    13    10    11    1
    14    11    12    1
    15    12    13    1
    16    13    14    1
    17    15    16    1
    18    16    17    1
    19    17    18    1
