@<TRIPOS>MOLECULE
33631_ChemDiv_8006-6836
 21 23 0 0 0
SMALL
GASTEIGER
Energy = 0

@<TRIPOS>ATOM
      1 C          -2.0210    0.4210    0.0000 C.2     1  LIG1        0.2490
      2 N          -1.4080   -0.3540    0.0000 N.am    1  LIG1       -0.2711
      3 C          -2.0000   -1.1960    0.0000 C.3     1  LIG1        0.1206
      4 C          -2.9540   -0.8960    0.0000 C.ar    1  LIG1        0.0021
      5 C          -2.9540    0.1420    0.0000 C.ar    1  LIG1        0.0512
      6 C          -3.8170    0.6290    0.0000 C.ar    1  LIG1        0.0043
      7 C          -4.6830    0.1330    0.0000 C.ar    1  LIG1        0.0001
      8 C          -4.6920   -0.8750    0.0000 C.ar    1  LIG1       -0.0003
      9 C          -3.8170   -1.3710    0.0000 C.ar    1  LIG1       -0.0025
     10 C          -0.3750   -0.3540    0.0000 C.3     1  LIG1        0.1061
     11 C           0.1210   -1.1630    0.0000 C.3     1  LIG1        0.0854
     12 S           1.1420   -1.1630    0.0000 S.3     1  LIG1       -0.0905
     13 C           1.6130   -0.3210    0.0000 C.2     1  LIG1        0.1111
     14 N           2.7170   -0.3210    0.0000 N.am    1  LIG1       -0.2958
     15 C           3.2250    0.5290    0.0000 C.3     1  LIG1        0.1034
     16 C           4.1920    0.5290    0.0000 C.3     1  LIG1        0.0790
     17 S           4.6880   -0.3210    0.0000 S.3     1  LIG1       -0.1367
     18 C           4.1920   -1.1830    0.0000 C.3     1  LIG1        0.0790
     19 C           3.2080   -1.1830    0.0000 C.3     1  LIG1        0.1034
     20 S           1.0420    0.4880    0.0000 S.2     1  LIG1       -0.0279
     21 O          -1.7080    1.3750    0.0000 O.2     1  LIG1       -0.2699
@<TRIPOS>BOND
     1     1     2   am
     2     1     5    1
     3     1    21    2
     4     2     3    1
     5     2    10    1
     6     3     4    1
     7     4     5   ar
     8     4     9   ar
     9     5     6   ar
    10     6     7   ar
    11     7     8   ar
    12     8     9   ar
    13    10    11    1
    14    11    12    1
    15    12    13    1
    16    13    14    1
    17    13    20    2
    18    14    15    1
    19    14    19    1
    20    15    16    1
    21    16    17    1
    22    17    18    1
    23    18    19    1
