@<TRIPOS>MOLECULE
33637_ChemDiv_8005-3627
 18 20 0 0 0
SMALL
GASTEIGER
Energy = 0

@<TRIPOS>ATOM
      1 C           0.1670    0.0290    0.0000 C.2     1  LIG1        0.4255
      2 O           0.8830    0.4000    0.0000 O.3     1  LIG1       -0.4308
      3 C           1.8710    0.2210    0.0000 C.3     1  LIG1        0.2270
      4 C           1.8710   -0.8710    0.0000 C.3     1  LIG1        0.1827
      5 N           2.8210   -1.4290    0.0000 N.4     1  LIG1        0.3801
      6 C           2.3210   -0.7040    0.0000 C.3     1  LIG1        0.1388
      7 C           2.3210    0.0290    0.0000 C.3     1  LIG1        0.0667
      8 C           2.8210    0.7750    0.0000 C.3     1  LIG1        0.0582
      9 C           3.7830    0.2210    0.0000 C.3     1  LIG1        0.0667
     10 C           3.7830   -0.8710    0.0000 C.3     1  LIG1        0.1388
     11 N          -0.4670    0.4710    0.0000 N.am    1  LIG1       -0.1424
     12 C          -1.5460    0.4710    0.0000 C.ar    1  LIG1        0.0767
     13 C          -2.1170   -0.4920    0.0000 C.ar    1  LIG1        0.0167
     14 C          -3.2210   -0.4920    0.0000 C.ar    1  LIG1        0.0013
     15 C          -3.7880    0.4710    0.0000 C.ar    1  LIG1        0.0001
     16 C          -3.2170    1.4330    0.0000 C.ar    1  LIG1        0.0013
     17 C          -2.1080    1.4330    0.0000 C.ar    1  LIG1        0.0167
     18 O           0.2130   -0.5040    0.0000 O.2     1  LIG1       -0.2242
@<TRIPOS>BOND
     1     1     2    1
     2     1    11   am
     3     1    18    2
     4     2     3    1
     5     3     4    1
     6     3     8    1
     7     4     5    1
     8     5     6    1
     9     5    10    1
    10     6     7    1
    11     7     8    1
    12     8     9    1
    13     9    10    1
    14    11    12    1
    15    12    13   ar
    16    12    17   ar
    17    13    14   ar
    18    14    15   ar
    19    15    16   ar
    20    16    17   ar
