@<TRIPOS>MOLECULE
33648_ChemDiv_8009-8512
 24 27 0 0 0
SMALL
GASTEIGER
Energy = 0

@<TRIPOS>ATOM
      1 N          -0.3290    1.2460    0.0000 N.am    1  LIG1       -0.2345
      2 C          -0.8000    0.3040    0.0000 C.2     1  LIG1        0.2567
      3 C          -0.2380   -0.5330    0.0000 C.2     1  LIG1        0.0617
      4 C          -0.6630   -1.3880    0.0000 C.2     1  LIG1        0.0422
      5 C          -0.1000   -2.2290    0.0000 C.ar    1  LIG1        0.1457
      6 O           0.8920   -2.1790    0.0000 O.2     1  LIG1       -0.4504
      7 C           1.2630   -3.1210    0.0000 C.ar    1  LIG1        0.1796
      8 C           0.4670   -3.6880    0.0000 C.ar    1  LIG1        0.0438
      9 C          -0.3790   -3.1710    0.0000 C.ar    1  LIG1        0.0407
     10 O          -1.7830    0.2080    0.0000 O.2     1  LIG1       -0.2692
     11 C           0.6540    1.2460    0.0000 C.ar    1  LIG1        0.0544
     12 C           1.2630    2.0000    0.0000 C.ar    1  LIG1       -0.0078
     13 C           1.0290    2.9830    0.0000 C.3     1  LIG1        0.0323
     14 C           0.1380    3.4540    0.0000 C.3     1  LIG1        0.0323
     15 C          -0.7080    2.9830    0.0000 C.ar    1  LIG1       -0.0078
     16 C          -0.9420    2.0000    0.0000 C.ar    1  LIG1        0.0544
     17 C          -1.9250    1.7130    0.0000 C.ar    1  LIG1        0.0149
     18 C          -2.6330    2.3710    0.0000 C.ar    1  LIG1        0.0013
     19 C          -2.3920    3.4080    0.0000 C.ar    1  LIG1       -0.0002
     20 C          -1.4500    3.6920    0.0000 C.ar    1  LIG1       -0.0030
     21 C           2.2540    1.8580    0.0000 C.ar    1  LIG1       -0.0030
     22 C           2.6290    0.9170    0.0000 C.ar    1  LIG1       -0.0002
     23 C           2.0210    0.1130    0.0000 C.ar    1  LIG1        0.0013
     24 C           1.0290    0.3040    0.0000 C.ar    1  LIG1        0.0149
@<TRIPOS>BOND
     1     1     2   am
     2     1    11    1
     3     1    16    1
     4     2     3    1
     5     2    10    2
     6     3     4    2
     7     4     5    1
     8     5     6   ar
     9     5     9   ar
    10     6     7   ar
    11     7     8   ar
    12     8     9   ar
    13    11    12   ar
    14    11    24   ar
    15    12    13    1
    16    12    21   ar
    17    13    14    1
    18    14    15    1
    19    15    16   ar
    20    15    20   ar
    21    16    17   ar
    22    17    18   ar
    23    18    19   ar
    24    19    20   ar
    25    21    22   ar
    26    22    23   ar
    27    23    24   ar
