@<TRIPOS>MOLECULE
33646_ChemDiv_8009-8465
 27 30 0 0 0
SMALL
GASTEIGER
Energy = 0

@<TRIPOS>ATOM
      1 C          -0.9580   -1.5330    0.0000 C.ar    1  LIG1        0.2018
      2 N          -1.0920   -0.4790    0.0000 N.ar    1  LIG1       -0.1866
      3 C          -0.2670    0.1420    0.0000 C.ar    1  LIG1        0.2450
      4 N           0.6920   -0.2670    0.0000 N.ar    1  LIG1       -0.1777
      5 C           0.8330   -1.2920    0.0000 C.ar    1  LIG1        0.2450
      6 N           0.0000   -1.9250    0.0000 N.ar    1  LIG1       -0.1866
      7 N           1.5750   -1.6540    0.0000 N.pl3   1  LIG1       -0.1775
      8 C           2.3750   -1.0580    0.0000 C.ar    1  LIG1        0.0736
      9 C           2.3040   -0.0380    0.0000 C.ar    1  LIG1        0.0166
     10 C           3.1540    0.5330    0.0000 C.ar    1  LIG1        0.0013
     11 C           4.0630    0.1040    0.0000 C.ar    1  LIG1        0.0001
     12 C           4.1460   -0.9000    0.0000 C.ar    1  LIG1        0.0013
     13 C           3.2960   -1.4750    0.0000 C.ar    1  LIG1        0.0166
     14 N          -0.2670    0.8670    0.0000 N.pl3   1  LIG1       -0.1775
     15 C          -1.1170    1.3960    0.0000 C.ar    1  LIG1        0.0736
     16 C          -1.1250    2.3960    0.0000 C.ar    1  LIG1        0.0166
     17 C          -2.0170    2.9380    0.0000 C.ar    1  LIG1        0.0013
     18 C          -2.8830    2.4540    0.0000 C.ar    1  LIG1        0.0001
     19 C          -2.9170    1.4080    0.0000 C.ar    1  LIG1        0.0013
     20 C          -2.0080    0.8830    0.0000 C.ar    1  LIG1        0.0166
     21 S          -1.7290   -2.1330    0.0000 S.3     1  LIG1       -0.0117
     22 C          -2.4040   -1.8540    0.0000 C.ar    1  LIG1        0.1783
     23 N          -3.3250   -2.3210    0.0000 N.ar    1  LIG1       -0.3030
     24 C          -4.1500   -1.6880    0.0000 C.ar    1  LIG1        0.0984
     25 C          -4.0670   -0.7920    0.0000 C.ar    1  LIG1        0.1197
     26 N          -2.3170   -0.9580    0.0000 N.ar    1  LIG1       -0.2191
     27 C          -3.3710   -2.9330    0.0000 C.3     1  LIG1        0.1325
@<TRIPOS>BOND
     1     1     2   ar
     2     1     6   ar
     3     1    21    1
     4     2     3   ar
     5     3     4   ar
     6     3    14    1
     7     4     5   ar
     8     5     6   ar
     9     5     7    1
    10     7     8    1
    11     8     9   ar
    12     8    13   ar
    13     9    10   ar
    14    10    11   ar
    15    11    12   ar
    16    12    13   ar
    17    14    15    1
    18    15    16   ar
    19    15    20   ar
    20    16    17   ar
    21    17    18   ar
    22    18    19   ar
    23    19    20   ar
    24    21    22    1
    25    22    23   ar
    26    22    26   ar
    27    23    24   ar
    28    23    27    1
    29    24    25   ar
    30    25    26   ar
