@<TRIPOS>MOLECULE
33645_ChemDiv_8008-8668
 28 29 0 0 0
SMALL
GASTEIGER
Energy = 0

@<TRIPOS>ATOM
      1 C          -1.8130    1.2420    0.0000 C.ar    1  LIG1        0.0917
      2 N          -2.2460    2.1250    0.0000 N.am    1  LIG1       -0.1778
      3 C          -1.6830    2.9460    0.0000 C.2     1  LIG1        0.2456
      4 O          -2.1290    3.8460    0.0000 O.2     1  LIG1       -0.2730
      5 C          -0.6790    2.8830    0.0000 C.3     1  LIG1        0.0872
      6 C          -0.1170    3.7250    0.0000 C.3     1  LIG1        0.0101
      7 C          -2.3500    0.3540    0.0000 C.ar    1  LIG1        0.0888
      8 N          -3.3580    0.3080    0.0000 N.am    1  LIG1       -0.1779
      9 C          -3.8290   -0.5790    0.0000 C.2     1  LIG1        0.2456
     10 O          -3.3330   -1.4460    0.0000 O.2     1  LIG1       -0.2730
     11 C          -4.8130   -0.5920    0.0000 C.3     1  LIG1        0.0872
     12 C          -5.2710   -1.4540    0.0000 C.3     1  LIG1        0.0101
     13 C          -1.8130   -0.5000    0.0000 C.ar    1  LIG1        0.0211
     14 C          -0.7960   -0.5000    0.0000 C.ar    1  LIG1        0.0389
     15 C          -0.3250    0.3630    0.0000 C.ar    1  LIG1        0.1467
     16 C          -0.8500    1.2420    0.0000 C.ar    1  LIG1        0.0554
     17 O           0.6580    0.3920    0.0000 O.3     1  LIG1       -0.4535
     18 C           1.1790   -0.4750    0.0000 C.ar    1  LIG1        0.1454
     19 C           2.1920   -0.4630    0.0000 C.ar    1  LIG1        0.0388
     20 C           2.7000   -1.3130    0.0000 C.ar    1  LIG1        0.0197
     21 C           2.2130   -2.1750    0.0000 C.ar    1  LIG1        0.0736
     22 N           2.7380   -3.0250    0.0000 N.am    1  LIG1       -0.1792
     23 C           3.7500   -3.0040    0.0000 C.2     1  LIG1        0.2456
     24 O           4.2170   -2.1380    0.0000 O.2     1  LIG1       -0.2730
     25 C           4.2830   -3.8420    0.0000 C.3     1  LIG1        0.0872
     26 C           5.2670   -3.8420    0.0000 C.3     1  LIG1        0.0101
     27 C           1.1790   -2.2170    0.0000 C.ar    1  LIG1        0.0197
     28 C           0.6830   -1.3380    0.0000 C.ar    1  LIG1        0.0388
@<TRIPOS>BOND
     1     1     2    1
     2     1     7   ar
     3     1    16   ar
     4     2     3   am
     5     3     4    2
     6     3     5    1
     7     5     6    1
     8     7     8    1
     9     7    13   ar
    10     8     9   am
    11     9    10    2
    12     9    11    1
    13    11    12    1
    14    13    14   ar
    15    14    15   ar
    16    15    16   ar
    17    15    17    1
    18    17    18    1
    19    18    19   ar
    20    18    28   ar
    21    19    20   ar
    22    20    21   ar
    23    21    22    1
    24    21    27   ar
    25    22    23   am
    26    23    24    2
    27    23    25    1
    28    25    26    1
    29    27    28   ar
