@<TRIPOS>MOLECULE
33641_ChemDiv_8005-4215
 18 20 0 0 0
SMALL
GASTEIGER
Energy = 0

@<TRIPOS>ATOM
      1 N          -0.2880    1.1960    0.0000 N.pl3   1  LIG1       -0.2093
      2 N          -0.9460    1.9500    0.0000 N.2     1  LIG1       -0.1864
      3 C          -1.8540    1.5330    0.0000 C.2     1  LIG1        0.0566
      4 C          -1.7710    0.5630    0.0000 C.3     1  LIG1        0.0692
      5 C          -0.7960    0.3380    0.0000 C.3     1  LIG1        0.1240
      6 C          -0.7960   -0.6790    0.0000 C.ar    1  LIG1       -0.0021
      7 C          -1.5920   -1.3000    0.0000 C.ar    1  LIG1       -0.0026
      8 C          -1.4330   -2.2960    0.0000 C.ar    1  LIG1       -0.0003
      9 C          -0.5080   -2.6710    0.0000 C.ar    1  LIG1       -0.0000
     10 C           0.2920   -2.0500    0.0000 C.ar    1  LIG1       -0.0003
     11 C           0.1330   -1.0630    0.0000 C.ar    1  LIG1       -0.0026
     12 C          -2.6420    2.0130    0.0000 C.3     1  LIG1        0.0490
     13 C           0.6880    1.4380    0.0000 C.ar    1  LIG1        0.0693
     14 C           0.9290    2.4130    0.0000 C.ar    1  LIG1        0.0163
     15 C           1.9040    2.6750    0.0000 C.ar    1  LIG1        0.0013
     16 C           2.6380    1.9500    0.0000 C.ar    1  LIG1        0.0001
     17 C           2.3750    1.0000    0.0000 C.ar    1  LIG1        0.0013
     18 C           1.4000    0.7290    0.0000 C.ar    1  LIG1        0.0163
@<TRIPOS>BOND
     1     1     2    1
     2     1     5    1
     3     1    13    1
     4     2     3    2
     5     3     4    1
     6     3    12    1
     7     4     5    1
     8     5     6    1
     9     6     7   ar
    10     6    11   ar
    11     7     8   ar
    12     8     9   ar
    13     9    10   ar
    14    10    11   ar
    15    13    14   ar
    16    13    18   ar
    17    14    15   ar
    18    15    16   ar
    19    16    17   ar
    20    17    18   ar
