@<TRIPOS>MOLECULE
33651_ChemDiv_8006-7619
 31 35 0 0 0
SMALL
GASTEIGER
Energy = 0

@<TRIPOS>ATOM
      1 N          -2.2330   -1.7040    0.0000 N.am    1  LIG1       -0.2011
      2 C          -2.8040   -2.5290    0.0000 C.2     1  LIG1        0.2589
      3 C          -3.7670   -2.2130    0.0000 C.ar    1  LIG1        0.0587
      4 C          -3.7670   -1.1830    0.0000 C.ar    1  LIG1        0.0587
      5 C          -2.8040   -0.8830    0.0000 C.2     1  LIG1        0.2589
      6 O          -2.5040    0.0380    0.0000 O.2     1  LIG1       -0.2691
      7 C          -4.6000   -0.7000    0.0000 C.ar    1  LIG1        0.0047
      8 C          -5.4790   -1.1830    0.0000 C.ar    1  LIG1        0.0002
      9 C          -5.4790   -2.2130    0.0000 C.ar    1  LIG1        0.0002
     10 C          -4.6000   -2.7210    0.0000 C.ar    1  LIG1        0.0047
     11 O          -2.5040   -3.4500    0.0000 O.2     1  LIG1       -0.2691
     12 C          -1.2380   -1.7040    0.0000 C.ar    1  LIG1        0.0612
     13 C          -0.7790   -0.8290    0.0000 C.ar    1  LIG1        0.0155
     14 C           0.2290   -0.8290    0.0000 C.ar    1  LIG1        0.0058
     15 C           0.7630   -1.6790    0.0000 C.ar    1  LIG1        0.0537
     16 C           1.7710   -1.6790    0.0000 C.2     1  LIG1        0.2491
     17 N           2.3040   -0.8420    0.0000 N.am    1  LIG1       -0.2726
     18 C           3.3210   -0.8420    0.0000 C.3     1  LIG1        0.1151
     19 C           3.8420   -0.0210    0.0000 C.3     1  LIG1        0.1123
     20 N           3.3750    0.8830    0.0000 N.pl3   1  LIG1       -0.3041
     21 C           2.3040    0.8830    0.0000 C.3     1  LIG1        0.1123
     22 C           1.8380    0.0290    0.0000 C.3     1  LIG1        0.1151
     23 C           3.9330    1.7330    0.0000 C.ar    1  LIG1        0.0479
     24 C           3.4790    2.6250    0.0000 C.ar    1  LIG1        0.0145
     25 C           4.0290    3.4540    0.0000 C.ar    1  LIG1        0.0013
     26 C           4.9790    3.4540    0.0000 C.ar    1  LIG1        0.0001
     27 C           5.4750    2.5710    0.0000 C.ar    1  LIG1        0.0013
     28 C           5.0040    1.7330    0.0000 C.ar    1  LIG1        0.0145
     29 O           2.2750   -2.4500    0.0000 O.2     1  LIG1       -0.2699
     30 C           0.2830   -2.5750    0.0000 C.ar    1  LIG1        0.0058
     31 C          -0.7500   -2.5750    0.0000 C.ar    1  LIG1        0.0155
@<TRIPOS>BOND
     1     1     2   am
     2     1     5   am
     3     1    12    1
     4     2     3    1
     5     2    11    2
     6     3     4   ar
     7     3    10   ar
     8     4     5    1
     9     4     7   ar
    10     5     6    2
    11     7     8   ar
    12     8     9   ar
    13     9    10   ar
    14    12    13   ar
    15    12    31   ar
    16    13    14   ar
    17    14    15   ar
    18    15    16    1
    19    15    30   ar
    20    16    17   am
    21    16    29    2
    22    17    18    1
    23    17    22    1
    24    18    19    1
    25    19    20    1
    26    20    21    1
    27    20    23    1
    28    21    22    1
    29    23    24   ar
    30    23    28   ar
    31    24    25   ar
    32    25    26   ar
    33    26    27   ar
    34    27    28   ar
    35    30    31   ar
