@<TRIPOS>MOLECULE
33665_ChemDiv_8005-5920
 31 34 0 0 0
SMALL
GASTEIGER
Energy = 0

@<TRIPOS>ATOM
      1 N          -0.3420    0.8420    0.0000 N.ar    1  LIG1       -0.2121
      2 C           0.5000    1.3830    0.0000 C.ar    1  LIG1        0.2290
      3 O           1.2790    0.7790    0.0000 O.2     1  LIG1       -0.4383
      4 C           0.9330   -0.1630    0.0000 C.ar    1  LIG1        0.1503
      5 C          -0.0540   -0.1210    0.0000 C.ar    1  LIG1        0.1045
      6 C          -0.5960   -0.9790    0.0000 C.3     1  LIG1        0.1137
      7 S          -1.6000   -0.9290    0.0000 S.3     1  LIG1       -0.0674
      8 C          -2.1460   -1.7920    0.0000 C.ar    1  LIG1        0.2135
      9 N          -3.1420   -1.7460    0.0000 N.ar    1  LIG1       -0.1802
     10 C          -3.6790   -2.5750    0.0000 C.ar    1  LIG1        0.2963
     11 C          -3.2130   -3.4750    0.0000 C.ar    1  LIG1        0.1385
     12 N          -2.2130   -3.5170    0.0000 N.ar    1  LIG1       -0.1455
     13 N          -1.6830   -2.6710    0.0000 N.ar    1  LIG1       -0.1219
     14 C          -3.7330   -4.3170    0.0000 C.3     1  LIG1        0.0592
     15 O          -4.6750   -2.5290    0.0000 O.2     1  LIG1       -0.2638
     16 C           1.4920   -1.0040    0.0000 C.3     1  LIG1        0.1307
     17 S           2.4750   -0.9460    0.0000 S.3     1  LIG1       -0.0657
     18 C           3.0380   -1.7670    0.0000 C.ar    1  LIG1        0.2135
     19 N           2.5920   -2.6290    0.0000 N.ar    1  LIG1       -0.1802
     20 C           3.1500   -3.5040    0.0000 C.ar    1  LIG1        0.2963
     21 C           4.1210   -3.4580    0.0000 C.ar    1  LIG1        0.1385
     22 N           4.5960   -2.5750    0.0000 N.ar    1  LIG1       -0.1455
     23 N           4.0500   -1.7380    0.0000 N.ar    1  LIG1       -0.1219
     24 C           4.6710   -4.2920    0.0000 C.3     1  LIG1        0.0592
     25 O           2.7040   -4.4000    0.0000 O.2     1  LIG1       -0.2638
     26 C           0.5420    2.3830    0.0000 C.ar    1  LIG1        0.0535
     27 C           1.4330    2.8580    0.0000 C.ar    1  LIG1        0.0046
     28 C           1.4750    3.8540    0.0000 C.ar    1  LIG1        0.0002
     29 C           0.6380    4.4000    0.0000 C.ar    1  LIG1        0.0000
     30 C          -0.2580    3.9250    0.0000 C.ar    1  LIG1        0.0002
     31 C          -0.3000    2.9420    0.0000 C.ar    1  LIG1        0.0046
@<TRIPOS>BOND
     1     1     2   ar
     2     1     5   ar
     3     2     3   ar
     4     2    26    1
     5     3     4   ar
     6     4     5   ar
     7     4    16    1
     8     5     6    1
     9     6     7    1
    10     7     8    1
    11     8     9   ar
    12     8    13   ar
    13     9    10   ar
    14    10    11   ar
    15    10    15    2
    16    11    12   ar
    17    11    14    1
    18    12    13   ar
    19    16    17    1
    20    17    18    1
    21    18    19   ar
    22    18    23   ar
    23    19    20   ar
    24    20    21   ar
    25    20    25    2
    26    21    22   ar
    27    21    24    1
    28    22    23   ar
    29    26    27   ar
    30    26    31   ar
    31    27    28   ar
    32    28    29   ar
    33    29    30   ar
    34    30    31   ar
