@<TRIPOS>MOLECULE
33662_ChemDiv_8009-1403
 35 38 0 0 0
SMALL
GASTEIGER
Energy = 0

@<TRIPOS>ATOM
      1 C          -3.7210    0.5920    0.0000 C.ar    1  LIG1        0.1655
      2 C          -3.8460    1.6130    0.0000 C.ar    1  LIG1        0.1383
      3 C          -4.8210    1.7670    0.0000 C.ar    1  LIG1        0.0382
      4 C          -5.3080    0.8750    0.0000 C.ar    1  LIG1        0.0626
      5 N          -4.6080    0.1630    0.0000 N.ar    1  LIG1       -0.3132
      6 C          -4.6080   -0.9670    0.0000 C.3     1  LIG1        0.0870
      7 C          -5.4500   -1.5960    0.0000 C.3     1  LIG1        0.0245
      8 C          -3.7000   -1.4540    0.0000 C.3     1  LIG1        0.0245
      9 C          -6.2880    0.8630    0.0000 C.ar    1  LIG1        0.0173
     10 C          -6.8080    1.7040    0.0000 C.ar    1  LIG1        0.0015
     11 C          -6.3000    2.6130    0.0000 C.ar    1  LIG1        0.0001
     12 C          -5.3420    2.6130    0.0000 C.ar    1  LIG1        0.0031
     13 N          -3.0580    2.2000    0.0000 N.ar    1  LIG1       -0.1429
     14 N          -2.1380    1.7920    0.0000 N.ar    1  LIG1       -0.1217
     15 C          -2.0080    0.7880    0.0000 C.ar    1  LIG1        0.2122
     16 N          -2.8000    0.1880    0.0000 N.ar    1  LIG1       -0.2008
     17 S          -1.0460    0.4130    0.0000 S.3     1  LIG1       -0.0675
     18 C          -0.8790   -0.5710    0.0000 C.3     1  LIG1        0.1125
     19 C           0.0290   -0.9080    0.0000 C.ar    1  LIG1        0.0955
     20 C           0.7130   -0.2920    0.0000 C.ar    1  LIG1        0.1350
     21 N           1.5710   -0.8170    0.0000 N.ar    1  LIG1       -0.1867
     22 C           1.3080   -1.8080    0.0000 C.ar    1  LIG1        0.3686
     23 N           0.3330   -1.8250    0.0000 N.ar    1  LIG1       -0.1927
     24 O           1.8920   -2.6080    0.0000 O.2     1  LIG1       -0.2426
     25 C           0.7130    0.7080    0.0000 C.2     1  LIG1        0.1918
     26 O          -0.1420    1.2330    0.0000 O.2     1  LIG1       -0.2897
     27 C           1.5710    1.1960    0.0000 C.3     1  LIG1        0.0708
     28 C           2.3830    0.6670    0.0000 C.3     1  LIG1        0.0087
     29 C           3.3000    1.1540    0.0000 C.3     1  LIG1        0.0121
     30 C           4.1750    0.5920    0.0000 C.3     1  LIG1        0.1096
     31 C           5.0170    1.0960    0.0000 C.2     1  LIG1        0.3170
     32 O           5.0000    2.0130    0.0000 O.2     1  LIG1       -0.2501
     33 O           5.8880    0.6290    0.0000 O.3     1  LIG1       -0.4485
     34 C           5.9040   -0.3540    0.0000 C.3     1  LIG1        0.2086
     35 C           6.8080   -0.8000    0.0000 C.3     1  LIG1        0.0513
@<TRIPOS>BOND
     1     1     2   ar
     2     1     5   ar
     3     1    16   ar
     4     2     3   ar
     5     2    13   ar
     6     3     4   ar
     7     3    12   ar
     8     4     5   ar
     9     4     9   ar
    10     5     6    1
    11     6     7    1
    12     6     8    1
    13     9    10   ar
    14    10    11   ar
    15    11    12   ar
    16    13    14   ar
    17    14    15   ar
    18    15    16   ar
    19    15    17    1
    20    17    18    1
    21    18    19    1
    22    19    20   ar
    23    19    23   ar
    24    20    21   ar
    25    20    25    1
    26    21    22   ar
    27    22    23   ar
    28    22    24    2
    29    25    26    2
    30    25    27    1
    31    27    28    1
    32    28    29    1
    33    29    30    1
    34    30    31    1
    35    31    32    2
    36    31    33    1
    37    33    34    1
    38    34    35    1
