@<TRIPOS>MOLECULE
33660_ChemDiv_8009-1381
 32 35 0 0 0
SMALL
GASTEIGER
Energy = 0

@<TRIPOS>ATOM
      1 N          -1.1880   -0.2000    0.0000 N.pl3   1  LIG1       -0.1682
      2 S          -0.8790    0.7330    0.0000 S.O2    1  LIG1        0.0782
      3 C          -0.5210    1.6630    0.0000 C.ar    1  LIG1        0.1255
      4 C           0.4380    1.8040    0.0000 C.ar    1  LIG1        0.0199
      5 C           0.8130    2.7460    0.0000 C.ar    1  LIG1       -0.0029
      6 C           0.2170    3.5420    0.0000 C.ar    1  LIG1       -0.0218
      7 C          -0.8130    3.3920    0.0000 C.ar    1  LIG1       -0.0029
      8 C          -1.1750    2.4540    0.0000 C.ar    1  LIG1        0.0199
      9 C           0.5920    4.4670    0.0000 C.3     1  LIG1        0.0310
     10 O           0.0080    0.3960    0.0000 O.2     1  LIG1       -0.1497
     11 O          -1.8380    1.1170    0.0000 O.2     1  LIG1       -0.1497
     12 C          -0.6080   -1.0250    0.0000 C.3     1  LIG1        0.2000
     13 N          -1.1880   -1.8130    0.0000 N.am    1  LIG1       -0.2373
     14 C          -2.1580   -1.5250    0.0000 C.ar    1  LIG1        0.0705
     15 C          -2.1580   -0.5290    0.0000 C.ar    1  LIG1        0.0846
     16 C          -3.0130   -0.0330    0.0000 C.ar    1  LIG1        0.0175
     17 C          -3.9000   -0.5290    0.0000 C.ar    1  LIG1        0.0014
     18 C          -3.9000   -1.5250    0.0000 C.ar    1  LIG1        0.0014
     19 C          -3.0130   -2.0250    0.0000 C.ar    1  LIG1        0.0163
     20 C          -0.8540   -2.7540    0.0000 C.2     1  LIG1        0.2308
     21 O           0.1210   -2.9080    0.0000 O.2     1  LIG1       -0.2745
     22 C          -1.5080   -3.5330    0.0000 C.3     1  LIG1        0.0857
     23 C          -1.1750   -4.4670    0.0000 C.3     1  LIG1        0.0101
     24 C           0.3830   -1.0540    0.0000 C.ar    1  LIG1        0.0168
     25 C           0.8250   -1.9380    0.0000 C.ar    1  LIG1        0.0003
     26 C           1.8330   -1.9790    0.0000 C.ar    1  LIG1        0.0143
     27 C           2.3750   -1.1500    0.0000 C.ar    1  LIG1        0.0479
     28 N           3.3710   -1.1920    0.0000 N.pl3   1  LIG1       -0.3041
     29 C           3.9000   -0.3420    0.0000 C.3     1  LIG1        0.1122
     30 C           3.8250   -2.0750    0.0000 C.3     1  LIG1        0.1122
     31 C           1.9210   -0.2790    0.0000 C.ar    1  LIG1        0.0143
     32 C           0.9210   -0.2080    0.0000 C.ar    1  LIG1        0.0003
@<TRIPOS>BOND
     1     1     2    1
     2     1    12    1
     3     1    15    1
     4     2     3    1
     5     2    10    2
     6     2    11    2
     7     3     4   ar
     8     3     8   ar
     9     4     5   ar
    10     5     6   ar
    11     6     7   ar
    12     6     9    1
    13     7     8   ar
    14    12    13    1
    15    12    24    1
    16    13    14    1
    17    13    20   am
    18    14    15   ar
    19    14    19   ar
    20    15    16   ar
    21    16    17   ar
    22    17    18   ar
    23    18    19   ar
    24    20    21    2
    25    20    22    1
    26    22    23    1
    27    24    25   ar
    28    24    32   ar
    29    25    26   ar
    30    26    27   ar
    31    27    28    1
    32    27    31   ar
    33    28    29    1
    34    28    30    1
    35    31    32   ar
