@<TRIPOS>MOLECULE
33676_ChemDiv_8009-9193
 33 37 0 0 0
SMALL
GASTEIGER
Energy = 0

@<TRIPOS>ATOM
      1 N          -2.9790    0.3290    0.0000 N.am    1  LIG1       -0.2357
      2 C          -3.8920    0.8290    0.0000 C.ar    1  LIG1        0.0641
      3 C          -3.8920    1.8420    0.0000 C.ar    1  LIG1        0.0435
      4 S          -3.0330    2.3500    0.0000 S.3     1  LIG1       -0.0844
      5 C          -2.1250    1.8960    0.0000 C.ar    1  LIG1        0.0435
      6 C          -2.1250    0.8830    0.0000 C.ar    1  LIG1        0.0641
      7 C          -1.2580    0.3670    0.0000 C.ar    1  LIG1        0.0157
      8 C          -0.3790    0.8630    0.0000 C.ar    1  LIG1        0.0013
      9 C          -0.3790    1.8790    0.0000 C.ar    1  LIG1        0.0006
     10 C          -1.2580    2.4040    0.0000 C.ar    1  LIG1        0.0077
     11 C          -4.7500    2.3500    0.0000 C.ar    1  LIG1        0.0077
     12 C          -5.6580    1.8710    0.0000 C.ar    1  LIG1        0.0006
     13 C          -5.6290    0.8290    0.0000 C.ar    1  LIG1        0.0013
     14 C          -4.7500    0.3130    0.0000 C.ar    1  LIG1        0.0157
     15 C          -2.9920   -0.6540    0.0000 C.2     1  LIG1        0.2445
     16 C          -2.1250   -1.1540    0.0000 C.3     1  LIG1        0.1498
     17 S          -1.2580   -0.6540    0.0000 S.3     1  LIG1       -0.0768
     18 C          -0.3790   -1.1130    0.0000 C.ar    1  LIG1        0.1611
     19 S           0.4960   -0.8540    0.0000 S.2     1  LIG1       -0.0225
     20 C           1.0880   -1.6210    0.0000 C.ar    1  LIG1        0.2086
     21 N           0.5330   -2.4000    0.0000 N.ar    1  LIG1       -0.1231
     22 N          -0.4040   -2.1380    0.0000 N.ar    1  LIG1       -0.1331
     23 N           2.1080   -1.6210    0.0000 N.am    1  LIG1       -0.1478
     24 C           2.6210   -0.7210    0.0000 C.2     1  LIG1        0.3050
     25 C           3.6670   -0.7210    0.0000 C.3     1  LIG1        0.2269
     26 N           4.1630    0.1420    0.0000 N.4     1  LIG1        0.3844
     27 C           3.6830    0.9830    0.0000 C.3     1  LIG1        0.1393
     28 C           4.1630    1.8540    0.0000 C.3     1  LIG1        0.0629
     29 C           5.1460    1.8420    0.0000 C.3     1  LIG1        0.0123
     30 C           5.6540    1.0130    0.0000 C.3     1  LIG1        0.0629
     31 C           5.1170    0.1250    0.0000 C.3     1  LIG1        0.1393
     32 O           2.1750    0.0830    0.0000 O.2     1  LIG1       -0.2665
     33 O          -3.8790   -1.1380    0.0000 O.2     1  LIG1       -0.2732
@<TRIPOS>BOND
     1     1     2    1
     2     1     6    1
     3     1    15   am
     4     2     3   ar
     5     2    14   ar
     6     3     4    1
     7     3    11   ar
     8     4     5    1
     9     5     6   ar
    10     5    10   ar
    11     6     7   ar
    12     7     8   ar
    13     8     9   ar
    14     9    10   ar
    15    11    12   ar
    16    12    13   ar
    17    13    14   ar
    18    15    16    1
    19    15    33    2
    20    16    17    1
    21    17    18    1
    22    18    19   ar
    23    18    22   ar
    24    19    20   ar
    25    20    21   ar
    26    20    23    1
    27    21    22   ar
    28    23    24   am
    29    24    25    1
    30    24    32    2
    31    25    26    1
    32    26    27    1
    33    26    31    1
    34    27    28    1
    35    28    29    1
    36    29    30    1
    37    30    31    1
