@<TRIPOS>MOLECULE
33674_ChemDiv_8009-8816
 27 30 0 0 0
SMALL
GASTEIGER
Energy = 0

@<TRIPOS>ATOM
      1 S           0.7540   -0.1500    0.0000 S.O2    1  LIG1        0.0823
      2 N           0.5750    0.8210    0.0000 N.pl3   1  LIG1       -0.1917
      3 C           1.2420    1.5630    0.0000 C.3     1  LIG1        0.1118
      4 C           0.7580    2.4080    0.0000 C.3     1  LIG1        0.1006
      5 C          -0.2130    2.2040    0.0000 C.ar    1  LIG1       -0.0005
      6 C          -0.3080    1.2290    0.0000 C.ar    1  LIG1        0.0650
      7 C          -1.2170    0.8210    0.0000 C.ar    1  LIG1        0.0155
      8 C          -2.0290    1.3790    0.0000 C.ar    1  LIG1       -0.0030
      9 C          -1.9210    2.3710    0.0000 C.ar    1  LIG1       -0.0221
     10 C          -1.0210    2.7750    0.0000 C.ar    1  LIG1       -0.0070
     11 C          -2.7630    2.9420    0.0000 C.3     1  LIG1        0.0310
     12 C           1.2420    3.2750    0.0000 C.3     1  LIG1        0.1449
     13 N           2.2670    3.3040    0.0000 N.4     1  LIG1        0.3823
     14 C           2.7580    2.4080    0.0000 C.3     1  LIG1        0.1407
     15 C           2.2670    1.5630    0.0000 C.3     1  LIG1        0.0848
     16 C           2.7500    4.1790    0.0000 C.3     1  LIG1        0.2022
     17 C           0.8790   -1.1460    0.0000 C.ar    1  LIG1        0.1965
     18 C           0.0880   -1.7540    0.0000 C.ar    1  LIG1        0.3032
     19 N           0.2420   -2.7540    0.0000 N.ar    1  LIG1       -0.1505
     20 C           1.1670   -3.1420    0.0000 C.ar    1  LIG1        0.3712
     21 N           1.9540   -2.5130    0.0000 N.ar    1  LIG1       -0.1936
     22 C           1.8170   -1.5130    0.0000 C.ar    1  LIG1        0.0877
     23 C           2.6040   -0.9080    0.0000 C.3     1  LIG1        0.0539
     24 O           1.3500   -4.1790    0.0000 O.2     1  LIG1       -0.2425
     25 O          -0.8630   -1.3750    0.0000 O.2     1  LIG1       -0.2635
     26 O           1.7380    0.0170    0.0000 O.2     1  LIG1       -0.1495
     27 O          -0.2130   -0.2960    0.0000 O.2     1  LIG1       -0.1495
@<TRIPOS>BOND
     1     1     2    1
     2     1    17    1
     3     1    26    2
     4     1    27    2
     5     2     3    1
     6     2     6    1
     7     3     4    1
     8     3    15    1
     9     4     5    1
    10     4    12    1
    11     5     6   ar
    12     5    10   ar
    13     6     7   ar
    14     7     8   ar
    15     8     9   ar
    16     9    10   ar
    17     9    11    1
    18    12    13    1
    19    13    14    1
    20    13    16    1
    21    14    15    1
    22    17    18   ar
    23    17    22   ar
    24    18    19   ar
    25    18    25    2
    26    19    20   ar
    27    20    21   ar
    28    20    24    2
    29    21    22   ar
    30    22    23    1
