@<TRIPOS>MOLECULE
33681_ChemDiv_8007-1820
 22 24 0 0 0
SMALL
GASTEIGER
Energy = 0

@<TRIPOS>ATOM
      1 C           2.8000    0.0460    0.0000 C.ar    1  LIG1        0.0680
      2 C           3.3630   -0.7960    0.0000 C.ar    1  LIG1        0.1260
      3 O           2.8000   -1.6040    0.0000 O.2     1  LIG1       -0.4577
      4 C           1.8210   -1.2960    0.0000 C.ar    1  LIG1        0.1451
      5 C           1.8210   -0.2670    0.0000 C.ar    1  LIG1        0.0429
      6 C           0.9630    0.2380    0.0000 C.ar    1  LIG1        0.0401
      7 C           0.0710   -0.2670    0.0000 C.ar    1  LIG1        0.1391
      8 C           0.0710   -1.2670    0.0000 C.ar    1  LIG1        0.0400
      9 C           0.9630   -1.8000    0.0000 C.ar    1  LIG1        0.0406
     10 O          -0.8040    0.2250    0.0000 O.3     1  LIG1       -0.4690
     11 C          -0.8040    1.2170    0.0000 C.3     1  LIG1        0.2675
     12 C          -1.6710    1.7080    0.0000 C.3     1  LIG1        0.1867
     13 N          -2.5500    1.2750    0.0000 N.4     1  LIG1        0.3802
     14 C          -3.3460    1.8040    0.0000 C.3     1  LIG1        0.1387
     15 C          -4.2380    1.4080    0.0000 C.3     1  LIG1        0.0629
     16 C          -4.3500    0.4330    0.0000 C.3     1  LIG1        0.0123
     17 C          -3.5250   -0.1500    0.0000 C.3     1  LIG1        0.0629
     18 C          -2.6330    0.2670    0.0000 C.3     1  LIG1        0.1387
     19 C           4.3460   -0.8080    0.0000 C.3     1  LIG1        0.0726
     20 C           3.1380    0.9750    0.0000 C.2     1  LIG1        0.1762
     21 O           2.4750    1.7380    0.0000 O.2     1  LIG1       -0.2912
     22 C           4.1250    1.1130    0.0000 C.3     1  LIG1        0.0774
@<TRIPOS>BOND
     1     1     2   ar
     2     1     5   ar
     3     1    20    1
     4     2     3   ar
     5     2    19    1
     6     3     4   ar
     7     4     5   ar
     8     4     9   ar
     9     5     6   ar
    10     6     7   ar
    11     7     8   ar
    12     7    10    1
    13     8     9   ar
    14    10    11    1
    15    11    12    1
    16    12    13    1
    17    13    14    1
    18    13    18    1
    19    14    15    1
    20    15    16    1
    21    16    17    1
    22    17    18    1
    23    20    21    2
    24    20    22    1
