@<TRIPOS>MOLECULE
33684_ChemDiv_C393-0011
 40 44 0 0 0
SMALL
GASTEIGER
Energy = 0

@<TRIPOS>ATOM
      1 C          -3.2750   -0.2040    0.0000 C.ar    1  LIG1        0.1656
      2 C          -4.2330    0.0540    0.0000 C.ar    1  LIG1        0.1383
      3 C          -4.7790   -0.7920    0.0000 C.ar    1  LIG1        0.0382
      4 C          -4.1580   -1.5630    0.0000 C.ar    1  LIG1        0.0626
      5 N          -3.2250   -1.2000    0.0000 N.ar    1  LIG1       -0.3110
      6 C          -2.3790   -1.7460    0.0000 C.3     1  LIG1        0.1122
      7 C          -2.4380   -2.7420    0.0000 C.3     1  LIG1        0.0509
      8 C          -1.5960   -3.2880    0.0000 C.ar    1  LIG1       -0.0202
      9 C          -1.6540   -4.2790    0.0000 C.ar    1  LIG1       -0.0042
     10 C          -0.8210   -4.8210    0.0000 C.ar    1  LIG1       -0.0003
     11 C           0.0710   -4.3670    0.0000 C.ar    1  LIG1       -0.0000
     12 C           0.1170   -3.3630    0.0000 C.ar    1  LIG1       -0.0003
     13 C          -0.7130   -2.8250    0.0000 C.ar    1  LIG1       -0.0042
     14 C          -4.5210   -2.4960    0.0000 C.ar    1  LIG1        0.0173
     15 C          -5.5080   -2.6630    0.0000 C.ar    1  LIG1        0.0015
     16 C          -6.1170   -1.8830    0.0000 C.ar    1  LIG1        0.0001
     17 C          -5.7750   -0.9460    0.0000 C.ar    1  LIG1        0.0031
     18 N          -4.5080    1.0170    0.0000 N.ar    1  LIG1       -0.1429
     19 N          -3.8000    1.7290    0.0000 N.ar    1  LIG1       -0.1217
     20 C          -2.8210    1.4630    0.0000 C.ar    1  LIG1        0.2122
     21 N          -2.5630    0.5080    0.0000 N.ar    1  LIG1       -0.2008
     22 S          -2.0920    2.1420    0.0000 S.3     1  LIG1       -0.0675
     23 C          -1.1290    1.8500    0.0000 C.3     1  LIG1        0.1125
     24 C          -0.3960    2.5330    0.0000 C.ar    1  LIG1        0.0955
     25 C           0.5540    2.2420    0.0000 C.ar    1  LIG1        0.1350
     26 N           1.1130    3.0750    0.0000 N.ar    1  LIG1       -0.1867
     27 C           0.5330    3.8580    0.0000 C.ar    1  LIG1        0.3686
     28 N          -0.4170    3.5290    0.0000 N.ar    1  LIG1       -0.1927
     29 O           0.8250    4.8210    0.0000 O.2     1  LIG1       -0.2426
     30 C           0.8790    1.2920    0.0000 C.2     1  LIG1        0.1918
     31 O           0.2170    0.5330    0.0000 O.2     1  LIG1       -0.2897
     32 C           1.8630    1.0920    0.0000 C.3     1  LIG1        0.0708
     33 C           2.1830    0.1500    0.0000 C.3     1  LIG1        0.0087
     34 C           3.1670   -0.0380    0.0000 C.3     1  LIG1        0.0121
     35 C           3.5000   -0.9920    0.0000 C.3     1  LIG1        0.1096
     36 C           4.4790   -1.1830    0.0000 C.2     1  LIG1        0.3170
     37 O           5.1420   -0.4170    0.0000 O.2     1  LIG1       -0.2501
     38 O           4.8130   -2.1250    0.0000 O.3     1  LIG1       -0.4485
     39 C           5.7960   -2.3210    0.0000 C.3     1  LIG1        0.2086
     40 C           6.1170   -3.2670    0.0000 C.3     1  LIG1        0.0513
@<TRIPOS>BOND
     1     1     2   ar
     2     1     5   ar
     3     1    21   ar
     4     2     3   ar
     5     2    18   ar
     6     3     4   ar
     7     3    17   ar
     8     4     5   ar
     9     4    14   ar
    10     5     6    1
    11     6     7    1
    12     7     8    1
    13     8     9   ar
    14     8    13   ar
    15     9    10   ar
    16    10    11   ar
    17    11    12   ar
    18    12    13   ar
    19    14    15   ar
    20    15    16   ar
    21    16    17   ar
    22    18    19   ar
    23    19    20   ar
    24    20    21   ar
    25    20    22    1
    26    22    23    1
    27    23    24    1
    28    24    25   ar
    29    24    28   ar
    30    25    26   ar
    31    25    30    1
    32    26    27   ar
    33    27    28   ar
    34    27    29    2
    35    30    31    2
    36    30    32    1
    37    32    33    1
    38    33    34    1
    39    34    35    1
    40    35    36    1
    41    36    37    2
    42    36    38    1
    43    38    39    1
    44    39    40    1
