@<TRIPOS>MOLECULE
33688_ChemDiv_8009-1406
 15 16 0 0 0
SMALL
GASTEIGER
Energy = 0

@<TRIPOS>ATOM
      1 N          -0.2460   -0.4040    0.0000 N.ar    1  LIG1       -0.1852
      2 C          -0.7210   -1.2630    0.0000 C.ar    1  LIG1        0.1507
      3 S          -1.6880   -1.0380    0.0000 S.2     1  LIG1       -0.0342
      4 C          -1.7790   -0.1000    0.0000 C.ar    1  LIG1        0.1581
      5 N          -0.8920    0.3080    0.0000 N.ar    1  LIG1       -0.1507
      6 S          -2.7040    0.3210    0.0000 S.3     1  LIG1       -0.0858
      7 C          -2.7710    1.3380    0.0000 C.3     1  LIG1        0.0762
      8 S          -0.2710   -2.2210    0.0000 S.2     1  LIG1       -0.0231
      9 C           0.7830   -0.4040    0.0000 C.3     1  LIG1        0.2761
     10 N           1.2710    0.4670    0.0000 N.4     1  LIG1        0.3967
     11 C           0.7460    1.3380    0.0000 C.3     1  LIG1        0.1414
     12 C           1.2330    2.2080    0.0000 C.3     1  LIG1        0.0630
     13 C           2.2250    2.2250    0.0000 C.3     1  LIG1        0.0123
     14 C           2.7670    1.3500    0.0000 C.3     1  LIG1        0.0630
     15 C           2.2750    0.4960    0.0000 C.3     1  LIG1        0.1414
@<TRIPOS>BOND
     1     1     2   ar
     2     1     5   ar
     3     1     9    1
     4     2     3   ar
     5     2     8    2
     6     3     4   ar
     7     4     5   ar
     8     4     6    1
     9     6     7    1
    10     9    10    1
    11    10    11    1
    12    10    15    1
    13    11    12    1
    14    12    13    1
    15    13    14    1
    16    14    15    1
