@<TRIPOS>MOLECULE
33686_ChemDiv_C393-0013
 34 37 0 0 0
SMALL
GASTEIGER
Energy = 0

@<TRIPOS>ATOM
      1 C          -2.7790   -0.9830    0.0000 C.ar    1  LIG1        0.1656
      2 C          -3.7380   -0.7250    0.0000 C.ar    1  LIG1        0.1383
      3 C          -4.2790   -1.5710    0.0000 C.ar    1  LIG1        0.0387
      4 C          -3.6540   -2.3420    0.0000 C.ar    1  LIG1        0.0627
      5 N          -2.7210   -1.9790    0.0000 N.ar    1  LIG1       -0.3094
      6 C          -1.8880   -2.5210    0.0000 C.3     1  LIG1        0.1319
      7 C          -4.0170   -3.2710    0.0000 C.ar    1  LIG1        0.0178
      8 C          -5.0130   -3.4380    0.0000 C.ar    1  LIG1        0.0082
      9 C          -5.6250   -2.6540    0.0000 C.ar    1  LIG1        0.0347
     10 C          -5.2710   -1.7210    0.0000 C.ar    1  LIG1        0.0098
     11 BR         -6.6130   -2.8040    0.0000 Br      1  LIG1       -0.0490
     12 N          -4.0000    0.2420    0.0000 N.ar    1  LIG1       -0.1429
     13 N          -3.3080    0.9500    0.0000 N.ar    1  LIG1       -0.1217
     14 C          -2.3250    0.6830    0.0000 C.ar    1  LIG1        0.2122
     15 N          -2.0710   -0.2670    0.0000 N.ar    1  LIG1       -0.2008
     16 S          -1.5880    1.3630    0.0000 S.3     1  LIG1       -0.0675
     17 C          -0.6380    1.0710    0.0000 C.3     1  LIG1        0.1125
     18 C           0.1000    1.7580    0.0000 C.ar    1  LIG1        0.0955
     19 C           1.0500    1.4630    0.0000 C.ar    1  LIG1        0.1350
     20 N           1.6130    2.2960    0.0000 N.ar    1  LIG1       -0.1867
     21 C           1.0210    3.0790    0.0000 C.ar    1  LIG1        0.3686
     22 N           0.0710    2.7500    0.0000 N.ar    1  LIG1       -0.1927
     23 O           1.3250    4.0420    0.0000 O.2     1  LIG1       -0.2426
     24 C           1.3710    0.5130    0.0000 C.2     1  LIG1        0.1918
     25 O           0.7080   -0.2420    0.0000 O.2     1  LIG1       -0.2897
     26 C           2.3500    0.3170    0.0000 C.3     1  LIG1        0.0708
     27 C           2.6830   -0.6290    0.0000 C.3     1  LIG1        0.0087
     28 C           3.6670   -0.8170    0.0000 C.3     1  LIG1        0.0121
     29 C           4.0000   -1.7670    0.0000 C.3     1  LIG1        0.1096
     30 C           4.9750   -1.9580    0.0000 C.2     1  LIG1        0.3170
     31 O           5.6250   -1.1920    0.0000 O.2     1  LIG1       -0.2501
     32 O           5.3040   -2.9000    0.0000 O.3     1  LIG1       -0.4485
     33 C           6.2880   -3.0960    0.0000 C.3     1  LIG1        0.2086
     34 C           6.6130   -4.0420    0.0000 C.3     1  LIG1        0.0513
@<TRIPOS>BOND
     1     1     2   ar
     2     1     5   ar
     3     1    15   ar
     4     2     3   ar
     5     2    12   ar
     6     3     4   ar
     7     3    10   ar
     8     4     5   ar
     9     4     7   ar
    10     5     6    1
    11     7     8   ar
    12     8     9   ar
    13     9    10   ar
    14     9    11    1
    15    12    13   ar
    16    13    14   ar
    17    14    15   ar
    18    14    16    1
    19    16    17    1
    20    17    18    1
    21    18    19   ar
    22    18    22   ar
    23    19    20   ar
    24    19    24    1
    25    20    21   ar
    26    21    22   ar
    27    21    23    2
    28    24    25    2
    29    24    26    1
    30    26    27    1
    31    27    28    1
    32    28    29    1
    33    29    30    1
    34    30    31    2
    35    30    32    1
    36    32    33    1
    37    33    34    1
