@<TRIPOS>MOLECULE
33682_ChemDiv_C393-0010
 39 43 0 0 0
SMALL
GASTEIGER
Energy = 0

@<TRIPOS>ATOM
      1 C          -3.2750   -0.2580    0.0000 C.ar    1  LIG1        0.1658
      2 N          -3.2250   -1.2540    0.0000 N.ar    1  LIG1       -0.3072
      3 C          -4.1580   -1.6130    0.0000 C.ar    1  LIG1        0.0629
      4 C          -4.7790   -0.8460    0.0000 C.ar    1  LIG1        0.0382
      5 C          -4.2380    0.0040    0.0000 C.ar    1  LIG1        0.1383
      6 N          -4.5080    0.9670    0.0000 N.ar    1  LIG1       -0.1429
      7 N          -3.8000    1.6790    0.0000 N.ar    1  LIG1       -0.1217
      8 C          -2.8210    1.4080    0.0000 C.ar    1  LIG1        0.2122
      9 N          -2.5630    0.4580    0.0000 N.ar    1  LIG1       -0.2008
     10 S          -2.0920    2.0920    0.0000 S.3     1  LIG1       -0.0675
     11 C          -1.1290    1.8000    0.0000 C.3     1  LIG1        0.1125
     12 C          -0.3960    2.4830    0.0000 C.ar    1  LIG1        0.0955
     13 C           0.5540    2.1920    0.0000 C.ar    1  LIG1        0.1350
     14 N           1.1130    3.0210    0.0000 N.ar    1  LIG1       -0.1867
     15 C           0.5330    3.8080    0.0000 C.ar    1  LIG1        0.3686
     16 N          -0.4170    3.4790    0.0000 N.ar    1  LIG1       -0.1927
     17 O           0.8250    4.7710    0.0000 O.2     1  LIG1       -0.2426
     18 C           0.8790    1.2420    0.0000 C.2     1  LIG1        0.1918
     19 O           0.2170    0.4830    0.0000 O.2     1  LIG1       -0.2897
     20 C           1.8630    1.0420    0.0000 C.3     1  LIG1        0.0708
     21 C           2.1830    0.1000    0.0000 C.3     1  LIG1        0.0087
     22 C           3.1670   -0.0920    0.0000 C.3     1  LIG1        0.0121
     23 C           3.5000   -1.0420    0.0000 C.3     1  LIG1        0.1096
     24 C           4.4790   -1.2330    0.0000 C.2     1  LIG1        0.3170
     25 O           5.1420   -0.4670    0.0000 O.2     1  LIG1       -0.2501
     26 O           4.8130   -2.1750    0.0000 O.3     1  LIG1       -0.4485
     27 C           5.7960   -2.3710    0.0000 C.3     1  LIG1        0.2086
     28 C           6.1170   -3.3170    0.0000 C.3     1  LIG1        0.0513
     29 C          -5.7750   -0.9960    0.0000 C.ar    1  LIG1        0.0031
     30 C          -6.1170   -1.9330    0.0000 C.ar    1  LIG1        0.0001
     31 C          -5.5080   -2.7130    0.0000 C.ar    1  LIG1        0.0015
     32 C          -4.5250   -2.5460    0.0000 C.ar    1  LIG1        0.0173
     33 C          -2.3790   -1.7960    0.0000 C.3     1  LIG1        0.1342
     34 C          -2.4380   -2.7920    0.0000 C.ar    1  LIG1        0.0004
     35 C          -3.3290   -3.2420    0.0000 C.ar    1  LIG1       -0.0024
     36 C          -3.3750   -4.2380    0.0000 C.ar    1  LIG1       -0.0003
     37 C          -2.5420   -4.7710    0.0000 C.ar    1  LIG1       -0.0000
     38 C          -1.6540   -4.3170    0.0000 C.ar    1  LIG1       -0.0003
     39 C          -1.5960   -3.3210    0.0000 C.ar    1  LIG1       -0.0024
@<TRIPOS>BOND
     1     1     2   ar
     2     1     5   ar
     3     1     9   ar
     4     2     3   ar
     5     2    33    1
     6     3     4   ar
     7     3    32   ar
     8     4     5   ar
     9     4    29   ar
    10     5     6   ar
    11     6     7   ar
    12     7     8   ar
    13     8     9   ar
    14     8    10    1
    15    10    11    1
    16    11    12    1
    17    12    13   ar
    18    12    16   ar
    19    13    14   ar
    20    13    18    1
    21    14    15   ar
    22    15    16   ar
    23    15    17    2
    24    18    19    2
    25    18    20    1
    26    20    21    1
    27    21    22    1
    28    22    23    1
    29    23    24    1
    30    24    25    2
    31    24    26    1
    32    26    27    1
    33    27    28    1
    34    29    30   ar
    35    30    31   ar
    36    31    32   ar
    37    33    34    1
    38    34    35   ar
    39    34    39   ar
    40    35    36   ar
    41    36    37   ar
    42    37    38   ar
    43    38    39   ar
