@<TRIPOS>MOLECULE
33696_ChemDiv_8009-1856
 19 20 0 0 0
SMALL
GASTEIGER
Energy = 0

@<TRIPOS>ATOM
      1 C          -0.4000    0.4250    0.0000 C.3     1  LIG1        0.2803
      2 N          -0.4000   -0.5710    0.0000 N.2     1  LIG1        0.0677
      3 C          -1.2170   -1.0580    0.0000 C.2     1  LIG1        0.3897
      4 N          -2.0630   -0.5790    0.0000 N.pl3   1  LIG1       -0.1718
      5 C          -2.0750    0.4250    0.0000 C.3     1  LIG1        0.0891
      6 C          -1.2170    0.9130    0.0000 C.3     1  LIG1        0.1023
      7 C          -2.9580   -0.0670    0.0000 C.3     1  LIG1        0.0221
      8 C          -2.0750    1.5500    0.0000 C.3     1  LIG1        0.0221
      9 S          -1.2130   -2.0330    0.0000 S.3     1  LIG1       -0.0211
     10 C          -0.3040   -2.5000    0.0000 C.3     1  LIG1        0.0818
     11 C           0.4170    0.9330    0.0000 C.ar    1  LIG1        0.0864
     12 C           1.2880    0.4880    0.0000 C.ar    1  LIG1        0.2011
     13 C           2.1170    0.9960    0.0000 C.ar    1  LIG1        0.0839
     14 C           2.1170    2.0000    0.0000 C.ar    1  LIG1        0.1989
     15 C           1.2040    2.4380    0.0000 C.ar    1  LIG1        0.0421
     16 C           0.4170    1.8670    0.0000 C.ar    1  LIG1        0.0087
     17 O           2.9540    2.5040    0.0000 O.3     1  LIG1       -0.2865
     18 O           1.3250   -0.4960    0.0000 O.3     1  LIG1       -0.2866
     19 C          -0.4080    1.6420    0.0000 C.3     1  LIG1        0.0896
@<TRIPOS>BOND
     1     1     2    1
     2     1     6    1
     3     1    11    1
     4     1    19    1
     5     2     3    2
     6     3     4    1
     7     3     9    1
     8     4     5    1
     9     5     6    1
    10     5     7    1
    11     5     8    1
    12     9    10    1
    13    11    12   ar
    14    11    16   ar
    15    12    13   ar
    16    12    18    1
    17    13    14   ar
    18    14    15   ar
    19    14    17    1
    20    15    16   ar
