@<TRIPOS>MOLECULE
33698_ChemDiv_8009-9880
 26 27 0 0 0
SMALL
GASTEIGER
Energy = 0

@<TRIPOS>ATOM
      1 C           0.4380   -1.7380    0.0000 C.ar    1  LIG1        0.0894
      2 C          -0.4290   -1.2420    0.0000 C.ar    1  LIG1        0.0148
      3 C          -1.2880   -1.7380    0.0000 C.ar    1  LIG1        0.0894
      4 C          -1.2880   -2.7380    0.0000 C.ar    1  LIG1        0.0652
      5 N          -0.4290   -3.2330    0.0000 N.ar    1  LIG1       -0.2535
      6 C           0.4380   -2.7380    0.0000 C.ar    1  LIG1        0.0652
      7 C           1.3080   -3.2500    0.0000 C.3     1  LIG1        0.0523
      8 C          -2.1790   -3.2500    0.0000 C.3     1  LIG1        0.0523
      9 C          -2.1790   -1.2420    0.0000 C.2     1  LIG1        0.3424
     10 O          -2.1790   -0.2290    0.0000 O.2     1  LIG1       -0.2449
     11 O          -3.0460   -1.7380    0.0000 O.3     1  LIG1       -0.4454
     12 C          -3.0460   -2.7380    0.0000 C.3     1  LIG1        0.2089
     13 C          -3.8960   -3.2330    0.0000 C.3     1  LIG1        0.0513
     14 C          -0.4290   -0.2460    0.0000 C.ar    1  LIG1        0.0007
     15 C           0.4380    0.2540    0.0000 C.ar    1  LIG1        0.0031
     16 C           0.4380    1.2460    0.0000 C.ar    1  LIG1        0.0369
     17 C          -0.4290    1.7420    0.0000 C.ar    1  LIG1        0.1387
     18 C          -1.3040    1.2460    0.0000 C.ar    1  LIG1        0.0369
     19 C          -1.2880    0.2540    0.0000 C.ar    1  LIG1        0.0031
     20 O          -0.4130    2.7420    0.0000 O.3     1  LIG1       -0.4714
     21 C          -1.2670    3.2540    0.0000 C.3     1  LIG1        0.2525
     22 C           1.3080   -1.2250    0.0000 C.2     1  LIG1        0.3424
     23 O           1.3080   -0.2290    0.0000 O.2     1  LIG1       -0.2449
     24 O           2.1750   -1.7210    0.0000 O.3     1  LIG1       -0.4454
     25 C           3.0380   -1.2250    0.0000 C.3     1  LIG1        0.2089
     26 C           3.8920   -1.7210    0.0000 C.3     1  LIG1        0.0513
@<TRIPOS>BOND
     1     1     2   ar
     2     1     6   ar
     3     1    22    1
     4     2     3   ar
     5     2    14    1
     6     3     4   ar
     7     3     9    1
     8     4     5   ar
     9     4     8    1
    10     5     6   ar
    11     6     7    1
    12     9    10    2
    13     9    11    1
    14    11    12    1
    15    12    13    1
    16    14    15   ar
    17    14    19   ar
    18    15    16   ar
    19    16    17   ar
    20    17    18   ar
    21    17    20    1
    22    18    19   ar
    23    20    21    1
    24    22    23    2
    25    22    24    1
    26    24    25    1
    27    25    26    1
