@<TRIPOS>MOLECULE
33702_ChemDiv_8015-0878
 21 22 0 0 0
SMALL
GASTEIGER
Energy = 0

@<TRIPOS>ATOM
      1 C          -1.5040    0.8670    0.0000 C.ar    1  LIG1        0.0276
      2 C          -1.0000    0.0000    0.0000 C.ar    1  LIG1        0.0045
      3 C          -1.5040   -0.8670    0.0000 C.ar    1  LIG1        0.0276
      4 C          -2.5040   -0.8670    0.0000 C.ar    1  LIG1        0.0600
      5 N          -3.0000    0.0000    0.0000 N.ar    1  LIG1       -0.2539
      6 C          -2.5040    0.8670    0.0000 C.ar    1  LIG1        0.0600
      7 C          -3.0000    1.7330    0.0000 C.3     1  LIG1        0.0521
      8 C          -3.0000   -1.7330    0.0000 C.3     1  LIG1        0.0521
      9 C          -1.0000   -1.7330    0.0000 C.2     1  LIG1        0.0740
     10 O          -0.0040   -1.7330    0.0000 O.co2   1  LIG1       -0.5446
     11 O          -1.5040   -2.6000    0.0000 O.co2   1  LIG1       -0.5446
     12 C          -0.0040    0.0000    0.0000 C.ar    1  LIG1        0.0003
     13 C           0.4960   -0.8670    0.0000 C.ar    1  LIG1        0.0023
     14 C           1.4960   -0.8670    0.0000 C.ar    1  LIG1        0.0296
     15 C           1.9960    0.0000    0.0000 C.ar    1  LIG1        0.1401
     16 C           1.4960    0.8670    0.0000 C.ar    1  LIG1        0.0296
     17 C           0.4960    0.8670    0.0000 C.ar    1  LIG1        0.0023
     18 F           2.9960    0.0000    0.0000 F       1  LIG1       -0.2042
     19 C          -1.0000    1.7330    0.0000 C.2     1  LIG1        0.0740
     20 O          -0.0040    1.7330    0.0000 O.co2   1  LIG1       -0.5446
     21 O          -1.5040    2.6040    0.0000 O.co2   1  LIG1       -0.5446
@<TRIPOS>BOND
     1     1     2   ar
     2     1     6   ar
     3     1    19    1
     4     2     3   ar
     5     2    12    1
     6     3     4   ar
     7     3     9    1
     8     4     5   ar
     9     4     8    1
    10     5     6   ar
    11     6     7    1
    12     9    10   ar
    13     9    11   ar
    14    12    13   ar
    15    12    17   ar
    16    13    14   ar
    17    14    15   ar
    18    15    16   ar
    19    15    18    1
    20    16    17   ar
    21    19    20   ar
    22    19    21   ar
