@<TRIPOS>MOLECULE
33704_ChemDiv_8017-8058
 23 24 0 0 0
SMALL
GASTEIGER
Energy = 0

@<TRIPOS>ATOM
      1 C           0.4380   -0.0040    0.0000 C.ar    1  LIG1        0.0148
      2 C           0.4380    1.0040    0.0000 C.ar    1  LIG1        0.0894
      3 C           1.3000    1.5040    0.0000 C.ar    1  LIG1        0.0652
      4 N           2.1630    1.0040    0.0000 N.ar    1  LIG1       -0.2535
      5 C           2.1630   -0.0040    0.0000 C.ar    1  LIG1        0.0652
      6 C           1.3000   -0.5040    0.0000 C.ar    1  LIG1        0.0894
      7 C           1.3000   -1.5040    0.0000 C.2     1  LIG1        0.3425
      8 O           0.4380   -2.0000    0.0000 O.2     1  LIG1       -0.2448
      9 O           2.1630   -2.0000    0.0000 O.3     1  LIG1       -0.4413
     10 C           2.1630   -3.0000    0.0000 C.3     1  LIG1        0.2560
     11 C           3.0290   -0.5040    0.0000 C.3     1  LIG1        0.0523
     12 C           1.3000    2.5040    0.0000 C.3     1  LIG1        0.0523
     13 C          -0.4460    1.5040    0.0000 C.2     1  LIG1        0.3425
     14 O          -1.3080    1.0040    0.0000 O.2     1  LIG1       -0.2448
     15 O          -0.4460    2.5040    0.0000 O.3     1  LIG1       -0.4413
     16 C           0.4170    3.0040    0.0000 C.3     1  LIG1        0.2560
     17 C          -0.4460   -0.5040    0.0000 C.ar    1  LIG1        0.0018
     18 C          -1.3080   -0.0040    0.0000 C.ar    1  LIG1        0.0181
     19 C          -2.1710   -0.5040    0.0000 C.ar    1  LIG1        0.0891
     20 N          -3.0330    0.0130    0.0000 N.pl3   1  LIG1       -0.1281
     21 C          -2.1710   -1.5040    0.0000 C.ar    1  LIG1        0.0181
     22 C          -1.3080   -2.0000    0.0000 C.ar    1  LIG1        0.0014
     23 C          -0.4460   -1.5040    0.0000 C.ar    1  LIG1        0.0001
@<TRIPOS>BOND
     1     1     2   ar
     2     1     6   ar
     3     1    17    1
     4     2     3   ar
     5     2    13    1
     6     3     4   ar
     7     3    12    1
     8     4     5   ar
     9     5     6   ar
    10     5    11    1
    11     6     7    1
    12     7     8    2
    13     7     9    1
    14     9    10    1
    15    13    14    2
    16    13    15    1
    17    15    16    1
    18    17    18   ar
    19    17    23   ar
    20    18    19   ar
    21    19    20    1
    22    19    21   ar
    23    21    22   ar
    24    22    23   ar
