@<TRIPOS>MOLECULE
33706_ChemDiv_8009-9882
 26 27 0 0 0
SMALL
GASTEIGER
Energy = 0

@<TRIPOS>ATOM
      1 C           0.4540   -0.9790    0.0000 C.ar    1  LIG1        0.0729
      2 C          -0.4170   -0.4710    0.0000 C.ar    1  LIG1        0.0118
      3 C          -1.2920   -0.9790    0.0000 C.ar    1  LIG1        0.0729
      4 C          -2.1830   -0.4710    0.0000 C.2     1  LIG1        0.2505
      5 N          -3.0330   -1.0000    0.0000 N.am    1  LIG1       -0.2760
      6 C          -3.9040   -0.5210    0.0000 C.3     1  LIG1        0.0938
      7 C          -3.9250    0.4920    0.0000 C.3     1  LIG1        0.0233
      8 C          -3.0040   -1.9830    0.0000 C.3     1  LIG1        0.0938
      9 C          -3.8580   -2.5080    0.0000 C.3     1  LIG1        0.0233
     10 O          -2.2000    0.5170    0.0000 O.2     1  LIG1       -0.2699
     11 C          -1.2920   -1.9630    0.0000 C.ar    1  LIG1        0.1034
     12 N          -0.4170   -2.4670    0.0000 N.ar    1  LIG1       -0.2420
     13 C           0.4540   -1.9630    0.0000 C.ar    1  LIG1        0.1034
     14 C          -0.4170    0.5170    0.0000 C.ar    1  LIG1        0.0004
     15 C           0.4540    1.0210    0.0000 C.ar    1  LIG1        0.0000
     16 C           0.4540    2.0080    0.0000 C.ar    1  LIG1        0.0000
     17 C          -0.4170    2.5130    0.0000 C.ar    1  LIG1        0.0000
     18 C          -1.2920    2.0080    0.0000 C.ar    1  LIG1        0.0000
     19 C          -1.2920    1.0210    0.0000 C.ar    1  LIG1        0.0000
     20 C           1.3250   -0.4500    0.0000 C.2     1  LIG1        0.2505
     21 N           2.1960   -0.9580    0.0000 N.am    1  LIG1       -0.2760
     22 C           2.1750   -1.9380    0.0000 C.3     1  LIG1        0.0938
     23 C           1.3250   -2.4460    0.0000 C.3     1  LIG1        0.0233
     24 C           3.0710   -0.4500    0.0000 C.3     1  LIG1        0.0938
     25 C           3.9210   -0.9580    0.0000 C.3     1  LIG1        0.0233
     26 O           1.3250    0.5380    0.0000 O.2     1  LIG1       -0.2699
@<TRIPOS>BOND
     1     1     2   ar
     2     1    13   ar
     3     1    20    1
     4     2     3   ar
     5     2    14    1
     6     3     4    1
     7     3    11   ar
     8     4     5   am
     9     4    10    2
    10     5     6    1
    11     5     8    1
    12     6     7    1
    13     8     9    1
    14    11    12   ar
    15    12    13   ar
    16    14    15   ar
    17    14    19   ar
    18    15    16   ar
    19    16    17   ar
    20    17    18   ar
    21    18    19   ar
    22    20    21   am
    23    20    26    2
    24    21    22    1
    25    21    24    1
    26    22    23    1
    27    24    25    1
