@<TRIPOS>MOLECULE
33708_ChemDiv_8010-0161
 24 26 0 0 0
SMALL
GASTEIGER
Energy = 0

@<TRIPOS>ATOM
      1 C           0.4170   -0.2500    0.0000 C.2     1  LIG1        0.3360
      2 C           0.4170    0.7540    0.0000 C.3     1  LIG1        0.2221
      3 C          -0.4500    1.2540    0.0000 C.2     1  LIG1        0.1939
      4 C          -1.3170    0.7540    0.0000 C.2     1  LIG1        0.0760
      5 C          -1.3170   -0.2500    0.0000 C.2     1  LIG1        0.1513
      6 O          -0.4500   -0.7500    0.0000 O.3     1  LIG1       -0.4234
      7 C          -2.1670   -0.7710    0.0000 C.ar    1  LIG1        0.0347
      8 C          -3.0210   -0.2710    0.0000 C.ar    1  LIG1        0.0027
      9 C          -3.8750   -0.7710    0.0000 C.ar    1  LIG1       -0.0042
     10 C          -3.8750   -1.7880    0.0000 C.ar    1  LIG1       -0.0218
     11 C          -3.0210   -2.2880    0.0000 C.ar    1  LIG1       -0.0042
     12 C          -2.1670   -1.7880    0.0000 C.ar    1  LIG1        0.0027
     13 C          -4.7210   -2.2880    0.0000 C.3     1  LIG1        0.0310
     14 O          -0.4500    2.2670    0.0000 O.2     1  LIG1       -0.2902
     15 C           1.2790    1.2540    0.0000 C.2     1  LIG1        0.1908
     16 C           2.1380    0.7540    0.0000 C.ar    1  LIG1        0.0357
     17 C           2.1380   -0.2500    0.0000 C.ar    1  LIG1        0.0025
     18 C           2.9920   -0.7500    0.0000 C.ar    1  LIG1       -0.0042
     19 C           3.8540   -0.2500    0.0000 C.ar    1  LIG1       -0.0218
     20 C           3.8540    0.7540    0.0000 C.ar    1  LIG1       -0.0042
     21 C           2.9920    1.2540    0.0000 C.ar    1  LIG1        0.0025
     22 C           4.7170   -0.7500    0.0000 C.3     1  LIG1        0.0310
     23 O           1.2710    2.2920    0.0000 O.2     1  LIG1       -0.2903
     24 O           1.2790   -0.7500    0.0000 O.2     1  LIG1       -0.2487
@<TRIPOS>BOND
     1     1     2    1
     2     1     6    1
     3     1    24    2
     4     2     3    1
     5     2    15    1
     6     3     4    1
     7     3    14    2
     8     4     5    2
     9     5     6    1
    10     5     7    1
    11     7     8   ar
    12     7    12   ar
    13     8     9   ar
    14     9    10   ar
    15    10    11   ar
    16    10    13    1
    17    11    12   ar
    18    15    16    1
    19    15    23    2
    20    16    17   ar
    21    16    21   ar
    22    17    18   ar
    23    18    19   ar
    24    19    20   ar
    25    19    22    1
    26    20    21   ar
