@<TRIPOS>MOLECULE
33715_ChemDiv_8007-4729
 30 33 0 0 0
SMALL
GASTEIGER
Energy = 0

@<TRIPOS>ATOM
      1 S          -2.5790    0.0210    0.0000 S.O2    1  LIG1        0.0641
      2 C          -1.7000   -0.4750    0.0000 C.ar    1  LIG1        0.1329
      3 C          -0.8540    0.0210    0.0000 C.ar    1  LIG1        0.0281
      4 C           0.0330   -0.4750    0.0000 C.ar    1  LIG1        0.0880
      5 C           0.9420   -0.0210    0.0000 C.2     1  LIG1        0.3466
      6 O           1.8210   -0.5080    0.0000 O.3     1  LIG1       -0.4195
      7 C           2.6790   -0.0210    0.0000 C.ar    1  LIG1        0.1662
      8 C           3.5330   -0.5080    0.0000 C.ar    1  LIG1        0.1158
      9 N           3.5170   -1.5330    0.0000 N.ar    1  LIG1       -0.2408
     10 C           4.3830   -2.0420    0.0000 C.ar    1  LIG1        0.0989
     11 C           5.2250   -1.5460    0.0000 C.ar    1  LIG1        0.0207
     12 C           5.2250   -0.5540    0.0000 C.ar    1  LIG1        0.0032
     13 C           4.3580   -0.0500    0.0000 C.ar    1  LIG1        0.0207
     14 C           4.3750    0.9420    0.0000 C.ar    1  LIG1        0.0017
     15 C           3.5040    1.4420    0.0000 C.ar    1  LIG1        0.0032
     16 C           2.6630    0.9670    0.0000 C.ar    1  LIG1        0.0392
     17 O           0.9420    1.0130    0.0000 O.2     1  LIG1       -0.2445
     18 C           0.0330   -1.4630    0.0000 C.ar    1  LIG1        0.0648
     19 C          -0.8540   -1.9580    0.0000 C.ar    1  LIG1        0.0243
     20 C          -1.7000   -1.4630    0.0000 C.ar    1  LIG1        0.0771
     21 CL         -2.5540   -1.9580    0.0000 Cl      1  LIG1       -0.0808
     22 CL          0.9000   -1.9420    0.0000 Cl      1  LIG1       -0.0820
     23 N          -3.4630    0.5580    0.0000 N.3     1  LIG1       -0.1555
     24 C          -4.3460    0.0540    0.0000 C.3     1  LIG1        0.0958
     25 C          -5.2290    0.5580    0.0000 C.3     1  LIG1        0.0192
     26 C          -5.2290    1.5500    0.0000 C.3     1  LIG1        0.0030
     27 C          -4.3460    2.0460    0.0000 C.3     1  LIG1        0.0192
     28 C          -3.4630    1.5500    0.0000 C.3     1  LIG1        0.0958
     29 O          -3.1000   -0.8420    0.0000 O.2     1  LIG1       -0.1527
     30 O          -2.0830    0.9290    0.0000 O.2     1  LIG1       -0.1527
@<TRIPOS>BOND
     1     1     2    1
     2     1    23    1
     3     1    29    2
     4     1    30    2
     5     2     3   ar
     6     2    20   ar
     7     3     4   ar
     8     4     5    1
     9     4    18   ar
    10     5     6    1
    11     5    17    2
    12     6     7    1
    13     7     8   ar
    14     7    16   ar
    15     8     9   ar
    16     8    13   ar
    17     9    10   ar
    18    10    11   ar
    19    11    12   ar
    20    12    13   ar
    21    13    14   ar
    22    14    15   ar
    23    15    16   ar
    24    18    19   ar
    25    18    22    1
    26    19    20   ar
    27    20    21    1
    28    23    24    1
    29    23    28    1
    30    24    25    1
    31    25    26    1
    32    26    27    1
    33    27    28    1
