@<TRIPOS>MOLECULE
33712_ChemDiv_8010-0299
 29 33 0 0 0
SMALL
GASTEIGER
Energy = 0

@<TRIPOS>ATOM
      1 C          -1.7580   -0.0630    0.0000 C.2     1  LIG1        0.0078
      2 C          -1.2750    0.8000    0.0000 C.2     1  LIG1        0.0791
      3 C          -1.7580    1.6580    0.0000 C.2     1  LIG1        0.3458
      4 O          -0.3080    2.4880    0.0000 O.3     1  LIG1       -0.4209
      5 C           0.1920    1.6580    0.0000 C.2     1  LIG1        0.1518
      6 C          -0.3080    0.8000    0.0000 C.2     1  LIG1        0.0442
      7 C           1.1420    1.6580    0.0000 C.ar    1  LIG1        0.0688
      8 C           1.6460    0.8000    0.0000 C.ar    1  LIG1        0.1446
      9 C           2.6080    0.8000    0.0000 C.ar    1  LIG1        0.0739
     10 C           3.1040    1.6580    0.0000 C.ar    1  LIG1        0.1418
     11 C           2.6080    2.4880    0.0000 C.ar    1  LIG1        0.0372
     12 C           1.6460    2.4880    0.0000 C.ar    1  LIG1        0.0092
     13 O           4.1080    1.6580    0.0000 O.3     1  LIG1       -0.4713
     14 C           4.5710    0.7750    0.0000 C.3     1  LIG1        0.2525
     15 O           1.1790   -0.0630    0.0000 O.3     1  LIG1       -0.4712
     16 C           0.2290   -0.0500    0.0000 C.3     1  LIG1        0.2525
     17 O          -2.7500    1.6580    0.0000 O.2     1  LIG1       -0.2445
     18 C          -1.2960   -0.8670    0.0000 C.ar    1  LIG1        0.0179
     19 C          -1.7540   -1.6710    0.0000 C.ar    1  LIG1        0.0813
     20 C          -3.1500   -0.8670    0.0000 C.ar    1  LIG1        0.0177
     21 C          -2.6960   -0.0630    0.0000 C.ar    1  LIG1        0.0017
     22 C          -3.1630    0.7500    0.0000 C.ar    1  LIG1        0.0001
     23 C          -4.1130    0.7500    0.0000 C.ar    1  LIG1        0.0000
     24 C          -4.5750   -0.0630    0.0000 C.ar    1  LIG1        0.0000
     25 C          -4.0880   -0.8670    0.0000 C.ar    1  LIG1        0.0015
     26 N          -1.2920   -2.4830    0.0000 N.ar    1  LIG1       -0.2438
     27 C          -0.3380   -2.4830    0.0000 C.ar    1  LIG1        0.0988
     28 C           0.1210   -1.6710    0.0000 C.ar    1  LIG1        0.0207
     29 C          -0.3670   -0.8670    0.0000 C.ar    1  LIG1        0.0031
@<TRIPOS>BOND
     1     1     2    2
     2     1    18    1
     3     1    21    1
     4     2     3    1
     5     2     6    1
     6     3     4    1
     7     3    17    2
     8     4     5    1
     9     5     6    2
    10     5     7    1
    11     7     8   ar
    12     7    12   ar
    13     8     9   ar
    14     8    15    1
    15     9    10   ar
    16    10    11   ar
    17    10    13    1
    18    11    12   ar
    19    13    14    1
    20    15    16    1
    21    18    19   ar
    22    18    29   ar
    23    19    20    1
    24    19    26   ar
    25    20    21   ar
    26    20    25   ar
    27    21    22   ar
    28    22    23   ar
    29    23    24   ar
    30    24    25   ar
    31    26    27   ar
    32    27    28   ar
    33    28    29   ar
