@<TRIPOS>MOLECULE
33725_ChemDiv_K788-2348
 28 30 0 0 0
SMALL
GASTEIGER
Energy = 0

@<TRIPOS>ATOM
      1 S          -1.3040   -1.4790    0.0000 S.O2    1  LIG1        0.0771
      2 N          -0.4250   -0.9830    0.0000 N.3     1  LIG1       -0.0729
      3 C           0.4330   -1.4830    0.0000 C.3     1  LIG1        0.1418
      4 C           1.3040   -1.0000    0.0000 C.ar    1  LIG1       -0.0029
      5 C           2.1580   -1.5080    0.0000 C.ar    1  LIG1       -0.0027
      6 C           3.0250   -1.0170    0.0000 C.ar    1  LIG1        0.0043
      7 C           3.0380   -0.0170    0.0000 C.ar    1  LIG1        0.0550
      8 C           3.9130    0.4750    0.0000 C.2     1  LIG1        0.2647
      9 N           3.9250    1.4790    0.0000 N.am    1  LIG1       -0.2034
     10 C           3.0580    1.9790    0.0000 C.3     1  LIG1        0.0956
     11 C           3.0630    2.9830    0.0000 C.3     1  LIG1        0.0217
     12 C           2.2000    3.4830    0.0000 C.3     1  LIG1        0.0018
     13 C           1.3290    2.9920    0.0000 C.3     1  LIG1        0.0001
     14 C           1.3250    1.9920    0.0000 C.3     1  LIG1        0.0018
     15 C           2.1880    1.4830    0.0000 C.3     1  LIG1        0.0217
     16 C           0.4670    3.4920    0.0000 C.3     1  LIG1        0.0000
     17 O           4.7710   -0.0290    0.0000 O.2     1  LIG1       -0.2684
     18 C           2.1710    0.4880    0.0000 C.ar    1  LIG1        0.0043
     19 C           1.3080   -0.0040    0.0000 C.ar    1  LIG1       -0.0027
     20 C          -2.1710   -1.9790    0.0000 C.ar    1  LIG1        0.1237
     21 C          -2.1710   -2.9880    0.0000 C.ar    1  LIG1        0.0223
     22 C          -3.0380   -3.4880    0.0000 C.ar    1  LIG1        0.0310
     23 C          -3.9040   -2.9880    0.0000 C.ar    1  LIG1        0.1402
     24 C          -3.9040   -1.9790    0.0000 C.ar    1  LIG1        0.0310
     25 C          -3.0380   -1.4790    0.0000 C.ar    1  LIG1        0.0223
     26 F          -4.7750   -3.4790    0.0000 F       1  LIG1       -0.2042
     27 O          -0.8290   -2.3460    0.0000 O.2     1  LIG1       -0.1516
     28 O          -1.7880   -0.5960    0.0000 O.2     1  LIG1       -0.1516
@<TRIPOS>BOND
     1     1     2    1
     2     1    20    1
     3     1    27    2
     4     1    28    2
     5     2     3    1
     6     3     4    1
     7     4     5   ar
     8     4    19   ar
     9     5     6   ar
    10     6     7   ar
    11     7     8    1
    12     7    18   ar
    13     8     9   am
    14     8    17    2
    15     9    10    1
    16    10    11    1
    17    10    15    1
    18    11    12    1
    19    12    13    1
    20    13    14    1
    21    13    16    1
    22    14    15    1
    23    18    19   ar
    24    20    21   ar
    25    20    25   ar
    26    21    22   ar
    27    22    23   ar
    28    23    24   ar
    29    23    26    1
    30    24    25   ar
