@<TRIPOS>MOLECULE
33727_ChemDiv_8007-7411
 18 20 0 0 0
SMALL
GASTEIGER
Energy = 0

@<TRIPOS>ATOM
      1 N          -0.5420    0.5170    0.0000 N.ar    1  LIG1       -0.2679
      2 C          -0.5420   -0.3710    0.0000 C.ar    1  LIG1        0.1314
      3 S          -1.3000   -0.8250    0.0000 S.2     1  LIG1       -0.0611
      4 C          -2.0830   -0.3710    0.0000 C.ar    1  LIG1        0.0473
      5 C          -2.0830    0.5170    0.0000 C.ar    1  LIG1        0.0718
      6 C          -2.9670    1.0250    0.0000 C.ar    1  LIG1        0.0179
      7 C          -3.8000    0.5290    0.0000 C.ar    1  LIG1        0.0015
      8 C          -3.8000   -0.4170    0.0000 C.ar    1  LIG1        0.0006
      9 C          -2.9670   -0.8380    0.0000 C.ar    1  LIG1        0.0080
     10 S           0.3130   -0.8670    0.0000 S.2     1  LIG1       -0.0246
     11 C           0.3130    1.0130    0.0000 C.3     1  LIG1        0.2586
     12 N           1.2040    0.5000    0.0000 N.4     1  LIG1        0.3956
     13 C           1.2040   -0.5130    0.0000 C.3     1  LIG1        0.1414
     14 C           2.0710   -1.0000    0.0000 C.3     1  LIG1        0.0630
     15 C           2.9460   -0.5130    0.0000 C.3     1  LIG1        0.0119
     16 C           2.9460    0.5000    0.0000 C.3     1  LIG1        0.0630
     17 C           2.0710    1.0080    0.0000 C.3     1  LIG1        0.1414
     18 C           3.7960   -1.0210    0.0000 C.3     1  LIG1        0.0004
@<TRIPOS>BOND
     1     1     2   ar
     2     1     5   ar
     3     1    11    1
     4     2     3   ar
     5     2    10    2
     6     3     4   ar
     7     4     5   ar
     8     4     9   ar
     9     5     6   ar
    10     6     7   ar
    11     7     8   ar
    12     8     9   ar
    13    11    12    1
    14    12    13    1
    15    12    17    1
    16    13    14    1
    17    14    15    1
    18    15    16    1
    19    15    18    1
    20    16    17    1
