@<TRIPOS>MOLECULE
33721_ChemDiv_8007-6472
 35 38 0 0 0
SMALL
GASTEIGER
Energy = 0

@<TRIPOS>ATOM
      1 S           5.0380    3.4830    0.0000 S.O2    1  LIG1        0.0935
      2 C           4.5500    2.5750    0.0000 C.ar    1  LIG1        0.1250
      3 C           3.5500    2.5750    0.0000 C.ar    1  LIG1        0.0197
      4 C           3.0630    1.7130    0.0000 C.ar    1  LIG1       -0.0012
      5 C           3.5500    0.8500    0.0000 C.ar    1  LIG1       -0.0005
      6 C           3.0630   -0.0170    0.0000 C.3     1  LIG1        0.1418
      7 N           2.0630   -0.0170    0.0000 N.am    1  LIG1       -0.1968
      8 C           1.5380   -0.8750    0.0000 C.2     1  LIG1        0.2651
      9 C           0.5250   -0.8750    0.0000 C.ar    1  LIG1        0.0551
     10 C           0.0500   -1.7420    0.0000 C.ar    1  LIG1        0.0047
     11 C          -0.9500   -1.7420    0.0000 C.ar    1  LIG1        0.0047
     12 C          -1.4330   -0.8750    0.0000 C.ar    1  LIG1        0.0536
     13 C          -2.4330   -0.8750    0.0000 C.2     1  LIG1        0.2489
     14 N          -2.9580   -1.7420    0.0000 N.am    1  LIG1       -0.2793
     15 C          -2.4330   -2.6130    0.0000 C.3     1  LIG1        0.0756
     16 C          -2.9580   -3.4790    0.0000 C.3     1  LIG1        0.0198
     17 C          -2.4330   -4.3460    0.0000 C.3     1  LIG1        0.0017
     18 C          -1.4670   -4.3460    0.0000 C.3     1  LIG1        0.0001
     19 C          -0.9500   -3.4790    0.0000 C.3     1  LIG1        0.0017
     20 C          -1.4670   -2.6130    0.0000 C.3     1  LIG1        0.0198
     21 C          -3.9330   -1.7420    0.0000 C.3     1  LIG1        0.0756
     22 C          -4.4500   -0.8750    0.0000 C.3     1  LIG1        0.0198
     23 C          -5.4210   -0.8750    0.0000 C.3     1  LIG1        0.0017
     24 C          -5.9420   -1.7420    0.0000 C.3     1  LIG1        0.0001
     25 C          -5.4210   -2.6130    0.0000 C.3     1  LIG1        0.0017
     26 C          -4.4500   -2.6130    0.0000 C.3     1  LIG1        0.0198
     27 O          -2.9580   -0.0170    0.0000 O.2     1  LIG1       -0.2699
     28 C          -0.9500   -0.0170    0.0000 C.ar    1  LIG1        0.0047
     29 C           0.0500   -0.0170    0.0000 C.ar    1  LIG1        0.0047
     30 O           2.0630   -1.7420    0.0000 O.2     1  LIG1       -0.2684
     31 C           4.5500    0.8500    0.0000 C.ar    1  LIG1       -0.0012
     32 C           5.0380    1.7130    0.0000 C.ar    1  LIG1        0.0197
     33 O           4.1710    3.9630    0.0000 O.2     1  LIG1       -0.1503
     34 O           5.9380    2.9540    0.0000 O.2     1  LIG1       -0.1503
     35 N           5.5580    4.3460    0.0000 N.3     1  LIG1        0.0392
@<TRIPOS>BOND
     1     1     2    1
     2     1    33    2
     3     1    34    2
     4     1    35    1
     5     2     3   ar
     6     2    32   ar
     7     3     4   ar
     8     4     5   ar
     9     5     6    1
    10     5    31   ar
    11     6     7    1
    12     7     8   am
    13     8     9    1
    14     8    30    2
    15     9    10   ar
    16     9    29   ar
    17    10    11   ar
    18    11    12   ar
    19    12    13    1
    20    12    28   ar
    21    13    14   am
    22    13    27    2
    23    14    15    1
    24    14    21    1
    25    15    16    1
    26    15    20    1
    27    16    17    1
    28    17    18    1
    29    18    19    1
    30    19    20    1
    31    21    22    1
    32    21    26    1
    33    22    23    1
    34    23    24    1
    35    24    25    1
    36    25    26    1
    37    28    29   ar
    38    31    32   ar
