@<TRIPOS>MOLECULE
33723_ChemDiv_C382-0402
 31 33 0 0 0
SMALL
GASTEIGER
Energy = 0

@<TRIPOS>ATOM
      1 S           0.0290   -3.3040    0.0000 S.O2    1  LIG1        0.0771
      2 N           0.8920   -3.8040    0.0000 N.3     1  LIG1       -0.0729
      3 C           1.7540   -3.3040    0.0000 C.3     1  LIG1        0.1418
      4 C           1.7540   -2.3040    0.0000 C.ar    1  LIG1       -0.0029
      5 C           2.6210   -1.8080    0.0000 C.ar    1  LIG1       -0.0027
      6 C           2.6210   -0.7960    0.0000 C.ar    1  LIG1        0.0043
      7 C           1.7540   -0.3040    0.0000 C.ar    1  LIG1        0.0550
      8 C           1.7540    0.6960    0.0000 C.2     1  LIG1        0.2647
      9 N           2.6130    1.1960    0.0000 N.am    1  LIG1       -0.2034
     10 C           2.6130    2.1920    0.0000 C.3     1  LIG1        0.0956
     11 C           3.4750    2.6750    0.0000 C.3     1  LIG1        0.0200
     12 C           4.3460    2.1830    0.0000 C.3     1  LIG1        0.0018
     13 C           3.4920    3.6830    0.0000 C.3     1  LIG1        0.0017
     14 C           2.6080    4.1830    0.0000 C.3     1  LIG1        0.0001
     15 C           1.7540    3.6880    0.0000 C.3     1  LIG1        0.0018
     16 C           1.7540    2.6920    0.0000 C.3     1  LIG1        0.0217
     17 O           0.8920    1.1960    0.0000 O.2     1  LIG1       -0.2684
     18 C           0.8920   -0.8080    0.0000 C.ar    1  LIG1        0.0043
     19 C           0.8920   -1.8080    0.0000 C.ar    1  LIG1       -0.0027
     20 C          -0.8500   -2.8130    0.0000 C.ar    1  LIG1        0.1236
     21 C          -1.6920   -3.3250    0.0000 C.ar    1  LIG1        0.0213
     22 C          -2.5710   -2.8420    0.0000 C.ar    1  LIG1        0.0180
     23 C          -2.5830   -1.8420    0.0000 C.ar    1  LIG1        0.0734
     24 N          -3.4630   -1.3580    0.0000 N.am    1  LIG1       -0.1792
     25 C          -3.4630   -0.3460    0.0000 C.2     1  LIG1        0.2461
     26 O          -4.3500    0.1380    0.0000 O.2     1  LIG1       -0.2730
     27 C          -2.6130    0.1670    0.0000 C.3     1  LIG1        0.0968
     28 C          -1.7250   -1.3290    0.0000 C.ar    1  LIG1        0.0180
     29 C          -0.8670   -1.8130    0.0000 C.ar    1  LIG1        0.0213
     30 O           0.5290   -2.4170    0.0000 O.2     1  LIG1       -0.1516
     31 O          -0.4580   -4.1830    0.0000 O.2     1  LIG1       -0.1516
@<TRIPOS>BOND
     1     1     2    1
     2     1    20    1
     3     1    30    2
     4     1    31    2
     5     2     3    1
     6     3     4    1
     7     4     5   ar
     8     4    19   ar
     9     5     6   ar
    10     6     7   ar
    11     7     8    1
    12     7    18   ar
    13     8     9   am
    14     8    17    2
    15     9    10    1
    16    10    11    1
    17    10    16    1
    18    11    12    1
    19    11    13    1
    20    13    14    1
    21    14    15    1
    22    15    16    1
    23    18    19   ar
    24    20    21   ar
    25    20    29   ar
    26    21    22   ar
    27    22    23   ar
    28    23    24    1
    29    23    28   ar
    30    24    25   am
    31    25    26    2
    32    25    27    1
    33    28    29   ar
