@<TRIPOS>MOLECULE
33739_ChemDiv_8010-0929
 25 29 0 0 0
SMALL
GASTEIGER
Energy = 0

@<TRIPOS>ATOM
      1 C          -1.6130    0.2830    0.0000 C.2     1  LIG1        0.0535
      2 C          -1.6130   -0.6580    0.0000 C.2     1  LIG1       -0.0026
      3 C          -0.7920   -1.1330    0.0000 C.3     1  LIG1        0.0446
      4 C           0.0210   -0.6580    0.0000 C.3     1  LIG1        0.1135
      5 C           0.0210   -1.5880    0.0000 C.2     1  LIG1        0.2526
      6 N           0.8130   -2.0710    0.0000 N.am    1  LIG1       -0.1790
      7 C           1.6500   -1.5880    0.0000 C.ar    1  LIG1        0.0701
      8 C           1.6500   -0.6580    0.0000 C.ar    1  LIG1        0.0049
      9 C           2.4830   -0.1830    0.0000 C.ar    1  LIG1       -0.0022
     10 C           3.3210   -0.6580    0.0000 C.ar    1  LIG1       -0.0002
     11 C           3.3210   -1.5880    0.0000 C.ar    1  LIG1        0.0013
     12 C           2.4830   -2.0710    0.0000 C.ar    1  LIG1        0.0163
     13 O          -0.8330   -2.0710    0.0000 O.2     1  LIG1       -0.2723
     14 C           0.0130    0.2710    0.0000 C.ar    1  LIG1       -0.0090
     15 C          -0.7920    0.7460    0.0000 C.ar    1  LIG1        0.0163
     16 C          -0.7920    1.6920    0.0000 C.ar    1  LIG1        0.0735
     17 N          -2.4420    1.7040    0.0000 N.am    1  LIG1       -0.1755
     18 C          -2.4330    0.7790    0.0000 C.2     1  LIG1        0.2687
     19 O          -3.3130    0.3130    0.0000 O.2     1  LIG1       -0.2680
     20 C           0.0130    2.1580    0.0000 C.ar    1  LIG1        0.0166
     21 C           0.8290    1.6830    0.0000 C.ar    1  LIG1        0.0010
     22 C           0.8290    0.7380    0.0000 C.ar    1  LIG1       -0.0034
     23 C          -2.4630   -1.1540    0.0000 C.2     1  LIG1        0.0691
     24 O          -2.4630   -2.1540    0.0000 O.co2   1  LIG1       -0.5449
     25 O          -3.3250   -0.6580    0.0000 O.co2   1  LIG1       -0.5449
@<TRIPOS>BOND
     1     1     2    2
     2     1    15    1
     3     1    18    1
     4     2     3    1
     5     2    23    1
     6     3     4    1
     7     4     5    1
     8     4     8    1
     9     4    14    1
    10     5     6   am
    11     5    13    2
    12     6     7    1
    13     7     8   ar
    14     7    12   ar
    15     8     9   ar
    16     9    10   ar
    17    10    11   ar
    18    11    12   ar
    19    14    15   ar
    20    14    22   ar
    21    15    16   ar
    22    16    17    1
    23    16    20   ar
    24    17    18   am
    25    18    19    2
    26    20    21   ar
    27    21    22   ar
    28    23    24   ar
    29    23    25   ar
