@<TRIPOS>MOLECULE
33736_ChemDiv_8012-3586
 21 24 0 0 0
SMALL
GASTEIGER
Energy = 0

@<TRIPOS>ATOM
      1 N           0.2040   -0.4380    0.0000 N.am    1  LIG1       -0.2418
      2 C           0.6830    0.3920    0.0000 C.3     1  LIG1        0.0974
      3 C           1.6250    0.3920    0.0000 C.3     1  LIG1        0.1525
      4 O           2.0830   -0.4290    0.0000 O.3     1  LIG1       -0.4402
      5 C           0.6830   -1.2630    0.0000 C.2     1  LIG1        0.4049
      6 O           0.2330   -2.0960    0.0000 O.2     1  LIG1       -0.2262
      7 C           2.1080    1.2040    0.0000 C.3     1  LIG1        0.0418
      8 C           0.7040    2.0290    0.0000 C.3     1  LIG1        0.0057
      9 C           0.2330    1.1920    0.0000 C.3     1  LIG1        0.0240
     10 C          -0.7170    1.1920    0.0000 C.3     1  LIG1        0.0203
     11 C          -1.2830    0.8500    0.0000 C.ar    1  LIG1       -0.0251
     12 C          -1.2830   -0.0790    0.0000 C.ar    1  LIG1       -0.0062
     13 C          -0.7330   -0.4380    0.0000 C.3     1  LIG1        0.1231
     14 C          -2.1080   -0.5500    0.0000 C.ar    1  LIG1       -0.0029
     15 C          -2.9080   -0.0790    0.0000 C.ar    1  LIG1       -0.0003
     16 C          -2.9080    0.8500    0.0000 C.ar    1  LIG1       -0.0003
     17 C          -2.0830    1.3080    0.0000 C.ar    1  LIG1       -0.0045
     18 C          -0.2080    2.1000    0.0000 C.3     1  LIG1        0.0044
     19 C          -1.5710    1.7210    0.0000 C.3     1  LIG1        0.0044
     20 C           2.9040    0.3920    0.0000 C.3     1  LIG1        0.0454
     21 C          -0.3630    0.3920    0.0000 C.3     1  LIG1        0.0236
@<TRIPOS>BOND
     1     1     2    1
     2     1     5   am
     3     1    13    1
     4     2     3    1
     5     2     9    1
     6     2    21    1
     7     3     4    1
     8     3     7    1
     9     3    20    1
    10     4     5    1
    11     5     6    2
    12     7     8    1
    13     8     9    1
    14     9    10    1
    15    10    11    1
    16    10    18    1
    17    10    19    1
    18    11    12   ar
    19    11    17   ar
    20    12    13    1
    21    12    14   ar
    22    14    15   ar
    23    15    16   ar
    24    16    17   ar
