@<TRIPOS>MOLECULE
33732_ChemDiv_8012-3135
 30 34 0 0 0
SMALL
GASTEIGER
Energy = 0

@<TRIPOS>ATOM
      1 C          -1.2960   -0.0880    0.0000 C.2     1  LIG1        0.2676
      2 C          -2.1750   -0.6080    0.0000 C.ar    1  LIG1        0.0889
      3 C          -2.1750   -1.6250    0.0000 C.ar    1  LIG1        0.1436
      4 O          -1.2960   -2.1290    0.0000 O.3     1  LIG1       -0.4654
      5 C          -0.4210   -1.6250    0.0000 C.3     1  LIG1        0.2911
      6 C           0.4580   -2.1290    0.0000 C.2     1  LIG1        0.2863
      7 N           1.3130   -1.6500    0.0000 N.am    1  LIG1       -0.1940
      8 C           2.1710   -2.1290    0.0000 C.3     1  LIG1        0.1792
      9 C           3.0290   -1.6500    0.0000 C.ar    1  LIG1        0.1449
     10 O           3.8920   -2.1290    0.0000 O.2     1  LIG1       -0.4529
     11 C           4.6380   -1.4710    0.0000 C.ar    1  LIG1        0.1792
     12 C           4.2210   -0.5540    0.0000 C.ar    1  LIG1        0.0435
     13 C           3.2460   -0.6540    0.0000 C.ar    1  LIG1        0.0380
     14 O           0.4580   -3.1380    0.0000 O.2     1  LIG1       -0.2693
     15 C          -3.0330   -2.1080    0.0000 C.ar    1  LIG1        0.0371
     16 C          -3.8920   -1.6250    0.0000 C.ar    1  LIG1        0.0031
     17 C          -3.8920   -0.6080    0.0000 C.ar    1  LIG1        0.0003
     18 C          -3.0330   -0.1130    0.0000 C.ar    1  LIG1        0.0076
     19 N          -1.2960    0.9250    0.0000 N.am    1  LIG1       -0.2050
     20 C          -2.1500    1.4170    0.0000 C.3     1  LIG1        0.0789
     21 C          -1.6500    2.4210    0.0000 C.3     1  LIG1        0.0200
     22 C          -2.2040    3.1250    0.0000 C.3     1  LIG1        0.0017
     23 C          -2.8670    2.7380    0.0000 C.3     1  LIG1        0.0001
     24 C          -3.4830    1.5170    0.0000 C.3     1  LIG1        0.0017
     25 C          -2.6830    0.8580    0.0000 C.3     1  LIG1        0.0200
     26 C          -4.6420    1.7670    0.0000 C.3     1  LIG1        0.0001
     27 C          -3.6170    2.1880    0.0000 C.3     1  LIG1        0.0017
     28 C          -3.1000    1.5500    0.0000 C.3     1  LIG1        0.0200
     29 C          -3.1380    3.1420    0.0000 C.3     1  LIG1        0.0001
     30 O          -0.4460   -0.5830    0.0000 O.2     1  LIG1       -0.2683
@<TRIPOS>BOND
     1     1     2    1
     2     1    19   am
     3     1    30    2
     4     2     3   ar
     5     2    18   ar
     6     3     4    1
     7     3    15   ar
     8     4     5    1
     9     5     6    1
    10     6     7   am
    11     6    14    2
    12     7     8    1
    13     8     9    1
    14     9    10   ar
    15     9    13   ar
    16    10    11   ar
    17    11    12   ar
    18    12    13   ar
    19    15    16   ar
    20    16    17   ar
    21    17    18   ar
    22    19    20    1
    23    20    21    1
    24    20    25    1
    25    20    28    1
    26    21    22    1
    27    22    23    1
    28    22    29    1
    29    23    24    1
    30    24    25    1
    31    24    26    1
    32    26    27    1
    33    27    28    1
    34    27    29    1
