@<TRIPOS>MOLECULE
33734_ChemDiv_8012-3313
 24 27 0 0 0
SMALL
GASTEIGER
Energy = 0

@<TRIPOS>ATOM
      1 N          -1.2420   -0.2130    0.0000 N.ar    1  LIG1       -0.2546
      2 C          -1.2420    0.7630    0.0000 C.ar    1  LIG1        0.4223
      3 O          -2.0830    1.2500    0.0000 O.2     1  LIG1       -0.4068
      4 C          -2.9500    0.7630    0.0000 C.ar    1  LIG1        0.1660
      5 C          -2.9500   -0.2130    0.0000 C.ar    1  LIG1        0.1004
      6 C          -3.7750   -0.7290    0.0000 C.ar    1  LIG1        0.0205
      7 C          -4.6290   -0.2130    0.0000 C.ar    1  LIG1        0.0017
      8 C          -4.6290    0.7630    0.0000 C.ar    1  LIG1        0.0032
      9 C          -3.7750    1.2500    0.0000 C.ar    1  LIG1        0.0392
     10 O          -0.3830    1.2500    0.0000 O.2     1  LIG1       -0.2226
     11 C          -0.3830   -0.7290    0.0000 C.3     1  LIG1        0.1779
     12 C           0.4210   -0.2580    0.0000 C.ar    1  LIG1        0.1680
     13 N           1.2630   -0.7290    0.0000 N.ar    1  LIG1       -0.1966
     14 C           2.0960   -0.2580    0.0000 C.ar    1  LIG1        0.2237
     15 N           2.0960    0.7330    0.0000 N.ar    1  LIG1       -0.1782
     16 C           1.2630    1.2080    0.0000 C.ar    1  LIG1        0.2601
     17 N           0.4210    0.7330    0.0000 N.ar    1  LIG1       -0.1941
     18 N           1.2630    2.1750    0.0000 N.pl3   1  LIG1       -0.0859
     19 N           2.9540   -0.7290    0.0000 N.pl3   1  LIG1       -0.2781
     20 C           3.7880   -0.2580    0.0000 C.3     1  LIG1        0.0936
     21 C           4.6250   -0.7040    0.0000 C.3     1  LIG1        0.0216
     22 C           4.6250   -1.6960    0.0000 C.3     1  LIG1        0.0035
     23 C           3.7880   -2.1710    0.0000 C.3     1  LIG1        0.0216
     24 C           2.9540   -1.6960    0.0000 C.3     1  LIG1        0.0936
@<TRIPOS>BOND
     1     1     2   ar
     2     1     5   ar
     3     1    11    1
     4     2     3   ar
     5     2    10    2
     6     3     4   ar
     7     4     5   ar
     8     4     9   ar
     9     5     6   ar
    10     6     7   ar
    11     7     8   ar
    12     8     9   ar
    13    11    12    1
    14    12    13   ar
    15    12    17   ar
    16    13    14   ar
    17    14    15   ar
    18    14    19    1
    19    15    16   ar
    20    16    17   ar
    21    16    18    1
    22    19    20    1
    23    19    24    1
    24    20    21    1
    25    21    22    1
    26    22    23    1
    27    23    24    1
