@<TRIPOS>MOLECULE
33744_ChemDiv_8012-3983
 20 20 0 0 0
SMALL
GASTEIGER
Energy = 0

@<TRIPOS>ATOM
      1 C          -2.0210    0.8750    0.0000 C.ar    1  LIG1        0.3336
      2 N          -3.0170    0.8750    0.0000 N.ar    1  LIG1       -0.2467
      3 C          -3.5170    0.0040    0.0000 C.ar    1  LIG1        0.2655
      4 C          -3.0040   -0.8630    0.0000 C.ar    1  LIG1        0.0737
      5 C          -2.0170   -0.8630    0.0000 C.ar    1  LIG1        0.0463
      6 N          -1.5130    0.0040    0.0000 N.ar    1  LIG1       -0.2848
      7 C          -0.5210    0.0040    0.0000 C.3     1  LIG1        0.1102
      8 C          -0.0170   -0.8630    0.0000 C.3     1  LIG1        0.0246
      9 C           0.9830   -0.8630    0.0000 C.3     1  LIG1        0.0022
     10 C           1.4880    0.0040    0.0000 C.3     1  LIG1        0.0064
     11 C           2.5170    0.0040    0.0000 C.3     1  LIG1        0.0689
     12 C           3.0290   -0.8830    0.0000 C.3     1  LIG1        0.2007
     13 N           4.0710   -0.8830    0.0000 N.4     1  LIG1        0.4503
     14 C           4.5130   -0.0330    0.0000 C.3     1  LIG1        0.2367
     15 C           3.9880    0.8080    0.0000 C.3     1  LIG1        0.2504
     16 O           4.4710    1.6750    0.0000 O.3     1  LIG1       -0.2135
     17 C          -1.5250   -1.7290    0.0000 C.3     1  LIG1        0.0503
     18 O          -4.5170    0.0040    0.0000 O.2     1  LIG1       -0.2668
     19 C          -3.5130    1.7330    0.0000 C.3     1  LIG1        0.1382
     20 O          -1.5420    1.7330    0.0000 O.2     1  LIG1       -0.2462
@<TRIPOS>BOND
     1     1     2   ar
     2     1     6   ar
     3     1    20    2
     4     2     3   ar
     5     2    19    1
     6     3     4   ar
     7     3    18    2
     8     4     5   ar
     9     5     6   ar
    10     5    17    1
    11     6     7    1
    12     7     8    1
    13     8     9    1
    14     9    10    1
    15    10    11    1
    16    11    12    1
    17    12    13    1
    18    13    14    1
    19    14    15    1
    20    15    16    1
