@<TRIPOS>MOLECULE
33749_ChemDiv_8010-8656
 16 17 0 0 0
SMALL
GASTEIGER
Energy = 0

@<TRIPOS>ATOM
      1 N           0.3580   -0.2420    0.0000 N.pl3   1  LIG1       -0.2295
      2 N           1.2130    0.2290    0.0000 N.2     1  LIG1       -0.1905
      3 C           1.2080    1.1880    0.0000 C.2     1  LIG1        0.0563
      4 C          -0.4750    1.1880    0.0000 C.3     1  LIG1        0.0687
      5 C          -0.4710    0.2380    0.0000 C.3     1  LIG1        0.1191
      6 C          -1.2580   -0.2170    0.0000 C.ar    1  LIG1       -0.0025
      7 C          -1.2580   -1.1710    0.0000 C.ar    1  LIG1       -0.0026
      8 C          -2.1000   -1.6330    0.0000 C.ar    1  LIG1       -0.0003
      9 C          -2.9250   -1.1580    0.0000 C.ar    1  LIG1       -0.0000
     10 C          -2.9250   -0.2330    0.0000 C.ar    1  LIG1       -0.0003
     11 C          -2.0920    0.2380    0.0000 C.ar    1  LIG1       -0.0026
     12 C           2.0420    1.6750    0.0000 C.3     1  LIG1        0.0489
     13 C           0.3580   -1.1880    0.0000 C.3     1  LIG1        0.1274
     14 C           1.1790   -1.6710    0.0000 C.3     1  LIG1        0.1285
     15 C           2.0500   -1.1710    0.0000 C.1     1  LIG1        0.0750
     16 N           2.9210   -0.6710    0.0000 N.1     1  LIG1       -0.1958
@<TRIPOS>BOND
     1     1     2    1
     2     1     5    1
     3     1    13    1
     4     2     3    2
     5     3     4    1
     6     3    12    1
     7     4     5    1
     8     5     6    1
     9     6     7   ar
    10     6    11   ar
    11     7     8   ar
    12     8     9   ar
    13     9    10   ar
    14    10    11   ar
    15    13    14    1
    16    14    15    1
    17    15    16    3
