@<TRIPOS>MOLECULE
33742_ChemDiv_8012-3972
 23 25 0 0 0
SMALL
GASTEIGER
Energy = 0

@<TRIPOS>ATOM
      1 N           0.2330   -0.8750    0.0000 N.3     1  LIG1       -0.2561
      2 C          -0.7750   -0.8750    0.0000 C.3     1  LIG1        0.1426
      3 C          -1.2630   -0.0040    0.0000 C.2     1  LIG1        0.1892
      4 C          -2.2630   -0.0040    0.0000 C.ar    1  LIG1        0.0361
      5 C          -2.7540   -0.8580    0.0000 C.ar    1  LIG1        0.0034
      6 C          -3.7460   -0.8750    0.0000 C.ar    1  LIG1        0.0068
      7 C          -4.2710   -0.0170    0.0000 C.ar    1  LIG1        0.0346
      8 C          -3.7500    0.8330    0.0000 C.ar    1  LIG1        0.0068
      9 C          -2.7670    0.8460    0.0000 C.ar    1  LIG1        0.0034
     10 BR         -5.2670   -0.0170    0.0000 Br      1  LIG1       -0.0490
     11 O          -0.7750    0.8580    0.0000 O.2     1  LIG1       -0.2899
     12 C           0.7500   -1.7420    0.0000 C.3     1  LIG1        0.1362
     13 C           1.7630   -1.7420    0.0000 C.3     1  LIG1        0.1568
     14 N           2.2460   -0.8750    0.0000 N.4     1  LIG1        0.3829
     15 C           3.2500   -0.8750    0.0000 C.3     1  LIG1        0.1663
     16 C           3.7580   -0.0040    0.0000 C.ar    1  LIG1        0.0344
     17 C           4.7670    0.0000    0.0000 C.ar    1  LIG1        0.0014
     18 C           5.2630    0.8630    0.0000 C.ar    1  LIG1       -0.0001
     19 C           4.7540    1.7460    0.0000 C.ar    1  LIG1       -0.0000
     20 C           3.7580    1.7250    0.0000 C.ar    1  LIG1       -0.0001
     21 C           3.2750    0.8580    0.0000 C.ar    1  LIG1        0.0014
     22 C           1.7290    0.0170    0.0000 C.3     1  LIG1        0.1568
     23 C           0.7290   -0.0040    0.0000 C.3     1  LIG1        0.1362
@<TRIPOS>BOND
     1     1     2    1
     2     1    12    1
     3     1    23    1
     4     2     3    1
     5     3     4    1
     6     3    11    2
     7     4     5   ar
     8     4     9   ar
     9     5     6   ar
    10     6     7   ar
    11     7     8   ar
    12     7    10    1
    13     8     9   ar
    14    12    13    1
    15    13    14    1
    16    14    15    1
    17    14    22    1
    18    15    16    1
    19    16    17   ar
    20    16    21   ar
    21    17    18   ar
    22    18    19   ar
    23    19    20   ar
    24    20    21   ar
    25    22    23    1
