@<TRIPOS>MOLECULE
33745_ChemDiv_8010-8470
 17 19 0 0 0
SMALL
GASTEIGER
Energy = 0

@<TRIPOS>ATOM
      1 C           1.1170   -0.8080    0.0000 C.3     1  LIG1        0.2758
      2 C           0.7920    0.1210    0.0000 C.3     1  LIG1        0.1155
      3 C          -0.1880    0.0960    0.0000 C.2     1  LIG1        0.0497
      4 C          -0.4750   -0.8380    0.0000 C.2     1  LIG1        0.1186
      5 O           0.3000   -1.4210    0.0000 O.2     1  LIG1       -0.4527
      6 C          -1.4380   -1.0380    0.0000 C.3     1  LIG1        0.0642
      7 C          -2.1080   -0.3130    0.0000 C.3     1  LIG1        0.0144
      8 C          -1.8210    0.6080    0.0000 C.3     1  LIG1        0.0693
      9 C          -0.8580    0.8210    0.0000 C.2     1  LIG1        0.1719
     10 O          -0.5670    1.7710    0.0000 O.2     1  LIG1       -0.2916
     11 C          -2.9830   -1.0420    0.0000 C.3     1  LIG1        0.0009
     12 C          -3.3250   -0.0460    0.0000 C.3     1  LIG1        0.0009
     13 C           1.5790    0.6750    0.0000 C.3     1  LIG1        0.1215
     14 C           2.3630    0.0960    0.0000 C.2     1  LIG1        0.3199
     15 O           2.0710   -0.7710    0.0000 O.3     1  LIG1       -0.4200
     16 O           3.3210    0.3880    0.0000 O.2     1  LIG1       -0.2500
     17 C           1.2630   -1.7670    0.0000 C.3     1  LIG1        0.0918
@<TRIPOS>BOND
     1     1     2    1
     2     1     5    1
     3     1    15    1
     4     1    17    1
     5     2     3    1
     6     2    13    1
     7     3     4    2
     8     3     9    1
     9     4     5    1
    10     4     6    1
    11     6     7    1
    12     7     8    1
    13     7    11    1
    14     7    12    1
    15     8     9    1
    16     9    10    2
    17    13    14    1
    18    14    15    1
    19    14    16    2
