@<TRIPOS>MOLECULE
33759_ChemDiv_8015-4416
 28 30 0 0 0
SMALL
GASTEIGER
Energy = 0

@<TRIPOS>ATOM
      1 C          -1.3750   -0.9920    0.0000 C.ar    1  LIG1        0.0836
      2 C          -0.3880   -1.1790    0.0000 C.2     1  LIG1        0.2554
      3 N           0.2670   -0.4420    0.0000 N.am    1  LIG1       -0.2641
      4 C          -0.0380    0.5130    0.0000 C.3     1  LIG1        0.1567
      5 C           0.6420    1.2500    0.0000 C.3     1  LIG1        0.1610
      6 N           1.6040    1.0330    0.0000 N.4     1  LIG1        0.3834
      7 C           1.9380    0.0750    0.0000 C.3     1  LIG1        0.1610
      8 C           1.2540   -0.6540    0.0000 C.3     1  LIG1        0.1567
      9 C           2.2790    1.7710    0.0000 C.3     1  LIG1        0.1662
     10 C           3.2670    1.5330    0.0000 C.2     1  LIG1        0.0359
     11 C           3.9540    2.2670    0.0000 C.2     1  LIG1        0.0013
     12 C           4.9170    2.0250    0.0000 C.ar    1  LIG1       -0.0001
     13 C           5.2130    1.0880    0.0000 C.ar    1  LIG1       -0.0000
     14 C           6.2000    0.8460    0.0000 C.ar    1  LIG1       -0.0000
     15 C           6.8540    1.5830    0.0000 C.ar    1  LIG1       -0.0000
     16 C           6.5540    2.5460    0.0000 C.ar    1  LIG1       -0.0000
     17 C           5.6000    2.7580    0.0000 C.ar    1  LIG1       -0.0000
     18 O          -0.0880   -2.1420    0.0000 O.2     1  LIG1       -0.2694
     19 S          -2.1920   -1.5790    0.0000 S.2     1  LIG1       -0.0740
     20 C          -2.9920   -0.9670    0.0000 C.ar    1  LIG1        0.0711
     21 C          -3.9670   -1.2420    0.0000 C.1     1  LIG1       -0.0555
     22 C          -4.9290   -1.5250    0.0000 C.1     1  LIG1       -0.0571
     23 C          -5.9080   -1.7920    0.0000 C.3     1  LIG1        0.1796
     24 O          -6.8540   -2.0670    0.0000 O.3     1  LIG1       -0.2124
     25 C          -5.6380   -2.7540    0.0000 C.3     1  LIG1        0.0465
     26 C          -6.1790   -0.8420    0.0000 C.3     1  LIG1        0.0465
     27 C          -2.6880   -0.0420    0.0000 C.ar    1  LIG1        0.0154
     28 C          -1.7000   -0.0420    0.0000 C.ar    1  LIG1        0.0122
@<TRIPOS>BOND
     1     1     2    1
     2     1    19   ar
     3     1    28   ar
     4     2     3   am
     5     2    18    2
     6     3     4    1
     7     3     8    1
     8     4     5    1
     9     5     6    1
    10     6     7    1
    11     6     9    1
    12     7     8    1
    13     9    10    1
    14    10    11    2
    15    11    12    1
    16    12    13   ar
    17    12    17   ar
    18    13    14   ar
    19    14    15   ar
    20    15    16   ar
    21    16    17   ar
    22    19    20   ar
    23    20    21    1
    24    20    27   ar
    25    21    22    3
    26    22    23    1
    27    23    24    1
    28    23    25    1
    29    23    26    1
    30    27    28   ar
