@<TRIPOS>MOLECULE
33752_ChemDiv_8011-7605
 14 14 0 0 0
SMALL
GASTEIGER
Energy = 0

@<TRIPOS>ATOM
      1 N          -1.7880   -1.4580    0.0000 N.ar    1  LIG1       -0.2027
      2 C          -0.9210   -0.9630    0.0000 C.ar    1  LIG1        0.1940
      3 N          -0.9210    0.0420    0.0000 N.ar    1  LIG1       -0.1827
      4 C          -1.7880    0.5380    0.0000 C.ar    1  LIG1        0.2840
      5 C          -2.6420    0.0420    0.0000 C.ar    1  LIG1        0.1001
      6 C          -2.6420   -0.9630    0.0000 C.ar    1  LIG1        0.1766
      7 N          -3.5040   -1.4580    0.0000 N.pl3   1  LIG1       -0.1070
      8 O          -1.7880    1.5290    0.0000 O.2     1  LIG1       -0.2650
      9 S          -0.0580   -1.4580    0.0000 S.3     1  LIG1       -0.0752
     10 C           0.8000   -0.9670    0.0000 C.3     1  LIG1        0.0711
     11 C           1.6630   -1.4710    0.0000 C.3     1  LIG1        0.0538
     12 C           2.5460   -0.9790    0.0000 C.2     1  LIG1        0.0512
     13 O           2.5460   -0.0380    0.0000 O.co2   1  LIG1       -0.5491
     14 O           3.5000   -1.5250    0.0000 O.co2   1  LIG1       -0.5491
@<TRIPOS>BOND
     1     1     2   ar
     2     1     6   ar
     3     2     3   ar
     4     2     9    1
     5     3     4   ar
     6     4     5   ar
     7     4     8    2
     8     5     6   ar
     9     6     7    1
    10     9    10    1
    11    10    11    1
    12    11    12    1
    13    12    13   ar
    14    12    14   ar
