@<TRIPOS>MOLECULE
33767_ChemDiv_8010-1480
 24 27 0 0 0
SMALL
GASTEIGER
Energy = 0

@<TRIPOS>ATOM
      1 N           2.0130    1.5500    0.0000 N.ar    1  LIG1       -0.1805
      2 C           1.0670    1.2380    0.0000 C.ar    1  LIG1        0.1677
      3 C           1.0670    0.2330    0.0000 C.ar    1  LIG1        0.0512
      4 C           2.0130   -0.0790    0.0000 C.ar    1  LIG1        0.0824
      5 N           2.5710    0.7330    0.0000 N.ar    1  LIG1       -0.1657
      6 C           2.3330   -1.0330    0.0000 C.3     1  LIG1        0.0540
      7 C           0.1670   -0.2710    0.0000 C.ar    1  LIG1        0.0056
      8 C          -0.6750    0.2330    0.0000 C.ar    1  LIG1        0.0183
      9 C          -0.6750    1.2380    0.0000 C.ar    1  LIG1        0.0830
     10 N           0.1670    1.7290    0.0000 N.ar    1  LIG1       -0.2264
     11 C          -1.5460    1.7290    0.0000 C.ar    1  LIG1        0.0197
     12 C          -2.4080    1.2380    0.0000 C.ar    1  LIG1        0.0082
     13 C          -2.4080    0.2330    0.0000 C.ar    1  LIG1        0.0347
     14 C          -1.5460   -0.2710    0.0000 C.ar    1  LIG1        0.0082
     15 BR         -3.2830   -0.2960    0.0000 Br      1  LIG1       -0.0490
     16 C           0.1670   -1.2670    0.0000 C.ar    1  LIG1        0.0002
     17 C          -0.6750   -1.7710    0.0000 C.ar    1  LIG1        0.0000
     18 C          -0.6750   -2.7750    0.0000 C.ar    1  LIG1        0.0000
     19 C           0.1670   -3.2750    0.0000 C.ar    1  LIG1        0.0000
     20 C           1.0670   -2.7750    0.0000 C.ar    1  LIG1        0.0000
     21 C           1.0670   -1.7710    0.0000 C.ar    1  LIG1        0.0000
     22 C           2.3330    2.4750    0.0000 C.2     1  LIG1        0.2587
     23 O           3.2790    2.7080    0.0000 O.2     1  LIG1       -0.2701
     24 C           1.7460    3.2790    0.0000 C.3     1  LIG1        0.0999
@<TRIPOS>BOND
     1     1     2   ar
     2     1     5   ar
     3     1    22   am
     4     2     3   ar
     5     2    10   ar
     6     3     4   ar
     7     3     7   ar
     8     4     5   ar
     9     4     6    1
    10     7     8   ar
    11     7    16    1
    12     8     9   ar
    13     8    14   ar
    14     9    10   ar
    15     9    11   ar
    16    11    12   ar
    17    12    13   ar
    18    13    14   ar
    19    13    15    1
    20    16    17   ar
    21    16    21   ar
    22    17    18   ar
    23    18    19   ar
    24    19    20   ar
    25    20    21   ar
    26    22    23    2
    27    22    24    1
