@<TRIPOS>MOLECULE
33766_ChemDiv_8016-1371
 16 17 0 0 0
SMALL
GASTEIGER
Energy = 0

@<TRIPOS>ATOM
      1 C          -2.2330   -0.4960    0.0000 C.ar    1  LIG1        0.3340
      2 N          -2.2330    0.5000    0.0000 N.ar    1  LIG1       -0.2467
      3 C          -1.3750    1.0080    0.0000 C.ar    1  LIG1        0.2660
      4 C          -0.5080    0.5000    0.0000 C.ar    1  LIG1        0.0828
      5 C          -0.5080   -0.4960    0.0000 C.ar    1  LIG1        0.1238
      6 N          -1.3750   -0.9960    0.0000 N.ar    1  LIG1       -0.2749
      7 C          -1.3750   -1.9960    0.0000 C.3     1  LIG1        0.1352
      8 C           0.3670   -0.9960    0.0000 C.2     1  LIG1        0.2809
      9 N           1.2330   -0.4960    0.0000 N.am    1  LIG1       -0.2022
     10 C           2.0960   -0.9960    0.0000 C.3     1  LIG1        0.0958
     11 C           2.5960   -1.8670    0.0000 C.3     1  LIG1        0.0234
     12 C           3.0960   -0.9960    0.0000 C.3     1  LIG1        0.0234
     13 O           0.3670   -1.9960    0.0000 O.2     1  LIG1       -0.2668
     14 O          -1.3750    2.0000    0.0000 O.2     1  LIG1       -0.2668
     15 C          -3.1000    1.0080    0.0000 C.3     1  LIG1        0.1382
     16 O          -3.1000   -0.9960    0.0000 O.2     1  LIG1       -0.2462
@<TRIPOS>BOND
     1     1     2   ar
     2     1     6   ar
     3     1    16    2
     4     2     3   ar
     5     2    15    1
     6     3     4   ar
     7     3    14    2
     8     4     5   ar
     9     5     6   ar
    10     5     8    1
    11     6     7    1
    12     8     9   am
    13     8    13    2
    14     9    10    1
    15    10    11    1
    16    10    12    1
    17    11    12    1
