@<TRIPOS>MOLECULE
33768_ChemDiv_8012-4068
 18 19 0 0 0
SMALL
GASTEIGER
Energy = 0

@<TRIPOS>ATOM
      1 S          -1.1630   -2.2080    0.0000 S.2     1  LIG1       -0.0212
      2 C          -1.6460   -1.3380    0.0000 C.ar    1  LIG1        0.1610
      3 N          -2.6080   -1.5210    0.0000 N.ar    1  LIG1       -0.1330
      4 N          -2.7130   -2.5130    0.0000 N.ar    1  LIG1       -0.1217
      5 C          -1.8540   -2.9420    0.0000 C.ar    1  LIG1        0.2226
      6 N          -1.6710   -3.9380    0.0000 N.pl3   1  LIG1       -0.0979
      7 S          -1.1630   -0.4960    0.0000 S.3     1  LIG1       -0.0818
      8 C          -0.1420   -0.4960    0.0000 C.3     1  LIG1        0.0904
      9 C           0.3630    0.3750    0.0000 C.ar    1  LIG1       -0.0109
     10 C          -0.1420    1.2170    0.0000 C.ar    1  LIG1       -0.0037
     11 C           0.3630    2.1040    0.0000 C.ar    1  LIG1       -0.0046
     12 C           1.3290    2.1380    0.0000 C.ar    1  LIG1       -0.0228
     13 C           1.7880    3.0540    0.0000 C.3     1  LIG1        0.0189
     14 C           0.9000    3.4790    0.0000 C.3     1  LIG1        0.0044
     15 C           2.2500    3.9420    0.0000 C.3     1  LIG1        0.0044
     16 C           2.7080    2.5960    0.0000 C.3     1  LIG1        0.0044
     17 C           1.8670    1.2170    0.0000 C.ar    1  LIG1       -0.0046
     18 C           1.3580    0.3750    0.0000 C.ar    1  LIG1       -0.0037
@<TRIPOS>BOND
     1     1     2   ar
     2     1     5   ar
     3     2     3   ar
     4     2     7    1
     5     3     4   ar
     6     4     5   ar
     7     5     6    1
     8     7     8    1
     9     8     9    1
    10     9    10   ar
    11     9    18   ar
    12    10    11   ar
    13    11    12   ar
    14    12    13    1
    15    12    17   ar
    16    13    14    1
    17    13    15    1
    18    13    16    1
    19    17    18   ar
