@<TRIPOS>MOLECULE
33761_ChemDiv_8010-1130
 24 26 0 0 0
SMALL
GASTEIGER
Energy = 0

@<TRIPOS>ATOM
      1 N          -2.0420    0.1330    0.0000 N.ar    1  LIG1       -0.1786
      2 C          -2.6670    0.9290    0.0000 C.ar    1  LIG1        0.1865
      3 N          -2.1330    1.7420    0.0000 N.ar    1  LIG1       -0.1265
      4 N          -1.1670    1.4630    0.0000 N.ar    1  LIG1       -0.1204
      5 C          -1.1420    0.5040    0.0000 C.ar    1  LIG1        0.2129
      6 S          -0.2580   -0.0380    0.0000 S.3     1  LIG1       -0.0642
      7 C           0.6210    0.4170    0.0000 C.3     1  LIG1        0.1520
      8 C           1.4460   -0.1250    0.0000 C.2     1  LIG1        0.2570
      9 N           2.3580    0.3330    0.0000 N.am    1  LIG1       -0.1785
     10 C           3.2080   -0.2080    0.0000 C.ar    1  LIG1        0.0734
     11 C           3.1500   -1.2000    0.0000 C.ar    1  LIG1        0.0171
     12 C           3.9750   -1.7420    0.0000 C.ar    1  LIG1        0.0080
     13 C           4.8580   -1.2880    0.0000 C.ar    1  LIG1        0.0347
     14 BR          5.6790   -1.8290    0.0000 Br      1  LIG1       -0.0490
     15 C           4.9170   -0.2960    0.0000 C.ar    1  LIG1        0.0080
     16 C           4.0920    0.2460    0.0000 C.ar    1  LIG1        0.0171
     17 O           1.3920   -1.1210    0.0000 O.2     1  LIG1       -0.2720
     18 C          -3.6880    0.9290    0.0000 C.ar    1  LIG1        0.0376
     19 C          -4.1750    1.8040    0.0000 C.ar    1  LIG1        0.0031
     20 C          -5.1750    1.8330    0.0000 C.ar    1  LIG1        0.0001
     21 C          -5.6830    0.9290    0.0000 C.ar    1  LIG1        0.0000
     22 C          -5.1960    0.0460    0.0000 C.ar    1  LIG1        0.0001
     23 C          -4.1750    0.0460    0.0000 C.ar    1  LIG1        0.0031
     24 N          -2.3040   -0.8380    0.0000 N.pl3   1  LIG1       -0.0215
@<TRIPOS>BOND
     1     1     2   ar
     2     1     5   ar
     3     1    24    1
     4     2     3   ar
     5     2    18    1
     6     3     4   ar
     7     4     5   ar
     8     5     6    1
     9     6     7    1
    10     7     8    1
    11     8     9   am
    12     8    17    2
    13     9    10    1
    14    10    11   ar
    15    10    16   ar
    16    11    12   ar
    17    12    13   ar
    18    13    14    1
    19    13    15   ar
    20    15    16   ar
    21    18    19   ar
    22    18    23   ar
    23    19    20   ar
    24    20    21   ar
    25    21    22   ar
    26    22    23   ar
