@<TRIPOS>MOLECULE
33762_ChemDiv_8012-9012
 17 17 0 0 0
SMALL
GASTEIGER
Energy = 0

@<TRIPOS>ATOM
      1 C          -1.2790   -0.5130    0.0000 C.ar    1  LIG1        0.1457
      2 C          -1.2790    0.4920    0.0000 C.ar    1  LIG1        0.0865
      3 C          -2.1420    0.9920    0.0000 C.ar    1  LIG1        0.2848
      4 N          -3.0040    0.4920    0.0000 N.ar    1  LIG1       -0.1517
      5 C          -3.0040   -0.5130    0.0000 C.ar    1  LIG1        0.3715
      6 N          -2.1420   -1.0170    0.0000 N.ar    1  LIG1       -0.1859
      7 O          -3.8710   -1.0170    0.0000 O.2     1  LIG1       -0.2425
      8 O          -2.1420    1.9830    0.0000 O.2     1  LIG1       -0.2650
      9 C          -0.4130   -1.0170    0.0000 C.2     1  LIG1        0.2828
     10 O          -0.4130   -2.0210    0.0000 O.2     1  LIG1       -0.2667
     11 N           0.4420   -0.5000    0.0000 N.am    1  LIG1       -0.2004
     12 C           0.4420    0.4750    0.0000 C.3     1  LIG1        0.1159
     13 C           1.2960    1.0000    0.0000 C.3     1  LIG1        0.0293
     14 C           2.2130    0.5000    0.0000 C.3     1  LIG1        0.0435
     15 C           3.0670    1.0080    0.0000 C.2     1  LIG1        0.0504
     16 O           3.0670    2.0250    0.0000 O.co2   1  LIG1       -0.5492
     17 O           3.8670    0.4710    0.0000 O.co2   1  LIG1       -0.5492
@<TRIPOS>BOND
     1     1     2   ar
     2     1     6   ar
     3     1     9    1
     4     2     3   ar
     5     3     4   ar
     6     3     8    2
     7     4     5   ar
     8     5     6   ar
     9     5     7    2
    10     9    10    2
    11     9    11   am
    12    11    12    1
    13    12    13    1
    14    13    14    1
    15    14    15    1
    16    15    16   ar
    17    15    17   ar
