@<TRIPOS>MOLECULE
33776_ChemDiv_8012-4167
 32 35 0 0 0
SMALL
GASTEIGER
Energy = 0

@<TRIPOS>ATOM
      1 S          -3.6330   -0.6830    0.0000 S.O2    1  LIG1        0.0633
      2 C          -2.7630   -0.1500    0.0000 C.ar    1  LIG1        0.1222
      3 C          -2.7630    0.8460    0.0000 C.ar    1  LIG1        0.0201
      4 C          -1.9080    1.3420    0.0000 C.ar    1  LIG1        0.0059
      5 C          -1.0380    0.8460    0.0000 C.ar    1  LIG1        0.0555
      6 C          -0.1960    1.3420    0.0000 C.2     1  LIG1        0.2690
      7 N           0.6630    0.8460    0.0000 N.am    1  LIG1       -0.1753
      8 C           1.5420    1.3830    0.0000 C.ar    1  LIG1        0.0767
      9 C           2.4000    0.8880    0.0000 C.ar    1  LIG1        0.0541
     10 C           3.2790    1.3830    0.0000 C.ar    1  LIG1        0.1466
     11 O           4.2380    1.0790    0.0000 O.2     1  LIG1       -0.4535
     12 C           4.8130    1.8750    0.0000 C.ar    1  LIG1        0.1453
     13 C           4.2380    2.6880    0.0000 C.ar    1  LIG1        0.0375
     14 C           3.2790    2.3790    0.0000 C.ar    1  LIG1        0.0376
     15 C           2.4000    2.8710    0.0000 C.ar    1  LIG1        0.0045
     16 C           1.5420    2.3790    0.0000 C.ar    1  LIG1        0.0168
     17 C           4.6500    3.6080    0.0000 C.ar    1  LIG1        0.0031
     18 C           5.6500    3.6750    0.0000 C.ar    1  LIG1        0.0002
     19 C           6.2420    2.8710    0.0000 C.ar    1  LIG1        0.0031
     20 C           5.8330    1.9500    0.0000 C.ar    1  LIG1        0.0375
     21 O          -0.1960    2.3420    0.0000 O.2     1  LIG1       -0.2680
     22 C          -1.0380   -0.1500    0.0000 C.ar    1  LIG1        0.0059
     23 C          -1.9080   -0.6460    0.0000 C.ar    1  LIG1        0.0201
     24 N          -4.5080   -1.1750    0.0000 N.3     1  LIG1       -0.1555
     25 C          -4.5080   -2.1790    0.0000 C.3     1  LIG1        0.0958
     26 C          -5.3710   -2.6670    0.0000 C.3     1  LIG1        0.0191
     27 C          -5.3710   -3.6710    0.0000 C.3     1  LIG1        0.0015
     28 C          -5.3710   -0.6830    0.0000 C.3     1  LIG1        0.0958
     29 C          -5.3710    0.3130    0.0000 C.3     1  LIG1        0.0191
     30 C          -6.2420    0.8080    0.0000 C.3     1  LIG1        0.0015
     31 O          -3.1210   -1.5250    0.0000 O.2     1  LIG1       -0.1528
     32 O          -4.1420    0.1920    0.0000 O.2     1  LIG1       -0.1528
@<TRIPOS>BOND
     1     1     2    1
     2     1    24    1
     3     1    31    2
     4     1    32    2
     5     2     3   ar
     6     2    23   ar
     7     3     4   ar
     8     4     5   ar
     9     5     6    1
    10     5    22   ar
    11     6     7   am
    12     6    21    2
    13     7     8    1
    14     8     9   ar
    15     8    16   ar
    16     9    10   ar
    17    10    11   ar
    18    10    14   ar
    19    11    12   ar
    20    12    13   ar
    21    12    20   ar
    22    13    14   ar
    23    13    17   ar
    24    14    15   ar
    25    15    16   ar
    26    17    18   ar
    27    18    19   ar
    28    19    20   ar
    29    22    23   ar
    30    24    25    1
    31    24    28    1
    32    25    26    1
    33    26    27    1
    34    28    29    1
    35    29    30    1
