@<TRIPOS>MOLECULE
33770_ChemDiv_8012-4106
 19 19 0 0 0
SMALL
GASTEIGER
Energy = 0

@<TRIPOS>ATOM
      1 C          -5.5830    0.1250    0.0000 C.1     1  LIG1       -0.0779
      2 C          -6.4500    0.6500    0.0000 C.1     1  LIG1       -0.0141
      3 C          -4.7080   -0.3630    0.0000 C.3     1  LIG1        0.0770
      4 C          -3.8330    0.1250    0.0000 C.3     1  LIG1        0.0140
      5 C          -2.9630   -0.3630    0.0000 C.3     1  LIG1        0.0010
      6 C          -2.0880    0.1250    0.0000 C.3     1  LIG1        0.0000
      7 C          -1.2130   -0.3630    0.0000 C.3     1  LIG1        0.0000
      8 C          -0.3380    0.1250    0.0000 C.3     1  LIG1        0.0005
      9 C           0.5710   -0.3630    0.0000 C.3     1  LIG1        0.0096
     10 C           1.4460    0.1250    0.0000 C.3     1  LIG1        0.0868
     11 C           2.2830   -0.3630    0.0000 C.2     1  LIG1        0.2418
     12 N           3.1580    0.1250    0.0000 N.am    1  LIG1       -0.1972
     13 C           4.0000   -0.3630    0.0000 C.3     1  LIG1        0.1791
     14 C           4.9080    0.1250    0.0000 C.ar    1  LIG1        0.1449
     15 O           4.9710    1.1460    0.0000 O.2     1  LIG1       -0.4529
     16 C           5.9540    1.3500    0.0000 C.ar    1  LIG1        0.1792
     17 C           6.4500    0.4750    0.0000 C.ar    1  LIG1        0.0435
     18 C           5.8170   -0.2540    0.0000 C.ar    1  LIG1        0.0380
     19 O           2.2830   -1.3460    0.0000 O.2     1  LIG1       -0.2733
@<TRIPOS>BOND
     1     1     2    3
     2     1     3    1
     3     3     4    1
     4     4     5    1
     5     5     6    1
     6     6     7    1
     7     7     8    1
     8     8     9    1
     9     9    10    1
    10    10    11    1
    11    11    12   am
    12    11    19    2
    13    12    13    1
    14    13    14    1
    15    14    15   ar
    16    14    18   ar
    17    15    16   ar
    18    16    17   ar
    19    17    18   ar
