@<TRIPOS>MOLECULE
33777_ChemDiv_8011-0386
 15 17 0 0 0
SMALL
GASTEIGER
Energy = 0

@<TRIPOS>ATOM
      1 C           1.2170    0.4460    0.0000 C.3     1  LIG1        0.2692
      2 O           0.7170    1.2380    0.0000 O.3     1  LIG1       -0.4455
      3 C          -0.7080    0.3960    0.0000 C.ar    1  LIG1        0.1773
      4 C          -0.2460   -0.3790    0.0000 C.ar    1  LIG1        0.1760
      5 O           0.7250   -0.3790    0.0000 O.3     1  LIG1       -0.4455
      6 C          -0.7080   -1.2330    0.0000 C.ar    1  LIG1        0.0416
      7 C          -1.6790   -1.2330    0.0000 C.ar    1  LIG1        0.0214
      8 C          -2.1630   -0.4330    0.0000 C.ar    1  LIG1        0.0923
      9 C          -1.6710    0.3960    0.0000 C.ar    1  LIG1        0.0582
     10 N          -3.1500   -0.4330    0.0000 N.pl3   1  LIG1       -0.1280
     11 C           1.6830   -0.4330    0.0000 C.3     1  LIG1        0.0838
     12 C           2.6580   -0.4330    0.0000 C.3     1  LIG1        0.0075
     13 C           3.1460    0.4460    0.0000 C.3     1  LIG1        0.0005
     14 C           2.6580    1.2380    0.0000 C.3     1  LIG1        0.0075
     15 C           1.7290    1.2380    0.0000 C.3     1  LIG1        0.0838
@<TRIPOS>BOND
     1     1     2    1
     2     1     5    1
     3     1    11    1
     4     1    15    1
     5     2     3    1
     6     3     4   ar
     7     3     9   ar
     8     4     5    1
     9     4     6   ar
    10     6     7   ar
    11     7     8   ar
    12     8     9   ar
    13     8    10    1
    14    11    12    1
    15    12    13    1
    16    13    14    1
    17    14    15    1
