@<TRIPOS>MOLECULE
33774_ChemDiv_8012-4144
 29 33 0 0 0
SMALL
GASTEIGER
Energy = 0

@<TRIPOS>ATOM
      1 C           0.8750    0.8830    0.0000 C.ar    1  LIG1        0.0404
      2 C           1.4210   -0.0130    0.0000 C.ar    1  LIG1        0.0060
      3 C           0.9380   -0.8580    0.0000 C.ar    1  LIG1        0.0178
      4 C           1.4330   -1.7130    0.0000 C.ar    1  LIG1        0.0813
      5 N           2.4330   -1.7130    0.0000 N.ar    1  LIG1       -0.2442
      6 CA          2.9250   -0.8580    0.0000 C.ar    1  LIG1        0.0952
      7 C           2.4040   -0.0130    0.0000 C.ar    1  LIG1        0.0204
      8 C           3.8830   -0.8670    0.0000 C.2     1  LIG1        0.0905
      9 O           4.3710   -1.7170    0.0000 O.co2   1  LIG1       -0.5430
     10 OXT         4.3790    0.0330    0.0000 O.co2   1  LIG1       -0.5430
     11 C           0.9460   -2.5630    0.0000 C.ar    1  LIG1        0.0191
     12 C          -0.0210   -2.5630    0.0000 C.ar    1  LIG1        0.0015
     13 C          -0.5210   -1.7130    0.0000 C.ar    1  LIG1        0.0001
     14 C          -0.0380   -0.8580    0.0000 C.ar    1  LIG1        0.0015
     15 C          -0.5580   -0.0130    0.0000 C.ar    1  LIG1        0.0000
     16 C          -1.5420   -0.0130    0.0000 C.ar    1  LIG1        0.0000
     17 C          -2.0250   -0.8580    0.0000 C.ar    1  LIG1        0.0000
     18 C          -1.5250   -1.7130    0.0000 C.ar    1  LIG1        0.0000
     19 C          -0.5460    1.7130    0.0000 C.ar    1  LIG1        0.1043
     20 N          -0.0500    2.5170    0.0000 N.ar    1  LIG1       -0.1479
     21 N           0.8750    2.5170    0.0000 N.ar    1  LIG1       -0.1464
     22 C           1.4000    1.7130    0.0000 C.ar    1  LIG1        0.1237
     23 C          -1.4210    1.7130    0.0000 C.ar    1  LIG1        0.0196
     24 C          -1.9080    2.5670    0.0000 C.ar    1  LIG1        0.0039
     25 C          -2.8960    2.5670    0.0000 C.ar    1  LIG1        0.0297
     26 C          -3.3880    1.7130    0.0000 C.ar    1  LIG1        0.1401
     27 C          -2.8790    0.8670    0.0000 C.ar    1  LIG1        0.0297
     28 C          -1.8920    0.8670    0.0000 C.ar    1  LIG1        0.0039
     29 F          -4.3830    1.7130    0.0000 F       1  LIG1       -0.2042
@<TRIPOS>BOND
     1     1     2    1
     2     1    19   ar
     3     1    22   ar
     4     2     3   ar
     5     2     7   ar
     6     3     4   ar
     7     3    14   ar
     8     4     5   ar
     9     4    11   ar
    10     5     6   ar
    11     6     7   ar
    12     6     8    1
    13     8     9   ar
    14     8    10   ar
    15    11    12   ar
    16    12    13   ar
    17    13    14   ar
    18    13    18   ar
    19    14    15   ar
    20    15    16   ar
    21    16    17   ar
    22    17    18   ar
    23    19    20   ar
    24    19    23    1
    25    20    21   ar
    26    21    22   ar
    27    23    24   ar
    28    23    28   ar
    29    24    25   ar
    30    25    26   ar
    31    26    27   ar
    32    26    29    1
    33    27    28   ar
