@<TRIPOS>MOLECULE
33787_ChemDiv_8018-0224
 28 31 0 0 0
SMALL
GASTEIGER
Energy = 0

@<TRIPOS>ATOM
      1 N          -0.1960    0.9380    0.0000 N.ar    1  LIG1       -0.1755
      2 C          -0.5080   -0.0130    0.0000 C.ar    1  LIG1        0.1849
      3 N          -1.5080   -0.0130    0.0000 N.ar    1  LIG1       -0.2932
      4 C          -1.8130    0.9380    0.0000 C.ar    1  LIG1        0.1649
      5 N          -1.0080    1.5330    0.0000 N.ar    1  LIG1       -0.1452
      6 C          -2.7630    1.2460    0.0000 C.ar    1  LIG1        0.0359
      7 C          -3.5000    0.5710    0.0000 C.ar    1  LIG1        0.0030
      8 C          -4.4580    0.8750    0.0000 C.ar    1  LIG1        0.0001
      9 C          -4.6750    1.8580    0.0000 C.ar    1  LIG1        0.0000
     10 C          -3.9330    2.5330    0.0000 C.ar    1  LIG1        0.0001
     11 C          -2.9750    2.2250    0.0000 C.ar    1  LIG1        0.0030
     12 C          -2.1080   -0.8170    0.0000 C.3     1  LIG1        0.0888
     13 C          -3.0960   -0.7170    0.0000 C.3     1  LIG1        0.0227
     14 C          -3.6750   -1.5170    0.0000 C.3     1  LIG1        0.0019
     15 C          -3.2710   -2.4250    0.0000 C.3     1  LIG1        0.0001
     16 C          -2.2830   -2.5290    0.0000 C.3     1  LIG1        0.0019
     17 C          -1.6960   -1.7170    0.0000 C.3     1  LIG1        0.0227
     18 S           0.0830   -0.8170    0.0000 S.2     1  LIG1       -0.0110
     19 C           0.7580    1.2460    0.0000 C.3     1  LIG1        0.2770
     20 N           1.4960    0.5830    0.0000 N.4     1  LIG1        0.3967
     21 C           1.2830   -0.3920    0.0000 C.3     1  LIG1        0.1419
     22 C           2.0210   -1.0670    0.0000 C.3     1  LIG1        0.0722
     23 C           2.9790   -0.7670    0.0000 C.3     1  LIG1        0.0917
     24 C           3.7210   -1.4420    0.0000 C.2     1  LIG1        0.2607
     25 O           3.5040   -2.4170    0.0000 O.2     1  LIG1       -0.2717
     26 N           4.6710   -1.1420    0.0000 N.am    1  LIG1       -0.0878
     27 C           3.1960    0.2130    0.0000 C.3     1  LIG1        0.0722
     28 C           2.4500    0.8830    0.0000 C.3     1  LIG1        0.1419
@<TRIPOS>BOND
     1     1     2   ar
     2     1     5   ar
     3     1    19    1
     4     2     3   ar
     5     2    18    2
     6     3     4   ar
     7     3    12    1
     8     4     5   ar
     9     4     6    1
    10     6     7   ar
    11     6    11   ar
    12     7     8   ar
    13     8     9   ar
    14     9    10   ar
    15    10    11   ar
    16    12    13    1
    17    12    17    1
    18    13    14    1
    19    14    15    1
    20    15    16    1
    21    16    17    1
    22    19    20    1
    23    20    21    1
    24    20    28    1
    25    21    22    1
    26    22    23    1
    27    23    24    1
    28    23    27    1
    29    24    25    2
    30    24    26   am
    31    27    28    1
