@<TRIPOS>MOLECULE
33783_ChemDiv_8011-0718
 25 28 0 0 0
SMALL
GASTEIGER
Energy = 0

@<TRIPOS>ATOM
      1 N          -0.9750   -0.4040    0.0000 N.ar    1  LIG1       -0.1755
      2 C          -0.5250    0.4210    0.0000 C.ar    1  LIG1        0.1851
      3 N          -1.9500    1.2460    0.0000 N.ar    1  LIG1       -0.2868
      4 C          -2.4040    0.4210    0.0000 C.ar    1  LIG1        0.1999
      5 N          -1.9500   -0.4040    0.0000 N.ar    1  LIG1       -0.1420
      6 C          -3.3250    0.4210    0.0000 C.ar    1  LIG1        0.1811
      7 O          -3.8130   -0.4040    0.0000 O.2     1  LIG1       -0.4473
      8 C          -4.7580   -0.4040    0.0000 C.ar    1  LIG1        0.1798
      9 C          -5.2460    0.4210    0.0000 C.ar    1  LIG1        0.0439
     10 C          -3.8130    1.2460    0.0000 C.ar    1  LIG1        0.0439
     11 C          -2.4500    2.0460    0.0000 C.3     1  LIG1        0.1340
     12 S           0.4210    0.4210    0.0000 S.2     1  LIG1       -0.0110
     13 C          -0.5250   -1.2170    0.0000 C.3     1  LIG1        0.2770
     14 N           0.4540   -1.2170    0.0000 N.4     1  LIG1        0.3967
     15 C           0.9420   -0.4040    0.0000 C.3     1  LIG1        0.1418
     16 C           1.8960   -0.4040    0.0000 C.3     1  LIG1        0.0674
     17 C           2.3710   -1.2170    0.0000 C.3     1  LIG1        0.0342
     18 C           1.8960   -2.0420    0.0000 C.3     1  LIG1        0.0674
     19 C           0.9420   -2.0420    0.0000 C.3     1  LIG1        0.1418
     20 C           3.3210   -1.2170    0.0000 C.ar    1  LIG1       -0.0221
     21 C           3.8130   -0.4040    0.0000 C.ar    1  LIG1       -0.0043
     22 C           4.7540   -0.4040    0.0000 C.ar    1  LIG1       -0.0003
     23 C           5.2420   -1.2170    0.0000 C.ar    1  LIG1       -0.0000
     24 C           4.7540   -2.0420    0.0000 C.ar    1  LIG1       -0.0003
     25 C           3.8130   -2.0420    0.0000 C.ar    1  LIG1       -0.0043
@<TRIPOS>BOND
     1     1     2   ar
     2     1     5   ar
     3     1    13    1
     4     2     3   ar
     5     2    12    2
     6     3     4   ar
     7     3    11    1
     8     4     5   ar
     9     4     6    1
    10     6     7   ar
    11     6    10   ar
    12     7     8   ar
    13     8     9   ar
    14     9    10   ar
    15    13    14    1
    16    14    15    1
    17    14    19    1
    18    15    16    1
    19    16    17    1
    20    17    18    1
    21    17    20    1
    22    18    19    1
    23    20    21   ar
    24    20    25   ar
    25    21    22   ar
    26    22    23   ar
    27    23    24   ar
    28    24    25   ar
