@<TRIPOS>MOLECULE
33785_ChemDiv_8016-2676
 20 22 0 0 0
SMALL
GASTEIGER
Energy = 0

@<TRIPOS>ATOM
      1 N           0.4790    0.7920    0.0000 N.ar    1  LIG1       -0.1755
      2 C           0.8040   -0.1580    0.0000 C.ar    1  LIG1        0.1850
      3 N           0.0170   -0.7540    0.0000 N.ar    1  LIG1       -0.2913
      4 C          -0.8080   -0.1790    0.0000 C.ar    1  LIG1        0.1649
      5 N          -0.5170    0.7710    0.0000 N.ar    1  LIG1       -0.1452
      6 C          -1.7540   -0.4920    0.0000 C.ar    1  LIG1        0.0359
      7 C          -2.5040    0.1670    0.0000 C.ar    1  LIG1        0.0030
      8 C          -3.4460   -0.1540    0.0000 C.ar    1  LIG1        0.0001
      9 C          -3.6460   -1.1380    0.0000 C.ar    1  LIG1        0.0000
     10 C          -2.8790   -1.7920    0.0000 C.ar    1  LIG1        0.0001
     11 C          -1.9420   -1.4670    0.0000 C.ar    1  LIG1        0.0030
     12 C           0.0170   -1.7540    0.0000 C.3     1  LIG1        0.1095
     13 C          -0.8330   -2.2630    0.0000 C.3     1  LIG1        0.0266
     14 S           1.7170   -0.5630    0.0000 S.2     1  LIG1       -0.0110
     15 C           1.0670    1.6040    0.0000 C.3     1  LIG1        0.2770
     16 N           2.0670    1.5080    0.0000 N.4     1  LIG1        0.3967
     17 C           2.5670    0.6460    0.0000 C.3     1  LIG1        0.1416
     18 C           3.5500    0.8670    0.0000 C.3     1  LIG1        0.0689
     19 C           3.6420    1.8670    0.0000 C.3     1  LIG1        0.0689
     20 C           2.7170    2.2670    0.0000 C.3     1  LIG1        0.1416
@<TRIPOS>BOND
     1     1     2   ar
     2     1     5   ar
     3     1    15    1
     4     2     3   ar
     5     2    14    2
     6     3     4   ar
     7     3    12    1
     8     4     5   ar
     9     4     6    1
    10     6     7   ar
    11     6    11   ar
    12     7     8   ar
    13     8     9   ar
    14     9    10   ar
    15    10    11   ar
    16    12    13    1
    17    15    16    1
    18    16    17    1
    19    16    20    1
    20    17    18    1
    21    18    19    1
    22    19    20    1
