@<TRIPOS>MOLECULE
33780_ChemDiv_8016-0529
 36 40 0 0 0
SMALL
GASTEIGER
Energy = 0

@<TRIPOS>ATOM
      1 C          -1.1330   -2.1750    0.0000 C.ar    1  LIG1        0.0906
      2 C          -0.8330   -3.1630    0.0000 C.ar    1  LIG1        0.1711
      3 O          -1.6380   -3.7540    0.0000 O.2     1  LIG1       -0.4539
      4 C          -2.4710   -3.1630    0.0000 C.ar    1  LIG1        0.1453
      5 C          -2.1710   -2.1750    0.0000 C.ar    1  LIG1        0.0447
      6 C          -2.8330   -1.4500    0.0000 C.ar    1  LIG1        0.0402
      7 C          -3.8170   -1.6630    0.0000 C.ar    1  LIG1        0.1389
      8 C          -4.1460   -2.6130    0.0000 C.ar    1  LIG1        0.0400
      9 C          -3.4710   -3.3830    0.0000 C.ar    1  LIG1        0.0406
     10 O          -4.5210   -0.8960    0.0000 O.3     1  LIG1       -0.4714
     11 C          -5.5000   -1.1130    0.0000 C.3     1  LIG1        0.2525
     12 C           0.1420   -3.5130    0.0000 C.3     1  LIG1        0.2691
     13 O           0.9250   -2.8330    0.0000 O.3     1  LIG1       -0.4673
     14 C           1.8790   -3.1630    0.0000 C.ar    1  LIG1        0.1394
     15 C           2.0670   -4.1540    0.0000 C.ar    1  LIG1        0.0400
     16 C           3.0250   -4.4880    0.0000 C.ar    1  LIG1        0.0400
     17 C           3.7960   -3.8170    0.0000 C.ar    1  LIG1        0.1389
     18 C           3.5920   -2.8460    0.0000 C.ar    1  LIG1        0.0400
     19 C           2.6380   -2.5130    0.0000 C.ar    1  LIG1        0.0400
     20 O           4.7460   -4.1040    0.0000 O.3     1  LIG1       -0.4714
     21 C           5.4960   -3.4250    0.0000 C.3     1  LIG1        0.2525
     22 C          -0.5580   -1.3630    0.0000 C.2     1  LIG1        0.2520
     23 N          -0.7580   -0.3960    0.0000 N.am    1  LIG1       -0.2725
     24 C          -1.7000   -0.0880    0.0000 C.3     1  LIG1        0.1151
     25 C          -1.9250    0.9000    0.0000 C.3     1  LIG1        0.1123
     26 N          -1.1960    1.5750    0.0000 N.pl3   1  LIG1       -0.3043
     27 C          -1.4250    2.5420    0.0000 C.ar    1  LIG1        0.0439
     28 C          -0.7080    3.2380    0.0000 C.ar    1  LIG1       -0.0085
     29 C           0.2420    2.9630    0.0000 C.3     1  LIG1        0.0323
     30 C          -0.9500    4.1960    0.0000 C.ar    1  LIG1       -0.0030
     31 C          -1.8830    4.4880    0.0000 C.ar    1  LIG1       -0.0002
     32 C          -2.5960    3.8040    0.0000 C.ar    1  LIG1        0.0012
     33 C          -2.3630    2.8380    0.0000 C.ar    1  LIG1        0.0142
     34 C          -0.2580    1.2750    0.0000 C.3     1  LIG1        0.1123
     35 C          -0.0330    0.3250    0.0000 C.3     1  LIG1        0.1151
     36 O           0.2290   -1.4380    0.0000 O.2     1  LIG1       -0.2698
@<TRIPOS>BOND
     1     1     2   ar
     2     1     5   ar
     3     1    22    1
     4     2     3   ar
     5     2    12    1
     6     3     4   ar
     7     4     5   ar
     8     4     9   ar
     9     5     6   ar
    10     6     7   ar
    11     7     8   ar
    12     7    10    1
    13     8     9   ar
    14    10    11    1
    15    12    13    1
    16    13    14    1
    17    14    15   ar
    18    14    19   ar
    19    15    16   ar
    20    16    17   ar
    21    17    18   ar
    22    17    20    1
    23    18    19   ar
    24    20    21    1
    25    22    23   am
    26    22    36    2
    27    23    24    1
    28    23    35    1
    29    24    25    1
    30    25    26    1
    31    26    27    1
    32    26    34    1
    33    27    28   ar
    34    27    33   ar
    35    28    29    1
    36    28    30   ar
    37    30    31   ar
    38    31    32   ar
    39    32    33   ar
    40    34    35    1
