@<TRIPOS>MOLECULE
33782_ChemDiv_8011-9507
 20 23 0 0 0
SMALL
GASTEIGER
Energy = 0

@<TRIPOS>ATOM
      1 C           0.4000    0.7580    0.0000 C.ar    1  LIG1        0.1109
      2 C          -0.4670    0.2670    0.0000 C.ar    1  LIG1        0.1578
      3 O          -0.4670   -0.7500    0.0000 O.2     1  LIG1       -0.4207
      4 C           0.4170   -1.2420    0.0000 C.ar    1  LIG1        0.3457
      5 C           1.2960   -0.7500    0.0000 C.ar    1  LIG1        0.0763
      6 C           1.2960    0.2670    0.0000 C.ar    1  LIG1        0.0155
      7 C           2.1750    0.7580    0.0000 C.ar    1  LIG1        0.0005
      8 C           3.0540    0.2670    0.0000 C.ar    1  LIG1        0.0000
      9 C           3.0540   -0.7500    0.0000 C.ar    1  LIG1        0.0002
     10 C           2.1750   -1.2420    0.0000 C.ar    1  LIG1        0.0065
     11 O           0.4170   -2.2250    0.0000 O.2     1  LIG1       -0.2445
     12 C          -1.3290    0.7580    0.0000 C.ar    1  LIG1        0.0695
     13 C          -1.3290    1.7420    0.0000 C.ar    1  LIG1        0.1516
     14 O          -0.4670    2.2290    0.0000 O.2     1  LIG1       -0.4209
     15 C           0.4000    1.7420    0.0000 C.ar    1  LIG1        0.3487
     16 O           1.2670    2.2290    0.0000 O.2     1  LIG1       -0.2444
     17 C          -2.1920    2.2290    0.0000 C.ar    1  LIG1        0.0377
     18 C          -3.0580    1.7420    0.0000 C.ar    1  LIG1        0.0031
     19 C          -3.0580    0.7580    0.0000 C.ar    1  LIG1        0.0003
     20 C          -2.1920    0.2670    0.0000 C.ar    1  LIG1        0.0061
@<TRIPOS>BOND
     1     1     2   ar
     2     1     6   ar
     3     1    15   ar
     4     2     3   ar
     5     2    12   ar
     6     3     4   ar
     7     4     5   ar
     8     4    11    2
     9     5     6   ar
    10     5    10   ar
    11     6     7   ar
    12     7     8   ar
    13     8     9   ar
    14     9    10   ar
    15    12    13   ar
    16    12    20   ar
    17    13    14   ar
    18    13    17   ar
    19    14    15   ar
    20    15    16    2
    21    17    18   ar
    22    18    19   ar
    23    19    20   ar
