@<TRIPOS>MOLECULE
33788_ChemDiv_8011-9690
 15 15 0 0 0
SMALL
GASTEIGER
Energy = 0

@<TRIPOS>ATOM
      1 N          -1.9750   -0.8630    0.0000 N.ar    1  LIG1       -0.1716
      2 C          -0.9830   -0.8630    0.0000 C.ar    1  LIG1        0.3515
      3 N          -0.4790    0.0000    0.0000 N.ar    1  LIG1       -0.2757
      4 C          -0.9960    0.8710    0.0000 C.ar    1  LIG1        0.1124
      5 C          -1.9880    0.8710    0.0000 C.ar    1  LIG1        0.1920
      6 C          -2.4920    0.0000    0.0000 C.ar    1  LIG1        0.2030
      7 N          -3.4830    0.0000    0.0000 N.pl3   1  LIG1       -0.1046
      8 F          -2.4790    1.7330    0.0000 F       1  LIG1       -0.1995
      9 C           0.5130    0.0000    0.0000 C.3     1  LIG1        0.1224
     10 C           1.0040   -0.8540    0.0000 C.3     1  LIG1        0.1341
     11 C           1.9960   -0.8540    0.0000 C.2     1  LIG1        0.3191
     12 O           2.4960   -1.7290    0.0000 O.2     1  LIG1       -0.2500
     13 O           2.4290    0.0250    0.0000 O.3     1  LIG1       -0.4443
     14 C           3.4790    0.0170    0.0000 C.3     1  LIG1        0.2556
     15 O          -0.4880   -1.7290    0.0000 O.2     1  LIG1       -0.2444
@<TRIPOS>BOND
     1     1     2   ar
     2     1     6   ar
     3     2     3   ar
     4     2    15    2
     5     3     4   ar
     6     3     9    1
     7     4     5   ar
     8     5     6   ar
     9     5     8    1
    10     6     7    1
    11     9    10    1
    12    10    11    1
    13    11    12    2
    14    11    13    1
    15    13    14    1
