@<TRIPOS>MOLECULE
33790_ChemDiv_8011-9815
 27 29 0 0 0
SMALL
GASTEIGER
Energy = 0

@<TRIPOS>ATOM
      1 N          -1.4500   -0.4790    0.0000 N.ar    1  LIG1       -0.3268
      2 C          -0.9330    0.3790    0.0000 C.ar    1  LIG1        0.0338
      3 C          -1.4210    1.2330    0.0000 C.ar    1  LIG1       -0.0073
      4 C          -2.8920    0.3790    0.0000 C.ar    1  LIG1        0.0130
      5 C          -2.4380   -0.4790    0.0000 C.ar    1  LIG1        0.0596
      6 C          -2.9210   -1.2880    0.0000 C.ar    1  LIG1        0.0172
      7 C          -3.8790   -1.2880    0.0000 C.ar    1  LIG1        0.0015
      8 C          -4.3630   -0.4790    0.0000 C.ar    1  LIG1        0.0001
      9 C          -3.8920    0.3790    0.0000 C.ar    1  LIG1        0.0012
     10 C          -0.9380    2.0880    0.0000 C.3     1  LIG1        0.0509
     11 C           0.0250    2.0880    0.0000 C.3     1  LIG1        0.1198
     12 N           0.5040    1.2500    0.0000 N.am    1  LIG1       -0.2051
     13 C           1.4750    1.2500    0.0000 C.2     1  LIG1        0.2418
     14 O           1.9540    2.1040    0.0000 O.2     1  LIG1       -0.2733
     15 C           1.9670    0.4040    0.0000 C.3     1  LIG1        0.0927
     16 C           2.9170    0.4040    0.0000 C.3     1  LIG1        0.0513
     17 C           3.3920    1.2500    0.0000 C.2     1  LIG1        0.0508
     18 O           2.9170    2.1250    0.0000 O.co2   1  LIG1       -0.5492
     19 O           4.3580    1.2500    0.0000 O.co2   1  LIG1       -0.5492
     20 C           0.0750    0.3790    0.0000 C.3     1  LIG1        0.0497
     21 C          -0.9330   -1.2790    0.0000 C.3     1  LIG1        0.1324
     22 C           0.0290   -1.2790    0.0000 C.ar    1  LIG1        0.0004
     23 C           0.5380   -0.4290    0.0000 C.ar    1  LIG1       -0.0024
     24 C           1.5330   -0.4290    0.0000 C.ar    1  LIG1       -0.0003
     25 C           2.0080   -1.2790    0.0000 C.ar    1  LIG1       -0.0000
     26 C           1.5080   -2.1210    0.0000 C.ar    1  LIG1       -0.0003
     27 C           0.5380   -2.1210    0.0000 C.ar    1  LIG1       -0.0024
@<TRIPOS>BOND
     1     1     2   ar
     2     1     5   ar
     3     1    21    1
     4     2     3   ar
     5     2    20    1
     6     3     4   ar
     7     3    10    1
     8     4     5   ar
     9     4     9   ar
    10     5     6   ar
    11     6     7   ar
    12     7     8   ar
    13     8     9   ar
    14    10    11    1
    15    11    12    1
    16    12    13   am
    17    13    14    2
    18    13    15    1
    19    15    16    1
    20    16    17    1
    21    17    18   ar
    22    17    19   ar
    23    21    22    1
    24    22    23   ar
    25    22    27   ar
    26    23    24   ar
    27    24    25   ar
    28    25    26   ar
    29    26    27   ar
