@<TRIPOS>MOLECULE
33794_ChemDiv_8016-2636
 30 34 0 0 0
SMALL
GASTEIGER
Energy = 0

@<TRIPOS>ATOM
      1 S           3.8290    0.3500    0.0000 S.O2    1  LIG1        0.0633
      2 N           4.8290    0.4580    0.0000 N.3     1  LIG1       -0.1555
      3 C           5.4920   -0.2790    0.0000 C.3     1  LIG1        0.0958
      4 C           6.4040    0.1250    0.0000 C.3     1  LIG1        0.0206
      5 C           6.2920    1.1210    0.0000 C.3     1  LIG1        0.0206
      6 C           5.3170    1.3080    0.0000 C.3     1  LIG1        0.0958
      7 C           2.8420    0.2380    0.0000 C.ar    1  LIG1        0.1222
      8 C           2.2500    1.0500    0.0000 C.ar    1  LIG1        0.0201
      9 C           1.2500    0.9460    0.0000 C.ar    1  LIG1        0.0059
     10 C           0.8420    0.0250    0.0000 C.ar    1  LIG1        0.0555
     11 C          -0.1500   -0.0880    0.0000 C.2     1  LIG1        0.2690
     12 N          -0.7420    0.7330    0.0000 N.am    1  LIG1       -0.1753
     13 C          -1.7380    0.6210    0.0000 C.ar    1  LIG1        0.0767
     14 C          -2.1500   -0.3000    0.0000 C.ar    1  LIG1        0.0541
     15 C          -3.1380   -0.4000    0.0000 C.ar    1  LIG1        0.1466
     16 O          -3.7250   -1.2130    0.0000 O.2     1  LIG1       -0.4535
     17 C          -4.6790   -0.9040    0.0000 C.ar    1  LIG1        0.1453
     18 C          -4.6790    0.1000    0.0000 C.ar    1  LIG1        0.0375
     19 C          -3.7250    0.4080    0.0000 C.ar    1  LIG1        0.0376
     20 C          -3.3250    1.3080    0.0000 C.ar    1  LIG1        0.0045
     21 C          -2.3290    1.4210    0.0000 C.ar    1  LIG1        0.0168
     22 C          -5.5500    0.6000    0.0000 C.ar    1  LIG1        0.0031
     23 C          -6.4040    0.0960    0.0000 C.ar    1  LIG1        0.0002
     24 C          -6.4040   -0.9040    0.0000 C.ar    1  LIG1        0.0031
     25 C          -5.5500   -1.4170    0.0000 C.ar    1  LIG1        0.0375
     26 O          -0.5540   -1.0000    0.0000 O.2     1  LIG1       -0.2680
     27 C           1.4420   -0.7880    0.0000 C.ar    1  LIG1        0.0059
     28 C           2.4290   -0.6790    0.0000 C.ar    1  LIG1        0.0201
     29 O           3.7380    1.3330    0.0000 O.2     1  LIG1       -0.1528
     30 O           3.9290   -0.6500    0.0000 O.2     1  LIG1       -0.1528
@<TRIPOS>BOND
     1     1     2    1
     2     1     7    1
     3     1    29    2
     4     1    30    2
     5     2     3    1
     6     2     6    1
     7     3     4    1
     8     4     5    1
     9     5     6    1
    10     7     8   ar
    11     7    28   ar
    12     8     9   ar
    13     9    10   ar
    14    10    11    1
    15    10    27   ar
    16    11    12   am
    17    11    26    2
    18    12    13    1
    19    13    14   ar
    20    13    21   ar
    21    14    15   ar
    22    15    16   ar
    23    15    19   ar
    24    16    17   ar
    25    17    18   ar
    26    17    25   ar
    27    18    19   ar
    28    18    22   ar
    29    19    20   ar
    30    20    21   ar
    31    22    23   ar
    32    23    24   ar
    33    24    25   ar
    34    27    28   ar
