@<TRIPOS>MOLECULE
33798_ChemDiv_8012-4220
 28 32 0 0 0
SMALL
GASTEIGER
Energy = 0

@<TRIPOS>ATOM
      1 S          -3.2460    0.4790    0.0000 S.O2    1  LIG1        0.0770
      2 N          -1.5670    0.4790    0.0000 N.pl3   1  LIG1       -0.1828
      3 C          -1.5670   -0.4790    0.0000 C.ar    1  LIG1        0.0706
      4 C          -2.4000   -0.9670    0.0000 C.ar    1  LIG1        0.0338
      5 C          -3.2460   -0.4790    0.0000 C.ar    1  LIG1        0.1266
      6 C          -4.0790   -0.9670    0.0000 C.ar    1  LIG1        0.0202
      7 C          -4.0790   -1.9170    0.0000 C.ar    1  LIG1        0.0014
      8 C          -3.2460   -2.3960    0.0000 C.ar    1  LIG1        0.0001
      9 C          -2.4000   -1.9170    0.0000 C.ar    1  LIG1        0.0025
     10 C          -1.5670   -2.3960    0.0000 C.ar    1  LIG1        0.0001
     11 C          -0.7290   -1.9170    0.0000 C.ar    1  LIG1        0.0013
     12 C          -0.7290   -0.9670    0.0000 C.ar    1  LIG1        0.0162
     13 C          -0.7290    0.9540    0.0000 C.3     1  LIG1        0.1812
     14 C           0.1670    0.4670    0.0000 C.ar    1  LIG1        0.1668
     15 N           1.0080    0.9380    0.0000 N.ar    1  LIG1       -0.1968
     16 C           1.8630    0.4670    0.0000 C.ar    1  LIG1        0.2237
     17 N           1.8630   -0.5130    0.0000 N.ar    1  LIG1       -0.1782
     18 C           1.0080   -0.9920    0.0000 C.ar    1  LIG1        0.2601
     19 N           0.1670   -0.5130    0.0000 N.ar    1  LIG1       -0.1942
     20 N           1.0080   -1.9460    0.0000 N.pl3   1  LIG1       -0.0859
     21 N           2.7000    0.9380    0.0000 N.pl3   1  LIG1       -0.2781
     22 C           3.5420    0.4670    0.0000 C.3     1  LIG1        0.0936
     23 C           4.3790    0.9380    0.0000 C.3     1  LIG1        0.0216
     24 C           4.3790    1.9290    0.0000 C.3     1  LIG1        0.0035
     25 C           3.5420    2.4000    0.0000 C.3     1  LIG1        0.0216
     26 C           2.7000    1.9290    0.0000 C.3     1  LIG1        0.0936
     27 O          -3.2330    1.5880    0.0000 O.2     1  LIG1       -0.1497
     28 O          -4.3830    0.4710    0.0000 O.2     1  LIG1       -0.1497
@<TRIPOS>BOND
     1     1     2    1
     2     1     5    1
     3     1    27    2
     4     1    28    2
     5     2     3    1
     6     2    13    1
     7     3     4   ar
     8     3    12   ar
     9     4     5   ar
    10     4     9   ar
    11     5     6   ar
    12     6     7   ar
    13     7     8   ar
    14     8     9   ar
    15     9    10   ar
    16    10    11   ar
    17    11    12   ar
    18    13    14    1
    19    14    15   ar
    20    14    19   ar
    21    15    16   ar
    22    16    17   ar
    23    16    21    1
    24    17    18   ar
    25    18    19   ar
    26    18    20    1
    27    21    22    1
    28    21    26    1
    29    22    23    1
    30    23    24    1
    31    24    25    1
    32    25    26    1
