@<TRIPOS>MOLECULE
33795_ChemDiv_8010-2455
 15 17 0 0 0
SMALL
GASTEIGER
Energy = 0

@<TRIPOS>ATOM
      1 C           0.6790    0.0380    0.0000 C.3     1  LIG1        0.2954
      2 O           1.2380   -0.7710    0.0000 O.3     1  LIG1       -0.4133
      3 C           0.6750   -1.6130    0.0000 C.2     1  LIG1        0.3437
      4 C          -0.2540   -1.2880    0.0000 C.ar    1  LIG1        0.0785
      5 C          -0.2540   -0.2580    0.0000 C.ar    1  LIG1        0.0596
      6 C          -1.1210    0.2210    0.0000 C.ar    1  LIG1        0.0029
      7 C          -1.9830   -0.2580    0.0000 C.ar    1  LIG1       -0.0001
      8 C          -1.9830   -1.2880    0.0000 C.ar    1  LIG1        0.0002
      9 C          -1.1210   -1.8000    0.0000 C.ar    1  LIG1        0.0064
     10 O           1.0130   -2.5540    0.0000 O.2     1  LIG1       -0.2448
     11 O           0.3630    0.9960    0.0000 O.3     1  LIG1       -0.4164
     12 C           1.1630    1.5630    0.0000 C.2     1  LIG1        0.3198
     13 O           1.1580    2.5580    0.0000 O.2     1  LIG1       -0.2500
     14 C           1.9790    0.9960    0.0000 C.3     1  LIG1        0.1176
     15 C           1.6670    0.0170    0.0000 C.3     1  LIG1        0.1005
@<TRIPOS>BOND
     1     1     2    1
     2     1     5    1
     3     1    11    1
     4     1    15    1
     5     2     3    1
     6     3     4    1
     7     3    10    2
     8     4     5   ar
     9     4     9   ar
    10     5     6   ar
    11     6     7   ar
    12     7     8   ar
    13     8     9   ar
    14    11    12    1
    15    12    13    2
    16    12    14    1
    17    14    15    1
