@<TRIPOS>MOLECULE
33792_ChemDiv_8012-0026
 26 29 0 0 0
SMALL
GASTEIGER
Energy = 0

@<TRIPOS>ATOM
      1 N           0.0080   -0.7460    0.0000 N.3     1  LIG1       -0.1402
      2 S           0.9880   -0.7460    0.0000 S.O2    1  LIG1        0.0644
      3 C           1.9380   -0.7460    0.0000 C.ar    1  LIG1        0.1222
      4 C           2.4420    0.1040    0.0000 C.ar    1  LIG1        0.0196
      5 C           3.4080    0.1040    0.0000 C.ar    1  LIG1       -0.0029
      6 C           3.9040   -0.7460    0.0000 C.ar    1  LIG1       -0.0218
      7 C           3.4080   -1.6040    0.0000 C.ar    1  LIG1       -0.0029
      8 C           2.4420   -1.6040    0.0000 C.ar    1  LIG1        0.0196
      9 C           4.8710   -0.7460    0.0000 C.3     1  LIG1        0.0310
     10 O           0.9880    0.2130    0.0000 O.2     1  LIG1       -0.1527
     11 O           0.9880   -1.7500    0.0000 O.2     1  LIG1       -0.1527
     12 C          -0.4630    0.0830    0.0000 C.3     1  LIG1        0.1388
     13 N          -1.4580    0.0830    0.0000 N.3     1  LIG1       -0.2560
     14 C          -1.9420   -0.7460    0.0000 C.3     1  LIG1        0.0988
     15 C          -0.4630   -1.6210    0.0000 C.3     1  LIG1        0.1177
     16 C          -2.9000   -0.7460    0.0000 C.ar    1  LIG1       -0.0102
     17 C          -3.4000    0.1330    0.0000 C.ar    1  LIG1       -0.0234
     18 C          -2.8790    0.9420    0.0000 C.3     1  LIG1        0.0434
     19 C          -1.9290    0.9420    0.0000 C.3     1  LIG1        0.0783
     20 C          -4.3670    0.1330    0.0000 C.ar    1  LIG1       -0.0045
     21 C          -4.8750   -0.6960    0.0000 C.ar    1  LIG1       -0.0003
     22 C          -4.3920   -1.5630    0.0000 C.ar    1  LIG1       -0.0003
     23 C          -3.4290   -1.5630    0.0000 C.ar    1  LIG1       -0.0032
     24 C           0.0460    0.9000    0.0000 C.3     1  LIG1        0.0317
     25 C          -0.4210    1.7540    0.0000 C.3     1  LIG1        0.0029
     26 C           1.0210    0.9000    0.0000 C.3     1  LIG1        0.0029
@<TRIPOS>BOND
     1     1     2    1
     2     1    12    1
     3     1    15    1
     4     2     3    1
     5     2    10    2
     6     2    11    2
     7     3     4   ar
     8     3     8   ar
     9     4     5   ar
    10     5     6   ar
    11     6     7   ar
    12     6     9    1
    13     7     8   ar
    14    12    13    1
    15    12    24    1
    16    13    14    1
    17    13    19    1
    18    14    15    1
    19    14    16    1
    20    16    17   ar
    21    16    23   ar
    22    17    18    1
    23    17    20   ar
    24    18    19    1
    25    20    21   ar
    26    21    22   ar
    27    22    23   ar
    28    24    25    1
    29    24    26    1
