@<TRIPOS>MOLECULE
33796_ChemDiv_8012-4200
 30 34 0 0 0
SMALL
GASTEIGER
Energy = 0

@<TRIPOS>ATOM
      1 N          -3.0330   -2.7500    0.0000 N.ar    1  LIG1       -0.2860
      2 C          -3.0330   -1.7670    0.0000 C.ar    1  LIG1        0.1936
      3 N          -3.9920   -1.4630    0.0000 N.ar    1  LIG1       -0.1220
      4 N          -4.5580   -2.2420    0.0000 N.ar    1  LIG1       -0.1250
      5 C          -3.9920   -3.0580    0.0000 C.ar    1  LIG1        0.2031
      6 S          -2.1750   -1.2500    0.0000 S.3     1  LIG1       -0.0708
      7 C          -1.3130   -1.7670    0.0000 C.3     1  LIG1        0.0913
      8 C          -0.4460   -1.2500    0.0000 C.ar    1  LIG1       -0.0109
      9 C           0.4250   -1.7290    0.0000 C.ar    1  LIG1       -0.0034
     10 C           1.2920   -1.2500    0.0000 C.ar    1  LIG1       -0.0034
     11 C           1.2920   -0.2290    0.0000 C.ar    1  LIG1       -0.0109
     12 C           0.4250    0.2380    0.0000 C.ar    1  LIG1       -0.0034
     13 C          -0.4460   -0.2290    0.0000 C.ar    1  LIG1       -0.0034
     14 C          -1.3130    0.2380    0.0000 C.ar    1  LIG1       -0.0003
     15 C          -1.3130    1.2630    0.0000 C.ar    1  LIG1       -0.0000
     16 C          -0.4460    1.7420    0.0000 C.ar    1  LIG1       -0.0000
     17 C           0.4250    1.2630    0.0000 C.ar    1  LIG1       -0.0003
     18 C           2.1630    0.2790    0.0000 C.3     1  LIG1        0.0913
     19 S           2.1630    1.2630    0.0000 S.3     1  LIG1       -0.0708
     20 C           3.0210    1.7750    0.0000 C.ar    1  LIG1        0.1936
     21 N           3.0210    2.7710    0.0000 N.ar    1  LIG1       -0.2860
     22 C           3.9790    3.0710    0.0000 C.ar    1  LIG1        0.2031
     23 N           4.5540    2.2460    0.0000 N.ar    1  LIG1       -0.1250
     24 N           3.9790    1.4630    0.0000 N.ar    1  LIG1       -0.1220
     25 C           2.2210    3.3750    0.0000 C.3     1  LIG1        0.1341
     26 C           2.1630   -1.7290    0.0000 C.ar    1  LIG1       -0.0003
     27 C           2.1630   -2.7500    0.0000 C.ar    1  LIG1       -0.0000
     28 C           1.2920   -3.2330    0.0000 C.ar    1  LIG1       -0.0000
     29 C           0.4250   -2.7500    0.0000 C.ar    1  LIG1       -0.0003
     30 C          -2.2380   -3.3710    0.0000 C.3     1  LIG1        0.1341
@<TRIPOS>BOND
     1     1     2   ar
     2     1     5   ar
     3     1    30    1
     4     2     3   ar
     5     2     6    1
     6     3     4   ar
     7     4     5   ar
     8     6     7    1
     9     7     8    1
    10     8     9   ar
    11     8    13   ar
    12     9    10   ar
    13     9    29   ar
    14    10    11   ar
    15    10    26   ar
    16    11    12   ar
    17    11    18    1
    18    12    13   ar
    19    12    17   ar
    20    13    14   ar
    21    14    15   ar
    22    15    16   ar
    23    16    17   ar
    24    18    19    1
    25    19    20    1
    26    20    21   ar
    27    20    24   ar
    28    21    22   ar
    29    21    25    1
    30    22    23   ar
    31    23    24   ar
    32    26    27   ar
    33    27    28   ar
    34    28    29   ar
