@<TRIPOS>MOLECULE
33807_ChemDiv_8010-3945
 16 18 0 0 0
SMALL
GASTEIGER
Energy = 0

@<TRIPOS>ATOM
      1 N           1.4170    0.2290    0.0000 N.am    1  LIG1       -0.1758
      2 C           1.4170    1.2460    0.0000 C.2     1  LIG1        0.3841
      3 N           0.5460    1.7420    0.0000 N.2     1  LIG1        0.1024
      4 C          -0.3250    1.2210    0.0000 C.3     1  LIG1        0.5006
      5 N          -0.3250    0.2540    0.0000 N.pl3   1  LIG1       -0.2191
      6 C           0.5460   -0.2670    0.0000 C.3     1  LIG1        0.2055
      7 C          -1.1880   -0.2500    0.0000 C.ar    1  LIG1        0.0549
      8 C          -2.0540    0.2540    0.0000 C.ar    1  LIG1        0.0147
      9 C          -2.9330   -0.2500    0.0000 C.ar    1  LIG1        0.0013
     10 C          -2.9330   -1.2420    0.0000 C.ar    1  LIG1        0.0001
     11 C          -2.0540   -1.7380    0.0000 C.ar    1  LIG1        0.0013
     12 C          -1.1880   -1.2420    0.0000 C.ar    1  LIG1        0.0147
     13 S           2.3710    1.5330    0.0000 S.3     1  LIG1       -0.0132
     14 C           2.9290    0.7040    0.0000 C.3     1  LIG1        0.1550
     15 C           2.3710   -0.0630    0.0000 C.2     1  LIG1        0.2469
     16 O           2.7210   -1.0380    0.0000 O.2     1  LIG1       -0.2734
@<TRIPOS>BOND
     1     1     2    1
     2     1     6    1
     3     1    15   am
     4     2     3    2
     5     2    13    1
     6     3     4    1
     7     4     5    1
     8     5     6    1
     9     5     7    1
    10     7     8   ar
    11     7    12   ar
    12     8     9   ar
    13     9    10   ar
    14    10    11   ar
    15    11    12   ar
    16    13    14    1
    17    14    15    1
    18    15    16    2
