@<TRIPOS>MOLECULE
33808_ChemDiv_D012-0100
 20 21 0 0 0
SMALL
GASTEIGER
Energy = 0

@<TRIPOS>ATOM
      1 S          -0.5750   -0.2040    0.0000 S.O2    1  LIG1        0.0633
      2 N          -1.4380   -0.7040    0.0000 N.3     1  LIG1       -0.1555
      3 C          -1.1750   -1.6670    0.0000 C.3     1  LIG1        0.0958
      4 C          -1.6750   -2.5290    0.0000 C.3     1  LIG1        0.0191
      5 C          -2.6420   -2.7960    0.0000 C.3     1  LIG1        0.0015
      6 C          -3.5080   -2.2960    0.0000 C.3     1  LIG1        0.0001
      7 C          -3.7750   -1.3290    0.0000 C.3     1  LIG1        0.0015
      8 C          -3.2750   -0.4710    0.0000 C.3     1  LIG1        0.0191
      9 C          -2.3080   -0.2040    0.0000 C.3     1  LIG1        0.0958
     10 C           0.3040    0.3000    0.0000 C.ar    1  LIG1        0.1222
     11 C           1.1630   -0.2000    0.0000 C.ar    1  LIG1        0.0199
     12 C           2.0250    0.3000    0.0000 C.ar    1  LIG1        0.0025
     13 C           2.0250    1.2920    0.0000 C.ar    1  LIG1        0.0141
     14 C           2.9000    1.8040    0.0000 C.2     1  LIG1        0.0729
     15 O           2.8920    2.8000    0.0000 O.co2   1  LIG1       -0.5446
     16 O           3.7710    1.3040    0.0000 O.co2   1  LIG1       -0.5446
     17 C           1.1630    1.7920    0.0000 C.ar    1  LIG1        0.0025
     18 C           0.3040    1.2960    0.0000 C.ar    1  LIG1        0.0199
     19 O          -0.0670   -1.0750    0.0000 O.2     1  LIG1       -0.1528
     20 O          -1.0710    0.6710    0.0000 O.2     1  LIG1       -0.1528
@<TRIPOS>BOND
     1     1     2    1
     2     1    10    1
     3     1    19    2
     4     1    20    2
     5     2     3    1
     6     2     9    1
     7     3     4    1
     8     4     5    1
     9     5     6    1
    10     6     7    1
    11     7     8    1
    12     8     9    1
    13    10    11   ar
    14    10    18   ar
    15    11    12   ar
    16    12    13   ar
    17    13    14    1
    18    13    17   ar
    19    14    15   ar
    20    14    16   ar
    21    17    18   ar
