@<TRIPOS>MOLECULE
33803_ChemDiv_8010-3566
 23 25 0 0 0
SMALL
GASTEIGER
Energy = 0

@<TRIPOS>ATOM
      1 N          -2.1630    1.2790    0.0000 N.ar    1  LIG1       -0.1420
      2 N          -3.0290    1.7670    0.0000 N.ar    1  LIG1       -0.1519
      3 C          -3.8830    1.2790    0.0000 C.ar    1  LIG1        0.0809
      4 C          -3.8830    0.2790    0.0000 C.ar    1  LIG1        0.0173
      5 C          -3.0290   -0.2290    0.0000 C.ar    1  LIG1        0.0265
      6 C          -2.1630    0.2790    0.0000 C.ar    1  LIG1        0.1287
      7 S          -1.2960   -0.2290    0.0000 S.3     1  LIG1       -0.0833
      8 C          -0.4080    0.2540    0.0000 C.3     1  LIG1        0.1505
      9 C           0.4580   -0.2580    0.0000 C.2     1  LIG1        0.2570
     10 N           1.3210    0.2290    0.0000 N.am    1  LIG1       -0.1785
     11 C           2.1790   -0.2580    0.0000 C.ar    1  LIG1        0.0736
     12 C           2.1790   -1.2710    0.0000 C.ar    1  LIG1        0.0199
     13 C           3.0540   -1.7580    0.0000 C.ar    1  LIG1        0.0434
     14 C           3.9170   -1.2790    0.0000 C.ar    1  LIG1        0.1958
     15 C           3.9170   -0.2880    0.0000 C.ar    1  LIG1        0.0434
     16 C           3.0540    0.2290    0.0000 C.ar    1  LIG1        0.0199
     17 O           4.7580   -1.7960    0.0000 O.3     1  LIG1       -0.2866
     18 O           0.4580   -1.2420    0.0000 O.2     1  LIG1       -0.2720
     19 C          -3.0290   -1.2420    0.0000 C.ar    1  LIG1        0.0021
     20 C          -3.8830   -1.7380    0.0000 C.ar    1  LIG1        0.0001
     21 C          -4.7630   -1.2420    0.0000 C.ar    1  LIG1        0.0000
     22 C          -4.7630   -0.2290    0.0000 C.ar    1  LIG1        0.0013
     23 C          -4.7630    1.8000    0.0000 C.3     1  LIG1        0.0540
@<TRIPOS>BOND
     1     1     2   ar
     2     1     6   ar
     3     2     3   ar
     4     3     4   ar
     5     3    23    1
     6     4     5   ar
     7     4    22   ar
     8     5     6   ar
     9     5    19   ar
    10     6     7    1
    11     7     8    1
    12     8     9    1
    13     9    10   am
    14     9    18    2
    15    10    11    1
    16    11    12   ar
    17    11    16   ar
    18    12    13   ar
    19    13    14   ar
    20    14    15   ar
    21    14    17    1
    22    15    16   ar
    23    19    20   ar
    24    20    21   ar
    25    21    22   ar
