@<TRIPOS>MOLECULE
33805_ChemDiv_8010-3760
 16 17 0 0 0
SMALL
GASTEIGER
Energy = 0

@<TRIPOS>ATOM
      1 C           0.1420    0.4130    0.0000 C.3     1  LIG1        0.1157
      2 C           0.1420   -0.5750    0.0000 C.3     1  LIG1        0.1157
      3 C          -0.7040   -0.0670    0.0000 C.3     1  LIG1        0.0263
      4 C          -1.6670    0.1880    0.0000 C.3     1  LIG1        0.0017
      5 C          -1.6670   -0.6040    0.0000 C.3     1  LIG1        0.0017
      6 C           1.1000   -0.8880    0.0000 C.2     1  LIG1        0.2527
      7 N           1.6630   -0.0960    0.0000 N.am    1  LIG1       -0.1442
      8 C           1.1000    0.7250    0.0000 C.2     1  LIG1        0.2527
      9 O           1.4380    1.6790    0.0000 O.2     1  LIG1       -0.2725
     10 O           1.4380   -1.8170    0.0000 O.2     1  LIG1       -0.2725
     11 C           0.1420   -1.5630    0.0000 C.2     1  LIG1        0.0588
     12 O           0.9830   -2.0710    0.0000 O.co2   1  LIG1       -0.5487
     13 O          -0.7330   -2.0710    0.0000 O.co2   1  LIG1       -0.5487
     14 C          -0.0540    1.4000    0.0000 C.2     1  LIG1        0.0588
     15 O          -0.9880    1.7080    0.0000 O.co2   1  LIG1       -0.5487
     16 O           0.6750    2.0750    0.0000 O.co2   1  LIG1       -0.5487
@<TRIPOS>BOND
     1     1     2    1
     2     1     3    1
     3     1     8    1
     4     1    14    1
     5     2     3    1
     6     2     6    1
     7     2    11    1
     8     3     4    1
     9     3     5    1
    10     6     7   am
    11     6    10    2
    12     7     8   am
    13     8     9    2
    14    11    12   ar
    15    11    13   ar
    16    14    15   ar
    17    14    16   ar
