@<TRIPOS>MOLECULE
33806_ChemDiv_8016-7610
 24 27 0 0 0
SMALL
GASTEIGER
Energy = 0

@<TRIPOS>ATOM
      1 S           0.1000    0.8750    0.0000 S.O2    1  LIG1        0.0768
      2 N          -0.9000    0.8750    0.0000 N.3     1  LIG1       -0.0807
      3 C          -1.9040    0.9000    0.0000 C.3     1  LIG1        0.0826
      4 C          -2.1830    1.7750    0.0000 C.3     1  LIG1        0.0179
      5 C          -3.1580    1.8000    0.0000 C.3     1  LIG1        0.0014
      6 C          -3.9710    2.5920    0.0000 C.3     1  LIG1        0.0001
      7 C          -3.7210    1.6130    0.0000 C.3     1  LIG1        0.0014
      8 C          -2.6880    1.5880    0.0000 C.3     1  LIG1        0.0179
      9 C          -4.1000    0.7130    0.0000 C.3     1  LIG1        0.0001
     10 C          -3.2830    0.0210    0.0000 C.3     1  LIG1        0.0014
     11 C          -2.2830   -0.0040    0.0000 C.3     1  LIG1        0.0179
     12 C          -3.4960    0.9380    0.0000 C.3     1  LIG1        0.0001
     13 C           1.0960    0.8750    0.0000 C.ar    1  LIG1        0.1267
     14 C           1.6080    0.0080    0.0000 C.ar    1  LIG1        0.0592
     15 C           2.6040    0.0170    0.0000 C.ar    1  LIG1        0.1671
     16 C           3.0960    0.8880    0.0000 C.ar    1  LIG1        0.1739
     17 C           2.5830    1.7500    0.0000 C.ar    1  LIG1        0.0341
     18 C           1.5920    1.7420    0.0000 C.ar    1  LIG1        0.0225
     19 F           4.0960    0.8920    0.0000 F       1  LIG1       -0.2010
     20 O           3.1080   -0.8540    0.0000 O.3     1  LIG1       -0.4732
     21 C           2.6080   -1.7170    0.0000 C.3     1  LIG1        0.2056
     22 C           3.1170   -2.5880    0.0000 C.3     1  LIG1        0.0512
     23 O           0.0960   -0.1290    0.0000 O.2     1  LIG1       -0.1516
     24 O           0.1210    1.8750    0.0000 O.2     1  LIG1       -0.1516
@<TRIPOS>BOND
     1     1     2    1
     2     1    13    1
     3     1    23    2
     4     1    24    2
     5     2     3    1
     6     3     4    1
     7     3     8    1
     8     3    11    1
     9     4     5    1
    10     5     6    1
    11     5    12    1
    12     6     7    1
    13     7     8    1
    14     7     9    1
    15     9    10    1
    16    10    11    1
    17    10    12    1
    18    13    14   ar
    19    13    18   ar
    20    14    15   ar
    21    15    16   ar
    22    15    20    1
    23    16    17   ar
    24    16    19    1
    25    17    18   ar
    26    20    21    1
    27    21    22    1
