@<TRIPOS>MOLECULE
33800_ChemDiv_8012-4393
 25 27 0 0 0
SMALL
GASTEIGER
Energy = 0

@<TRIPOS>ATOM
      1 C           4.7750    0.2630    0.0000 C.2     1  LIG1        0.0729
      2 C           3.8830   -0.2460    0.0000 C.ar    1  LIG1        0.0140
      3 C           3.8830   -1.2710    0.0000 C.ar    1  LIG1        0.0008
      4 C           3.0250   -1.7500    0.0000 C.ar    1  LIG1       -0.0034
      5 C           2.1540   -1.2710    0.0000 C.ar    1  LIG1       -0.0113
      6 C           2.1540   -0.2460    0.0000 C.ar    1  LIG1       -0.0034
      7 C           3.0250    0.2290    0.0000 C.ar    1  LIG1        0.0008
      8 C           1.2920   -1.7500    0.0000 C.3     1  LIG1        0.0842
      9 S           0.4210   -1.2710    0.0000 S.3     1  LIG1       -0.1257
     10 C          -0.4330   -1.7500    0.0000 C.3     1  LIG1        0.1448
     11 C          -1.3000   -1.2710    0.0000 C.2     1  LIG1        0.2566
     12 N          -2.1540   -1.7500    0.0000 N.am    1  LIG1       -0.1785
     13 C          -3.0420   -1.2330    0.0000 C.ar    1  LIG1        0.0734
     14 C          -3.0420   -0.2460    0.0000 C.ar    1  LIG1        0.0166
     15 C          -3.9210    0.2630    0.0000 C.ar    1  LIG1        0.0013
     16 C          -4.7790   -0.2460    0.0000 C.ar    1  LIG1        0.0001
     17 C          -4.7790   -1.2330    0.0000 C.ar    1  LIG1        0.0013
     18 C          -3.9210   -1.7500    0.0000 C.ar    1  LIG1        0.0166
     19 C          -5.6540    0.2630    0.0000 C.ar    1  LIG1        0.0000
     20 C          -5.6540    1.2500    0.0000 C.ar    1  LIG1        0.0000
     21 C          -4.7790    1.7540    0.0000 C.ar    1  LIG1        0.0000
     22 C          -3.9210    1.2500    0.0000 C.ar    1  LIG1        0.0000
     23 O          -1.3000   -0.2460    0.0000 O.2     1  LIG1       -0.2720
     24 O           4.7750    1.2500    0.0000 O.co2   1  LIG1       -0.5446
     25 O           5.6500   -0.2460    0.0000 O.co2   1  LIG1       -0.5446
@<TRIPOS>BOND
     1     1     2    1
     2     1    24   ar
     3     1    25   ar
     4     2     3   ar
     5     2     7   ar
     6     3     4   ar
     7     4     5   ar
     8     5     6   ar
     9     5     8    1
    10     6     7   ar
    11     8     9    1
    12     9    10    1
    13    10    11    1
    14    11    12   am
    15    11    23    2
    16    12    13    1
    17    13    14   ar
    18    13    18   ar
    19    14    15   ar
    20    15    16   ar
    21    15    22   ar
    22    16    17   ar
    23    16    19   ar
    24    17    18   ar
    25    19    20   ar
    26    20    21   ar
    27    21    22   ar
