@<TRIPOS>MOLECULE
33802_ChemDiv_8012-4483
 32 35 0 0 0
SMALL
GASTEIGER
Energy = 0

@<TRIPOS>ATOM
      1 S           1.3130   -1.7630    0.0000 S.O2    1  LIG1        0.0768
      2 C           0.4460   -1.2380    0.0000 C.ar    1  LIG1        0.1235
      3 C           0.4460   -0.2540    0.0000 C.ar    1  LIG1        0.0200
      4 C          -0.4210    0.2330    0.0000 C.ar    1  LIG1        0.0200
      5 C          -0.4210    1.2460    0.0000 C.ar    1  LIG1        0.1235
      6 S          -1.3080    1.7460    0.0000 S.O2    1  LIG1        0.0768
      7 O          -1.7960    0.8830    0.0000 O.2     1  LIG1       -0.1516
      8 O          -0.7790    2.6210    0.0000 O.2     1  LIG1       -0.1516
      9 N          -2.1750    2.2710    0.0000 N.3     1  LIG1       -0.0778
     10 C          -3.0420    1.7460    0.0000 C.3     1  LIG1        0.1155
     11 C          -3.9040    2.2710    0.0000 C.3     1  LIG1        0.0208
     12 C          -4.7750    1.8080    0.0000 C.3     1  LIG1        0.0015
     13 C          -5.6920    2.2250    0.0000 C.3     1  LIG1        0.0000
     14 C          -6.3500    1.5080    0.0000 C.3     1  LIG1        0.0000
     15 C          -5.9040    0.6380    0.0000 C.3     1  LIG1        0.0000
     16 C          -4.8960    0.8210    0.0000 C.3     1  LIG1        0.0000
     17 C           0.4460    1.7460    0.0000 C.ar    1  LIG1        0.0200
     18 C           1.2960    1.2460    0.0000 C.ar    1  LIG1        0.0014
     19 C           1.2960    0.2330    0.0000 C.ar    1  LIG1        0.0014
     20 C          -1.2750   -0.2540    0.0000 C.ar    1  LIG1        0.0014
     21 C          -1.2750   -1.2380    0.0000 C.ar    1  LIG1        0.0014
     22 C          -0.4210   -1.7630    0.0000 C.ar    1  LIG1        0.0200
     23 O           0.8040   -2.6170    0.0000 O.2     1  LIG1       -0.1516
     24 O           1.8130   -0.8750    0.0000 O.2     1  LIG1       -0.1516
     25 N           2.1750   -2.2670    0.0000 N.3     1  LIG1       -0.0778
     26 C           3.0460   -1.7630    0.0000 C.3     1  LIG1        0.1155
     27 C           3.8960   -2.2670    0.0000 C.3     1  LIG1        0.0208
     28 C           4.7630   -1.8210    0.0000 C.3     1  LIG1        0.0015
     29 C           4.8830   -0.8170    0.0000 C.3     1  LIG1        0.0000
     30 C           5.8960   -0.6330    0.0000 C.3     1  LIG1        0.0000
     31 C           6.3500   -1.5210    0.0000 C.3     1  LIG1        0.0000
     32 C           5.7130   -2.2210    0.0000 C.3     1  LIG1        0.0000
@<TRIPOS>BOND
     1     1     2    1
     2     1    23    2
     3     1    24    2
     4     1    25    1
     5     2     3   ar
     6     2    22   ar
     7     3     4   ar
     8     3    19   ar
     9     4     5   ar
    10     4    20   ar
    11     5     6    1
    12     5    17   ar
    13     6     7    2
    14     6     8    2
    15     6     9    1
    16     9    10    1
    17    10    11    1
    18    11    12    1
    19    12    13    1
    20    12    16    1
    21    13    14    1
    22    14    15    1
    23    15    16    1
    24    17    18   ar
    25    18    19   ar
    26    20    21   ar
    27    21    22   ar
    28    25    26    1
    29    26    27    1
    30    27    28    1
    31    28    29    1
    32    28    32    1
    33    29    30    1
    34    30    31    1
    35    31    32    1
