@<TRIPOS>MOLECULE
33804_ChemDiv_8012-6072
 17 18 0 0 0
SMALL
GASTEIGER
Energy = 0

@<TRIPOS>ATOM
      1 S           0.3210    0.7750    0.0000 S.O2    1  LIG1        0.0640
      2 N           1.3290    0.7750    0.0000 N.3     1  LIG1       -0.1423
      3 C           2.1960    1.2830    0.0000 C.3     1  LIG1        0.1617
      4 C           2.6960    0.4130    0.0000 C.2     1  LIG1        0.1844
      5 C           1.8250   -0.0880    0.0000 C.3     1  LIG1        0.1386
      6 C           1.5540   -1.0540    0.0000 C.3     1  LIG1        0.0253
      7 C           2.2540   -1.7670    0.0000 C.3     1  LIG1        0.0019
      8 O           3.6630    0.1540    0.0000 O.2     1  LIG1       -0.2931
      9 C          -0.6670    0.7750    0.0000 C.ar    1  LIG1        0.1222
     10 C          -1.1670   -0.0960    0.0000 C.ar    1  LIG1        0.0196
     11 C          -2.1670   -0.0960    0.0000 C.ar    1  LIG1       -0.0029
     12 C          -2.6790    0.7750    0.0000 C.ar    1  LIG1       -0.0218
     13 C          -2.1790    1.6290    0.0000 C.ar    1  LIG1       -0.0029
     14 C          -1.1670    1.6290    0.0000 C.ar    1  LIG1        0.0196
     15 C          -3.6670    0.7750    0.0000 C.3     1  LIG1        0.0310
     16 O           0.3210    1.7710    0.0000 O.2     1  LIG1       -0.1528
     17 O           0.3210   -0.2290    0.0000 O.2     1  LIG1       -0.1528
@<TRIPOS>BOND
     1     1     2    1
     2     1     9    1
     3     1    16    2
     4     1    17    2
     5     2     3    1
     6     2     5    1
     7     3     4    1
     8     4     5    1
     9     4     8    2
    10     5     6    1
    11     6     7    1
    12     9    10   ar
    13     9    14   ar
    14    10    11   ar
    15    11    12   ar
    16    12    13   ar
    17    12    15    1
    18    13    14   ar
