@<TRIPOS>MOLECULE
33817_ChemDiv_8011-1445
 21 23 0 0 0
SMALL
GASTEIGER
Energy = 0

@<TRIPOS>ATOM
      1 C          -0.8710   -0.6580    0.0000 C.ar    1  LIG1        0.1697
      2 C          -0.8710    0.3500    0.0000 C.ar    1  LIG1        0.1540
      3 C          -1.7330    0.8580    0.0000 C.ar    1  LIG1        0.2832
      4 N          -2.6080    0.3500    0.0000 N.ar    1  LIG1       -0.2454
      5 C          -2.6080   -0.6380    0.0000 C.ar    1  LIG1        0.3350
      6 N          -1.7330   -1.1460    0.0000 N.ar    1  LIG1       -0.2628
      7 C          -1.7330   -2.1580    0.0000 C.3     1  LIG1        0.1366
      8 O          -3.4960   -1.1460    0.0000 O.2     1  LIG1       -0.2461
      9 C          -3.4960    0.8290    0.0000 C.3     1  LIG1        0.1383
     10 O          -1.7330    1.8460    0.0000 O.2     1  LIG1       -0.2652
     11 N           0.0960    0.6460    0.0000 N.ar    1  LIG1       -0.2847
     12 C           0.6670   -0.1250    0.0000 C.ar    1  LIG1        0.1814
     13 N           0.0960   -0.9580    0.0000 N.ar    1  LIG1       -0.2062
     14 C           0.4170    1.6080    0.0000 C.3     1  LIG1        0.2244
     15 N           1.3790    1.7880    0.0000 N.pl3   1  LIG1       -0.1912
     16 C           2.0330    1.0460    0.0000 C.ar    1  LIG1        0.2076
     17 N           1.9130    0.0540    0.0000 N.ar    1  LIG1       -0.0320
     18 O           2.8380   -0.3460    0.0000 O.2     1  LIG1       -0.2405
     19 N           3.4920    0.3790    0.0000 N.ar    1  LIG1       -0.0513
     20 C           3.0170    1.2540    0.0000 C.ar    1  LIG1        0.1365
     21 C           3.4250    2.1630    0.0000 C.3     1  LIG1        0.0588
@<TRIPOS>BOND
     1     1     2   ar
     2     1     6   ar
     3     1    13   ar
     4     2     3   ar
     5     2    11   ar
     6     3     4   ar
     7     3    10    2
     8     4     5   ar
     9     4     9    1
    10     5     6   ar
    11     5     8    2
    12     6     7    1
    13    11    12   ar
    14    11    14    1
    15    12    13   ar
    16    14    15    1
    17    15    16    1
    18    16    17   ar
    19    16    20   ar
    20    17    18   ar
    21    18    19   ar
    22    19    20   ar
    23    20    21    1
