@<TRIPOS>MOLECULE
33814_ChemDiv_8012-0109
 28 32 0 0 0
SMALL
GASTEIGER
Energy = 0

@<TRIPOS>ATOM
      1 N           0.4880   -1.2000    0.0000 N.3     1  LIG1       -0.1363
      2 S           1.4630   -1.2000    0.0000 S.O2    1  LIG1        0.0647
      3 O           1.4630   -0.2420    0.0000 O.2     1  LIG1       -0.1527
      4 O           1.4630   -2.2000    0.0000 O.2     1  LIG1       -0.1527
      5 C           2.4210   -1.2000    0.0000 C.ar    1  LIG1        0.1223
      6 C           2.9250   -0.3460    0.0000 C.ar    1  LIG1        0.0199
      7 C           3.8920   -0.3460    0.0000 C.ar    1  LIG1        0.0014
      8 C           4.3830   -1.2000    0.0000 C.ar    1  LIG1        0.0001
      9 C           3.8920   -2.0500    0.0000 C.ar    1  LIG1        0.0014
     10 C           2.9250   -2.0500    0.0000 C.ar    1  LIG1        0.0199
     11 C           0.0250   -0.3670    0.0000 C.3     1  LIG1        0.1621
     12 N          -0.9710   -0.3670    0.0000 N.3     1  LIG1       -0.2524
     13 C          -1.4630   -1.2000    0.0000 C.3     1  LIG1        0.0990
     14 C           0.0250   -2.0790    0.0000 C.3     1  LIG1        0.1180
     15 C          -2.4250   -1.2000    0.0000 C.ar    1  LIG1       -0.0102
     16 C          -2.9170   -0.3080    0.0000 C.ar    1  LIG1       -0.0234
     17 C          -2.4040    0.4960    0.0000 C.3     1  LIG1        0.0434
     18 C          -1.4460    0.4960    0.0000 C.3     1  LIG1        0.0786
     19 C          -3.8830   -0.3080    0.0000 C.ar    1  LIG1       -0.0045
     20 C          -4.3880   -1.1540    0.0000 C.ar    1  LIG1       -0.0003
     21 C          -3.9080   -2.0130    0.0000 C.ar    1  LIG1       -0.0003
     22 C          -2.9460   -2.0130    0.0000 C.ar    1  LIG1       -0.0032
     23 C           0.4630    0.4960    0.0000 C.ar    1  LIG1        0.0090
     24 C           1.4420    0.4960    0.0000 C.ar    1  LIG1       -0.0016
     25 C           1.9130    1.3540    0.0000 C.ar    1  LIG1       -0.0002
     26 C           1.4420    2.2040    0.0000 C.ar    1  LIG1       -0.0000
     27 C           0.4380    2.2040    0.0000 C.ar    1  LIG1       -0.0002
     28 C          -0.0210    1.3540    0.0000 C.ar    1  LIG1       -0.0016
@<TRIPOS>BOND
     1     1     2    1
     2     1    11    1
     3     1    14    1
     4     2     3    2
     5     2     4    2
     6     2     5    1
     7     5     6   ar
     8     5    10   ar
     9     6     7   ar
    10     7     8   ar
    11     8     9   ar
    12     9    10   ar
    13    11    12    1
    14    11    23    1
    15    12    13    1
    16    12    18    1
    17    13    14    1
    18    13    15    1
    19    15    16   ar
    20    15    22   ar
    21    16    17    1
    22    16    19   ar
    23    17    18    1
    24    19    20   ar
    25    20    21   ar
    26    21    22   ar
    27    23    24   ar
    28    23    28   ar
    29    24    25   ar
    30    25    26   ar
    31    26    27   ar
    32    27    28   ar
