@<TRIPOS>MOLECULE
33812_ChemDiv_8012-0107
 31 35 0 0 0
SMALL
GASTEIGER
Energy = 0

@<TRIPOS>ATOM
      1 N          -0.0040   -1.6210    0.0000 N.3     1  LIG1       -0.1363
      2 S           0.9750   -1.6210    0.0000 S.O2    1  LIG1        0.0647
      3 C           1.9250   -1.6210    0.0000 C.ar    1  LIG1        0.1222
      4 C           2.4290   -0.7710    0.0000 C.ar    1  LIG1        0.0196
      5 C           3.3960   -0.7710    0.0000 C.ar    1  LIG1       -0.0029
      6 C           3.8960   -1.6210    0.0000 C.ar    1  LIG1       -0.0218
      7 C           3.3960   -2.4790    0.0000 C.ar    1  LIG1       -0.0029
      8 C           2.4290   -2.4790    0.0000 C.ar    1  LIG1        0.0196
      9 C           4.8880   -1.6290    0.0000 C.3     1  LIG1        0.0310
     10 O           0.9750   -2.6250    0.0000 O.2     1  LIG1       -0.1527
     11 O           0.9750   -0.6630    0.0000 O.2     1  LIG1       -0.1527
     12 C          -0.4750   -0.7920    0.0000 C.3     1  LIG1        0.1621
     13 N          -1.4710   -0.7920    0.0000 N.3     1  LIG1       -0.2524
     14 C          -1.9580   -1.6210    0.0000 C.3     1  LIG1        0.0990
     15 C          -0.4750   -2.4960    0.0000 C.3     1  LIG1        0.1180
     16 C          -2.9170   -1.6210    0.0000 C.ar    1  LIG1       -0.0102
     17 C          -3.4170   -0.7420    0.0000 C.ar    1  LIG1       -0.0234
     18 C          -2.8960    0.0670    0.0000 C.3     1  LIG1        0.0434
     19 C          -1.9460    0.0670    0.0000 C.3     1  LIG1        0.0786
     20 C          -4.3830   -0.7420    0.0000 C.ar    1  LIG1       -0.0045
     21 C          -4.8920   -1.5710    0.0000 C.ar    1  LIG1       -0.0003
     22 C          -4.4130   -2.4380    0.0000 C.ar    1  LIG1       -0.0003
     23 C          -3.4460   -2.4380    0.0000 C.ar    1  LIG1       -0.0032
     24 C          -0.0380    0.0670    0.0000 C.ar    1  LIG1        0.0092
     25 C          -0.5170    0.9330    0.0000 C.ar    1  LIG1        0.0015
     26 C          -0.0540    1.7920    0.0000 C.ar    1  LIG1        0.0367
     27 C           0.9500    1.7920    0.0000 C.ar    1  LIG1        0.1387
     28 C           1.4250    0.9330    0.0000 C.ar    1  LIG1        0.0367
     29 C           0.9500    0.0670    0.0000 C.ar    1  LIG1        0.0015
     30 O           1.4670    2.6290    0.0000 O.3     1  LIG1       -0.4714
     31 C           2.4500    2.6210    0.0000 C.3     1  LIG1        0.2525
@<TRIPOS>BOND
     1     1     2    1
     2     1    12    1
     3     1    15    1
     4     2     3    1
     5     2    10    2
     6     2    11    2
     7     3     4   ar
     8     3     8   ar
     9     4     5   ar
    10     5     6   ar
    11     6     7   ar
    12     6     9    1
    13     7     8   ar
    14    12    13    1
    15    12    24    1
    16    13    14    1
    17    13    19    1
    18    14    15    1
    19    14    16    1
    20    16    17   ar
    21    16    23   ar
    22    17    18    1
    23    17    20   ar
    24    18    19    1
    25    20    21   ar
    26    21    22   ar
    27    22    23   ar
    28    24    25   ar
    29    24    29   ar
    30    25    26   ar
    31    26    27   ar
    32    27    28   ar
    33    27    30    1
    34    28    29   ar
    35    30    31    1
