@<TRIPOS>MOLECULE
33818_ChemDiv_8012-3554
 33 37 0 0 0
SMALL
GASTEIGER
Energy = 0

@<TRIPOS>ATOM
      1 N           0.5000   -1.6040    0.0000 N.3     1  LIG1       -0.1363
      2 S           1.4710   -1.6040    0.0000 S.O2    1  LIG1        0.0647
      3 O           1.4710   -0.6420    0.0000 O.2     1  LIG1       -0.1527
      4 O           1.4710   -2.6000    0.0000 O.2     1  LIG1       -0.1527
      5 C           2.4630   -1.6040    0.0000 C.ar    1  LIG1        0.1223
      6 C           2.9670   -0.7670    0.0000 C.ar    1  LIG1        0.0199
      7 C           3.9500   -0.7670    0.0000 C.ar    1  LIG1        0.0014
      8 C           4.4330   -1.6040    0.0000 C.ar    1  LIG1        0.0001
      9 C           3.9380   -2.4460    0.0000 C.ar    1  LIG1        0.0014
     10 C           2.9670   -2.4460    0.0000 C.ar    1  LIG1        0.0199
     11 C           0.0290   -0.7710    0.0000 C.3     1  LIG1        0.1622
     12 N          -0.9630   -0.7710    0.0000 N.3     1  LIG1       -0.2524
     13 C          -1.4580   -1.6040    0.0000 C.3     1  LIG1        0.0990
     14 C           0.0290   -2.4750    0.0000 C.3     1  LIG1        0.1180
     15 C          -2.4380   -1.6040    0.0000 C.ar    1  LIG1       -0.0102
     16 C          -2.9210   -0.7710    0.0000 C.ar    1  LIG1       -0.0234
     17 C          -2.4380    0.0710    0.0000 C.3     1  LIG1        0.0434
     18 C          -1.4580    0.0710    0.0000 C.3     1  LIG1        0.0786
     19 C          -3.9670   -0.7830    0.0000 C.ar    1  LIG1       -0.0045
     20 C          -4.4380   -1.6080    0.0000 C.ar    1  LIG1       -0.0003
     21 C          -3.9290   -2.4880    0.0000 C.ar    1  LIG1       -0.0003
     22 C          -2.9330   -2.4880    0.0000 C.ar    1  LIG1       -0.0032
     23 C           0.4710    0.1080    0.0000 C.ar    1  LIG1        0.0123
     24 C           1.4500    0.1080    0.0000 C.ar    1  LIG1        0.0385
     25 C           1.9330    0.9500    0.0000 C.ar    1  LIG1        0.1720
     26 C           1.4250    1.7830    0.0000 C.ar    1  LIG1        0.1724
     27 C           0.4540    1.7830    0.0000 C.ar    1  LIG1        0.0398
     28 C          -0.0170    0.9500    0.0000 C.ar    1  LIG1        0.0017
     29 O           1.8790    2.6040    0.0000 O.3     1  LIG1       -0.4684
     30 C           2.8920    2.6040    0.0000 C.3     1  LIG1        0.2526
     31 O           2.9040    0.9500    0.0000 O.3     1  LIG1       -0.4724
     32 C           3.3920    0.1130    0.0000 C.3     1  LIG1        0.2057
     33 C           4.3880    0.1130    0.0000 C.3     1  LIG1        0.0512
@<TRIPOS>BOND
     1     1     2    1
     2     1    11    1
     3     1    14    1
     4     2     3    2
     5     2     4    2
     6     2     5    1
     7     5     6   ar
     8     5    10   ar
     9     6     7   ar
    10     7     8   ar
    11     8     9   ar
    12     9    10   ar
    13    11    12    1
    14    11    23    1
    15    12    13    1
    16    12    18    1
    17    13    14    1
    18    13    15    1
    19    15    16   ar
    20    15    22   ar
    21    16    17    1
    22    16    19   ar
    23    17    18    1
    24    19    20   ar
    25    20    21   ar
    26    21    22   ar
    27    23    24   ar
    28    23    28   ar
    29    24    25   ar
    30    25    26   ar
    31    25    31    1
    32    26    27   ar
    33    26    29    1
    34    27    28   ar
    35    29    30    1
    36    31    32    1
    37    32    33    1
