@<TRIPOS>MOLECULE
33810_ChemDiv_8012-0027
 29 33 0 0 0
SMALL
GASTEIGER
Energy = 0

@<TRIPOS>ATOM
      1 N          -0.0080   -1.2000    0.0000 N.3     1  LIG1       -0.1363
      2 S           0.9670   -1.2000    0.0000 S.O2    1  LIG1        0.0647
      3 C           1.9250   -1.2000    0.0000 C.ar    1  LIG1        0.1222
      4 C           2.4250   -2.0540    0.0000 C.ar    1  LIG1        0.0196
      5 C           3.3920   -2.0540    0.0000 C.ar    1  LIG1       -0.0029
      6 C           3.8880   -1.2000    0.0000 C.ar    1  LIG1       -0.0218
      7 C           3.3920   -0.3540    0.0000 C.ar    1  LIG1       -0.0029
      8 C           2.4250   -0.3540    0.0000 C.ar    1  LIG1        0.0196
      9 C           4.8830   -1.2000    0.0000 C.3     1  LIG1        0.0310
     10 O           0.9670   -0.2420    0.0000 O.2     1  LIG1       -0.1527
     11 O           0.9670   -2.2040    0.0000 O.2     1  LIG1       -0.1527
     12 C          -0.4750   -0.3710    0.0000 C.3     1  LIG1        0.1621
     13 N          -1.4710   -0.3710    0.0000 N.3     1  LIG1       -0.2524
     14 C          -1.9630   -1.2000    0.0000 C.3     1  LIG1        0.0990
     15 C          -0.4750   -2.0790    0.0000 C.3     1  LIG1        0.1180
     16 C          -2.9250   -1.2000    0.0000 C.ar    1  LIG1       -0.0102
     17 C          -3.4170   -0.3170    0.0000 C.ar    1  LIG1       -0.0234
     18 C          -2.9080    0.4920    0.0000 C.3     1  LIG1        0.0434
     19 C          -1.9460    0.4920    0.0000 C.3     1  LIG1        0.0786
     20 C          -4.3880   -0.3170    0.0000 C.ar    1  LIG1       -0.0045
     21 C          -4.8880   -1.1580    0.0000 C.ar    1  LIG1       -0.0003
     22 C          -4.4130   -2.0170    0.0000 C.ar    1  LIG1       -0.0003
     23 C          -3.4460   -2.0170    0.0000 C.ar    1  LIG1       -0.0032
     24 C          -0.0380    0.4920    0.0000 C.ar    1  LIG1        0.0090
     25 C           0.9420    0.4920    0.0000 C.ar    1  LIG1       -0.0016
     26 C           1.4170    1.3500    0.0000 C.ar    1  LIG1       -0.0002
     27 C           0.9420    2.2080    0.0000 C.ar    1  LIG1       -0.0000
     28 C          -0.0630    2.2080    0.0000 C.ar    1  LIG1       -0.0002
     29 C          -0.5210    1.3500    0.0000 C.ar    1  LIG1       -0.0016
@<TRIPOS>BOND
     1     1     2    1
     2     1    12    1
     3     1    15    1
     4     2     3    1
     5     2    10    2
     6     2    11    2
     7     3     4   ar
     8     3     8   ar
     9     4     5   ar
    10     5     6   ar
    11     6     7   ar
    12     6     9    1
    13     7     8   ar
    14    12    13    1
    15    12    24    1
    16    13    14    1
    17    13    19    1
    18    14    15    1
    19    14    16    1
    20    16    17   ar
    21    16    23   ar
    22    17    18    1
    23    17    20   ar
    24    18    19    1
    25    20    21   ar
    26    21    22   ar
    27    22    23   ar
    28    24    25   ar
    29    24    29   ar
    30    25    26   ar
    31    26    27   ar
    32    27    28   ar
    33    28    29   ar
