@<TRIPOS>MOLECULE
33815_ChemDiv_8011-1375
 18 20 0 0 0
SMALL
GASTEIGER
Energy = 0

@<TRIPOS>ATOM
      1 C          -1.2630    0.4250    0.0000 C.ar    1  LIG1        0.0869
      2 N          -1.7580    1.2920    0.0000 N.ar    1  LIG1       -0.2433
      3 C          -2.7630    1.2920    0.0000 C.ar    1  LIG1        0.0988
      4 C          -3.2580    0.4250    0.0000 C.ar    1  LIG1        0.0207
      5 C          -2.7630   -0.4330    0.0000 C.ar    1  LIG1        0.0031
      6 C          -1.7580   -0.4330    0.0000 C.ar    1  LIG1        0.0182
      7 C          -1.2630   -1.3040    0.0000 C.ar    1  LIG1        0.0015
      8 C          -0.2710   -1.3040    0.0000 C.ar    1  LIG1        0.0006
      9 C           0.2540   -0.4330    0.0000 C.ar    1  LIG1        0.0077
     10 C          -0.2710    0.4250    0.0000 C.ar    1  LIG1        0.0429
     11 S           0.2330    1.3080    0.0000 S.3     1  LIG1       -0.1096
     12 C           1.2080    1.3080    0.0000 C.3     1  LIG1        0.0919
     13 C           1.7460    0.4500    0.0000 C.3     1  LIG1        0.1315
     14 O           2.7670    0.4500    0.0000 O.3     1  LIG1       -0.3283
     15 C           3.2540   -0.4170    0.0000 C.3     1  LIG1        0.2939
     16 O           2.7460   -1.2710    0.0000 O.3     1  LIG1       -0.3267
     17 C           1.7460   -1.2710    0.0000 C.3     1  LIG1        0.1475
     18 C           1.2420   -0.4170    0.0000 C.3     1  LIG1        0.0627
@<TRIPOS>BOND
     1     1     2   ar
     2     1     6   ar
     3     1    10   ar
     4     2     3   ar
     5     3     4   ar
     6     4     5   ar
     7     5     6   ar
     8     6     7   ar
     9     7     8   ar
    10     8     9   ar
    11     9    10   ar
    12    10    11    1
    13    11    12    1
    14    12    13    1
    15    13    14    1
    16    13    18    1
    17    14    15    1
    18    15    16    1
    19    16    17    1
    20    17    18    1
