@<TRIPOS>MOLECULE
33824_ChemDiv_8012-5392
 34 39 0 0 0
SMALL
GASTEIGER
Energy = 0

@<TRIPOS>ATOM
      1 N          -0.2880   -0.3790    0.0000 N.3     1  LIG1       -0.1363
      2 S           0.6830   -0.3790    0.0000 S.O2    1  LIG1        0.0648
      3 C           1.6710   -0.3790    0.0000 C.ar    1  LIG1        0.1239
      4 C           2.1630   -1.2210    0.0000 C.ar    1  LIG1        0.0393
      5 C           3.1290   -1.2210    0.0000 C.ar    1  LIG1        0.1164
      6 N           3.6580   -2.0920    0.0000 N.ar    1  LIG1       -0.2407
      7 C           3.1580   -2.9710    0.0000 C.ar    1  LIG1        0.0989
      8 C           2.1420   -2.9710    0.0000 C.ar    1  LIG1        0.0207
      9 C           1.6380   -2.0920    0.0000 C.ar    1  LIG1        0.0045
     10 C           3.6580   -0.3630    0.0000 C.ar    1  LIG1        0.1563
     11 C           3.1420    0.4580    0.0000 C.ar    1  LIG1        0.0398
     12 C           2.1630    0.4580    0.0000 C.ar    1  LIG1        0.0231
     13 O           4.6630   -0.3630    0.0000 O.3     1  LIG1       -0.4699
     14 C           5.1630    0.5040    0.0000 C.3     1  LIG1        0.2525
     15 O           0.6830   -1.3710    0.0000 O.2     1  LIG1       -0.1527
     16 O           0.6830    0.5830    0.0000 O.2     1  LIG1       -0.1527
     17 C          -0.7380    0.4420    0.0000 C.3     1  LIG1        0.1621
     18 N          -1.7170    0.4420    0.0000 N.3     1  LIG1       -0.2524
     19 C          -2.2080   -0.3790    0.0000 C.3     1  LIG1        0.0990
     20 C          -0.7380   -1.2460    0.0000 C.3     1  LIG1        0.1180
     21 C          -3.1790   -0.3790    0.0000 C.ar    1  LIG1       -0.0102
     22 C          -3.6710    0.4420    0.0000 C.ar    1  LIG1       -0.0234
     23 C          -3.1790    1.2880    0.0000 C.3     1  LIG1        0.0434
     24 C          -2.2080    1.2880    0.0000 C.3     1  LIG1        0.0786
     25 C          -4.7130    0.4420    0.0000 C.ar    1  LIG1       -0.0045
     26 C          -5.1670   -0.3880    0.0000 C.ar    1  LIG1       -0.0003
     27 C          -4.6670   -1.2540    0.0000 C.ar    1  LIG1       -0.0003
     28 C          -3.6710   -1.2540    0.0000 C.ar    1  LIG1       -0.0032
     29 C          -0.3080    1.3130    0.0000 C.ar    1  LIG1        0.0090
     30 C          -0.7880    2.1460    0.0000 C.ar    1  LIG1       -0.0016
     31 C          -0.3210    2.9750    0.0000 C.ar    1  LIG1       -0.0002
     32 C           0.6330    2.9750    0.0000 C.ar    1  LIG1       -0.0000
     33 C           1.1460    2.1460    0.0000 C.ar    1  LIG1       -0.0002
     34 C           0.6540    1.3130    0.0000 C.ar    1  LIG1       -0.0016
@<TRIPOS>BOND
     1     1     2    1
     2     1    17    1
     3     1    20    1
     4     2     3    1
     5     2    15    2
     6     2    16    2
     7     3     4   ar
     8     3    12   ar
     9     4     5   ar
    10     4     9   ar
    11     5     6   ar
    12     5    10   ar
    13     6     7   ar
    14     7     8   ar
    15     8     9   ar
    16    10    11   ar
    17    10    13    1
    18    11    12   ar
    19    13    14    1
    20    17    18    1
    21    17    29    1
    22    18    19    1
    23    18    24    1
    24    19    20    1
    25    19    21    1
    26    21    22   ar
    27    21    28   ar
    28    22    23    1
    29    22    25   ar
    30    23    24    1
    31    25    26   ar
    32    26    27   ar
    33    27    28   ar
    34    29    30   ar
    35    29    34   ar
    36    30    31   ar
    37    31    32   ar
    38    32    33   ar
    39    33    34   ar
