@<TRIPOS>MOLECULE
33828_ChemDiv_K691-0072
 31 32 0 0 0
SMALL
GASTEIGER
Energy = 0

@<TRIPOS>ATOM
      1 S           3.8580   -1.7040    0.0000 S.O2    1  LIG1        0.0768
      2 C           3.5420   -0.7460    0.0000 C.ar    1  LIG1        0.1238
      3 C           4.2170   -0.0130    0.0000 C.ar    1  LIG1        0.0231
      4 C           3.9210    0.9330    0.0000 C.ar    1  LIG1        0.0389
      5 C           2.9460    1.1540    0.0000 C.ar    1  LIG1        0.1454
      6 O           2.6460    2.1130    0.0000 O.3     1  LIG1       -0.4535
      7 C           1.6630    2.3380    0.0000 C.ar    1  LIG1        0.1454
      8 C           0.9920    1.6000    0.0000 C.ar    1  LIG1        0.0389
      9 C           0.0170    1.8130    0.0000 C.ar    1  LIG1        0.0231
     10 C          -0.2830    2.7630    0.0000 C.ar    1  LIG1        0.1238
     11 S          -1.2630    2.9790    0.0000 S.O2    1  LIG1        0.0768
     12 O          -1.4790    1.9960    0.0000 O.2     1  LIG1       -0.1516
     13 O          -1.0540    3.9580    0.0000 O.2     1  LIG1       -0.1516
     14 N          -2.2460    3.1960    0.0000 N.3     1  LIG1       -0.0778
     15 C          -2.5580    4.1380    0.0000 C.3     1  LIG1        0.1155
     16 C          -3.5290    4.3420    0.0000 C.3     1  LIG1        0.0208
     17 C          -3.8420    5.2920    0.0000 C.3     1  LIG1        0.0015
     18 C          -3.1750    6.0330    0.0000 C.3     1  LIG1        0.0000
     19 C          -4.8210    5.4920    0.0000 C.3     1  LIG1        0.0000
     20 C           0.3830    3.5000    0.0000 C.ar    1  LIG1        0.0231
     21 C           1.3580    3.2960    0.0000 C.ar    1  LIG1        0.0389
     22 C           2.2630    0.4250    0.0000 C.ar    1  LIG1        0.0389
     23 C           2.5630   -0.5250    0.0000 C.ar    1  LIG1        0.0231
     24 O           4.8170   -1.3880    0.0000 O.2     1  LIG1       -0.1516
     25 O           2.9130   -2.0210    0.0000 O.2     1  LIG1       -0.1516
     26 N           4.1750   -2.6580    0.0000 N.3     1  LIG1       -0.0778
     27 C           3.5080   -3.4080    0.0000 C.3     1  LIG1        0.1155
     28 C           3.8250   -4.3500    0.0000 C.3     1  LIG1        0.0208
     29 C           3.1580   -5.0880    0.0000 C.3     1  LIG1        0.0015
     30 C           2.1790   -4.8880    0.0000 C.3     1  LIG1        0.0000
     31 C           3.4750   -6.0330    0.0000 C.3     1  LIG1        0.0000
@<TRIPOS>BOND
     1     1     2    1
     2     1    24    2
     3     1    25    2
     4     1    26    1
     5     2     3   ar
     6     2    23   ar
     7     3     4   ar
     8     4     5   ar
     9     5     6    1
    10     5    22   ar
    11     6     7    1
    12     7     8   ar
    13     7    21   ar
    14     8     9   ar
    15     9    10   ar
    16    10    11    1
    17    10    20   ar
    18    11    12    2
    19    11    13    2
    20    11    14    1
    21    14    15    1
    22    15    16    1
    23    16    17    1
    24    17    18    1
    25    17    19    1
    26    20    21   ar
    27    22    23   ar
    28    26    27    1
    29    27    28    1
    30    28    29    1
    31    29    30    1
    32    29    31    1
