@<TRIPOS>MOLECULE
33830_ChemDiv_K788-3529
 30 32 0 0 0
SMALL
GASTEIGER
Energy = 0

@<TRIPOS>ATOM
      1 S          -2.4830    0.5000    0.0000 S.O2    1  LIG1        0.0768
      2 N          -1.6210   -0.0210    0.0000 N.3     1  LIG1       -0.0778
      3 C          -0.7670    0.4880    0.0000 C.3     1  LIG1        0.1154
      4 C           0.1040   -0.0130    0.0000 C.3     1  LIG1        0.0194
      5 C           0.1040   -1.0040    0.0000 C.3     1  LIG1        0.0020
      6 C           0.9580   -1.4960    0.0000 C.3     1  LIG1        0.0092
      7 C           1.8290   -1.0040    0.0000 C.3     1  LIG1        0.0782
      8 C           2.6920   -1.5040    0.0000 C.2     1  LIG1        0.2408
      9 N           3.5540   -1.0040    0.0000 N.am    1  LIG1       -0.2072
     10 C           4.4210   -0.5080    0.0000 C.3     1  LIG1        0.0953
     11 C           5.2130   -1.1170    0.0000 C.3     1  LIG1        0.0217
     12 C           6.2040   -0.9830    0.0000 C.3     1  LIG1        0.0018
     13 C           6.8170   -0.1880    0.0000 C.3     1  LIG1        0.0001
     14 C           6.6830    0.7960    0.0000 C.3     1  LIG1        0.0000
     15 C           5.8920    1.4080    0.0000 C.3     1  LIG1        0.0001
     16 C           4.8960    1.2830    0.0000 C.3     1  LIG1        0.0018
     17 C           4.2880    0.4880    0.0000 C.3     1  LIG1        0.0217
     18 O           2.6920   -2.5040    0.0000 O.2     1  LIG1       -0.2734
     19 C           1.8210   -0.0080    0.0000 C.3     1  LIG1        0.0092
     20 C           0.9580    0.5000    0.0000 C.3     1  LIG1        0.0020
     21 C          -3.3580    1.0000    0.0000 C.ar    1  LIG1        0.1237
     22 C          -3.3580    2.0130    0.0000 C.ar    1  LIG1        0.0231
     23 C          -4.2210    2.5080    0.0000 C.ar    1  LIG1        0.0383
     24 C          -5.0880    2.0130    0.0000 C.ar    1  LIG1        0.1388
     25 C          -5.0880    1.0000    0.0000 C.ar    1  LIG1        0.0383
     26 C          -4.2210    0.5000    0.0000 C.ar    1  LIG1        0.0231
     27 O          -5.9580    2.5080    0.0000 O.3     1  LIG1       -0.4714
     28 C          -6.8170    2.0130    0.0000 C.3     1  LIG1        0.2525
     29 O          -1.9670    1.3630    0.0000 O.2     1  LIG1       -0.1516
     30 O          -2.9960   -0.3500    0.0000 O.2     1  LIG1       -0.1516
@<TRIPOS>BOND
     1     1     2    1
     2     1    21    1
     3     1    29    2
     4     1    30    2
     5     2     3    1
     6     3     4    1
     7     4     5    1
     8     4    20    1
     9     5     6    1
    10     6     7    1
    11     7     8    1
    12     7    19    1
    13     8     9   am
    14     8    18    2
    15     9    10    1
    16    10    11    1
    17    10    17    1
    18    11    12    1
    19    12    13    1
    20    13    14    1
    21    14    15    1
    22    15    16    1
    23    16    17    1
    24    19    20    1
    25    21    22   ar
    26    21    26   ar
    27    22    23   ar
    28    23    24   ar
    29    24    25   ar
    30    24    27    1
    31    25    26   ar
    32    27    28    1
