@<TRIPOS>MOLECULE
33832_ChemDiv_R052-2641
 17 18 0 0 0
SMALL
GASTEIGER
Energy = 0

@<TRIPOS>ATOM
      1 S           0.2540    0.1000    0.0000 S.O2    1  LIG1        0.0633
      2 N           1.1250   -0.4080    0.0000 N.3     1  LIG1       -0.1555
      3 C           0.9750   -1.3960    0.0000 C.3     1  LIG1        0.0958
      4 C           1.6540   -2.1170    0.0000 C.3     1  LIG1        0.0191
      5 C           2.6330   -2.0420    0.0000 C.3     1  LIG1        0.0015
      6 C           3.2130   -1.2380    0.0000 C.3     1  LIG1        0.0015
      7 C           2.9210   -0.2790    0.0000 C.3     1  LIG1        0.0191
      8 C           1.9920    0.0920    0.0000 C.3     1  LIG1        0.0958
      9 C          -0.6210    0.6130    0.0000 C.ar    1  LIG1        0.1223
     10 C          -1.4830    0.1170    0.0000 C.ar    1  LIG1        0.0213
     11 C          -2.3420    0.6130    0.0000 C.ar    1  LIG1        0.0194
     12 C          -2.3420    1.6080    0.0000 C.ar    1  LIG1        0.0892
     13 N          -3.2170    2.1210    0.0000 N.pl3   1  LIG1       -0.1281
     14 C          -1.4830    2.1080    0.0000 C.ar    1  LIG1        0.0194
     15 C          -0.6210    1.6080    0.0000 C.ar    1  LIG1        0.0213
     16 O          -0.2580   -0.7710    0.0000 O.2     1  LIG1       -0.1528
     17 O           0.7630    0.9750    0.0000 O.2     1  LIG1       -0.1528
@<TRIPOS>BOND
     1     1     2    1
     2     1     9    1
     3     1    16    2
     4     1    17    2
     5     2     3    1
     6     2     8    1
     7     3     4    1
     8     4     5    1
     9     5     6    1
    10     6     7    1
    11     7     8    1
    12     9    10   ar
    13     9    15   ar
    14    10    11   ar
    15    11    12   ar
    16    12    13    1
    17    12    14   ar
    18    14    15   ar
