@<TRIPOS>MOLECULE
33831_ChemDiv_8010-4712
 25 29 0 0 0
SMALL
GASTEIGER
Energy = 0

@<TRIPOS>ATOM
      1 C           1.5500   -0.1380    0.0000 C.2     1  LIG1        0.0078
      2 C           0.5880   -0.3540    0.0000 C.2     1  LIG1        0.0791
      3 C           0.3040   -1.3170    0.0000 C.2     1  LIG1        0.3458
      4 O          -0.6960   -1.3380    0.0000 O.3     1  LIG1       -0.4210
      5 C          -1.0330   -0.4130    0.0000 C.2     1  LIG1        0.1489
      6 C          -0.2500    0.2130    0.0000 C.2     1  LIG1        0.0441
      7 C          -1.9960   -0.1790    0.0000 C.ar    1  LIG1        0.0347
      8 C          -2.2960    0.7710    0.0000 C.ar    1  LIG1        0.0030
      9 C          -3.2580    1.0080    0.0000 C.ar    1  LIG1        0.0001
     10 C          -3.9630    0.2710    0.0000 C.ar    1  LIG1        0.0000
     11 C          -3.6670   -0.6830    0.0000 C.ar    1  LIG1        0.0001
     12 C          -2.6830   -0.9130    0.0000 C.ar    1  LIG1        0.0030
     13 O           0.9080   -2.1170    0.0000 O.2     1  LIG1       -0.2445
     14 C           2.2420   -0.8540    0.0000 C.ar    1  LIG1        0.0179
     15 C           3.1540   -0.4420    0.0000 C.ar    1  LIG1        0.0813
     16 C           3.0080    0.5420    0.0000 C.ar    1  LIG1        0.0177
     17 C           2.0290    0.7210    0.0000 C.ar    1  LIG1        0.0017
     18 C           1.7000    1.6630    0.0000 C.ar    1  LIG1        0.0001
     19 C           2.3420    2.4420    0.0000 C.ar    1  LIG1        0.0000
     20 C           3.3420    2.2580    0.0000 C.ar    1  LIG1        0.0000
     21 C           3.6670    1.3080    0.0000 C.ar    1  LIG1        0.0015
     22 N           3.9580   -1.0040    0.0000 N.ar    1  LIG1       -0.2438
     23 C           3.8540   -1.9790    0.0000 C.ar    1  LIG1        0.0988
     24 C           2.9580   -2.4380    0.0000 C.ar    1  LIG1        0.0207
     25 C           2.1290   -1.8630    0.0000 C.ar    1  LIG1        0.0031
@<TRIPOS>BOND
     1     1     2    2
     2     1    14    1
     3     1    17    1
     4     2     3    1
     5     2     6    1
     6     3     4    1
     7     3    13    2
     8     4     5    1
     9     5     6    2
    10     5     7    1
    11     7     8   ar
    12     7    12   ar
    13     8     9   ar
    14     9    10   ar
    15    10    11   ar
    16    11    12   ar
    17    14    15   ar
    18    14    25   ar
    19    15    16    1
    20    15    22   ar
    21    16    17   ar
    22    16    21   ar
    23    17    18   ar
    24    18    19   ar
    25    19    20   ar
    26    20    21   ar
    27    22    23   ar
    28    23    24   ar
    29    24    25   ar
