@<TRIPOS>MOLECULE
33839_ChemDiv_8010-4797
 24 27 0 0 0
SMALL
GASTEIGER
Energy = 0

@<TRIPOS>ATOM
      1 N           1.3130   -1.2500    0.0000 N.ar    1  LIG1       -0.1475
      2 N           2.1750   -1.7290    0.0000 N.ar    1  LIG1       -0.1058
      3 C           3.0380   -1.2250    0.0000 C.ar    1  LIG1        0.2967
      4 C           3.0250   -0.2170    0.0000 C.ar    1  LIG1        0.0606
      5 C           2.1580    0.2630    0.0000 C.ar    1  LIG1        0.0217
      6 C           1.2960   -0.2670    0.0000 C.ar    1  LIG1        0.1026
      7 C           0.4330    0.2420    0.0000 C.3     1  LIG1        0.1611
      8 N          -0.4290   -0.2880    0.0000 N.pl3   1  LIG1       -0.2123
      9 C          -1.3210    0.2170    0.0000 C.ar    1  LIG1        0.1695
     10 N          -1.3210    1.2000    0.0000 N.ar    1  LIG1       -0.1317
     11 N          -2.1790    1.7080    0.0000 N.ar    1  LIG1       -0.1511
     12 C          -3.0460    1.2000    0.0000 C.ar    1  LIG1        0.0810
     13 C          -3.0460    0.2170    0.0000 C.ar    1  LIG1        0.0181
     14 C          -2.1790   -0.2880    0.0000 C.ar    1  LIG1        0.0360
     15 C          -2.1790   -1.2960    0.0000 C.ar    1  LIG1        0.0029
     16 C          -3.0460   -1.7750    0.0000 C.ar    1  LIG1        0.0001
     17 C          -3.9080   -1.2960    0.0000 C.ar    1  LIG1        0.0000
     18 C          -3.9080   -0.2880    0.0000 C.ar    1  LIG1        0.0013
     19 C          -3.9080    1.7250    0.0000 C.3     1  LIG1        0.0540
     20 C           2.1330    1.2580    0.0000 C.ar    1  LIG1        0.0014
     21 C           3.0080    1.7790    0.0000 C.ar    1  LIG1        0.0000
     22 C           3.8790    1.2920    0.0000 C.ar    1  LIG1        0.0002
     23 C           3.8880    0.2960    0.0000 C.ar    1  LIG1        0.0049
     24 O           3.9040   -1.7210    0.0000 O.2     1  LIG1       -0.2636
@<TRIPOS>BOND
     1     1     2   ar
     2     1     6   ar
     3     2     3   ar
     4     3     4   ar
     5     3    24    2
     6     4     5   ar
     7     4    23   ar
     8     5     6   ar
     9     5    20   ar
    10     6     7    1
    11     7     8    1
    12     8     9    1
    13     9    10   ar
    14     9    14   ar
    15    10    11   ar
    16    11    12   ar
    17    12    13   ar
    18    12    19    1
    19    13    14   ar
    20    13    18   ar
    21    14    15   ar
    22    15    16   ar
    23    16    17   ar
    24    17    18   ar
    25    20    21   ar
    26    21    22   ar
    27    22    23   ar
