@<TRIPOS>MOLECULE
33842_ChemDiv_8012-5403
 22 25 0 0 0
SMALL
GASTEIGER
Energy = 0

@<TRIPOS>ATOM
      1 N           0.2500   -0.6540    0.0000 N.am    1  LIG1       -0.2276
      2 C           0.6580    0.2830    0.0000 C.3     1  LIG1        0.1949
      3 N          -0.0960    0.9130    0.0000 N.4     1  LIG1        0.3911
      4 C          -0.9630    0.4130    0.0000 C.3     1  LIG1        0.1324
      5 C          -0.7380   -0.5670    0.0000 C.3     1  LIG1        0.1602
      6 C          -1.8210    0.8960    0.0000 C.ar    1  LIG1        0.0264
      7 C          -1.8380    1.8920    0.0000 C.ar    1  LIG1       -0.0149
      8 C          -0.9880    2.4000    0.0000 C.3     1  LIG1        0.0890
      9 C          -0.1250    1.9170    0.0000 C.3     1  LIG1        0.1461
     10 C          -2.6960    2.3880    0.0000 C.ar    1  LIG1       -0.0042
     11 C          -3.5750    1.8920    0.0000 C.ar    1  LIG1       -0.0003
     12 C          -3.5540    0.8960    0.0000 C.ar    1  LIG1       -0.0001
     13 C          -2.6880    0.4040    0.0000 C.ar    1  LIG1        0.0010
     14 C           1.6080    0.5330    0.0000 C.ar    1  LIG1        0.0493
     15 C           2.3170   -0.1750    0.0000 C.ar    1  LIG1        0.0031
     16 C           3.3000    0.0750    0.0000 C.ar    1  LIG1       -0.0001
     17 C           3.5710    1.0460    0.0000 C.ar    1  LIG1       -0.0000
     18 C           2.8500    1.7630    0.0000 C.ar    1  LIG1       -0.0001
     19 C           1.8710    1.5040    0.0000 C.ar    1  LIG1        0.0031
     20 C           0.7500   -1.5170    0.0000 C.2     1  LIG1        0.2304
     21 O           1.7420   -1.5040    0.0000 O.2     1  LIG1       -0.2747
     22 C           0.2380   -2.3960    0.0000 C.3     1  LIG1        0.0950
@<TRIPOS>BOND
     1     1     2    1
     2     1     5    1
     3     1    20   am
     4     2     3    1
     5     2    14    1
     6     3     4    1
     7     3     9    1
     8     4     5    1
     9     4     6    1
    10     6     7   ar
    11     6    13   ar
    12     7     8    1
    13     7    10   ar
    14     8     9    1
    15    10    11   ar
    16    11    12   ar
    17    12    13   ar
    18    14    15   ar
    19    14    19   ar
    20    15    16   ar
    21    16    17   ar
    22    17    18   ar
    23    18    19   ar
    24    20    21    2
    25    20    22    1
