@<TRIPOS>MOLECULE
33846_ChemDiv_8012-5773
 27 30 0 0 0
SMALL
GASTEIGER
Energy = 0

@<TRIPOS>ATOM
      1 N          -0.5830   -0.6540    0.0000 N.am    1  LIG1       -0.2276
      2 C          -0.1710    0.2830    0.0000 C.3     1  LIG1        0.1950
      3 N          -0.9290    0.9130    0.0000 N.4     1  LIG1        0.3911
      4 C          -1.7960    0.4130    0.0000 C.3     1  LIG1        0.1324
      5 C          -1.5750   -0.5670    0.0000 C.3     1  LIG1        0.1602
      6 C          -2.6540    0.9000    0.0000 C.ar    1  LIG1        0.0264
      7 C          -2.6670    1.8960    0.0000 C.ar    1  LIG1       -0.0149
      8 C          -1.8250    2.4000    0.0000 C.3     1  LIG1        0.0890
      9 C          -0.9540    1.9170    0.0000 C.3     1  LIG1        0.1461
     10 C          -3.5290    2.3920    0.0000 C.ar    1  LIG1       -0.0042
     11 C          -4.4080    1.8960    0.0000 C.ar    1  LIG1       -0.0003
     12 C          -4.3920    0.9000    0.0000 C.ar    1  LIG1       -0.0001
     13 C          -3.5210    0.4040    0.0000 C.ar    1  LIG1        0.0010
     14 C           0.7830    0.5330    0.0000 C.ar    1  LIG1        0.0525
     15 C           1.4880   -0.1750    0.0000 C.ar    1  LIG1        0.0431
     16 C           2.4710    0.0750    0.0000 C.ar    1  LIG1        0.1721
     17 C           2.7420    1.0460    0.0000 C.ar    1  LIG1        0.1724
     18 C           2.0250    1.7670    0.0000 C.ar    1  LIG1        0.0400
     19 C           1.0420    1.5040    0.0000 C.ar    1  LIG1        0.0064
     20 O           3.7130    1.2830    0.0000 O.3     1  LIG1       -0.4684
     21 C           4.4040    0.5710    0.0000 C.3     1  LIG1        0.2526
     22 O           3.1630   -0.6330    0.0000 O.3     1  LIG1       -0.4724
     23 C           2.9000   -1.5880    0.0000 C.3     1  LIG1        0.2057
     24 C           3.5920   -2.3040    0.0000 C.3     1  LIG1        0.0512
     25 C          -0.0790   -1.5210    0.0000 C.2     1  LIG1        0.2304
     26 O           0.9130   -1.5040    0.0000 O.2     1  LIG1       -0.2747
     27 C          -0.5920   -2.4000    0.0000 C.3     1  LIG1        0.0950
@<TRIPOS>BOND
     1     1     2    1
     2     1     5    1
     3     1    25   am
     4     2     3    1
     5     2    14    1
     6     3     4    1
     7     3     9    1
     8     4     5    1
     9     4     6    1
    10     6     7   ar
    11     6    13   ar
    12     7     8    1
    13     7    10   ar
    14     8     9    1
    15    10    11   ar
    16    11    12   ar
    17    12    13   ar
    18    14    15   ar
    19    14    19   ar
    20    15    16   ar
    21    16    17   ar
    22    16    22    1
    23    17    18   ar
    24    17    20    1
    25    18    19   ar
    26    20    21    1
    27    22    23    1
    28    23    24    1
    29    25    26    2
    30    25    27    1
