@<TRIPOS>MOLECULE
33843_ChemDiv_8011-1914
 18 20 0 0 0
SMALL
GASTEIGER
Energy = 0

@<TRIPOS>ATOM
      1 C          -0.4330    0.4630    0.0000 C.ar    1  LIG1        0.0217
      2 C          -0.4330   -0.4920    0.0000 C.ar    1  LIG1        0.0944
      3 N          -1.2750   -0.9580    0.0000 N.2     1  LIG1       -0.2481
      4 C          -2.1170   -0.4920    0.0000 C.2     1  LIG1        0.0634
      5 C          -2.1170    0.4630    0.0000 C.2     1  LIG1        0.0154
      6 C          -2.9540    0.9380    0.0000 C.2     1  LIG1        0.0009
      7 C          -3.7880    0.4630    0.0000 C.2     1  LIG1       -0.0041
      8 C          -3.7880   -0.4920    0.0000 C.2     1  LIG1       -0.0198
      9 C          -2.9540   -0.9580    0.0000 C.3     1  LIG1        0.0717
     10 C           0.4000   -0.9580    0.0000 C.ar    1  LIG1        0.0771
     11 N           1.2380   -0.4920    0.0000 N.ar    1  LIG1       -0.2416
     12 C           1.2380    0.4630    0.0000 C.ar    1  LIG1        0.1564
     13 C           0.4000    0.9380    0.0000 C.ar    1  LIG1        0.0273
     14 C           2.0670    0.9380    0.0000 C.2     1  LIG1        0.3592
     15 O           2.0670    1.9170    0.0000 O.2     1  LIG1       -0.2432
     16 O           2.9250    0.3920    0.0000 O.3     1  LIG1       -0.4403
     17 C           3.7830    0.9000    0.0000 C.3     1  LIG1        0.2560
     18 C           0.4000   -1.9130    0.0000 C.3     1  LIG1        0.0537
@<TRIPOS>BOND
     1     1     2   ar
     2     1     5    1
     3     1    13   ar
     4     2     3    1
     5     2    10   ar
     6     3     4    2
     7     4     5    1
     8     4     9    1
     9     5     6    2
    10     6     7    1
    11     7     8    2
    12     8     9    1
    13    10    11   ar
    14    10    18    1
    15    11    12   ar
    16    12    13   ar
    17    12    14    1
    18    14    15    2
    19    14    16    1
    20    16    17    1
