@<TRIPOS>MOLECULE
33849_ChemDiv_8011-1984
 21 24 0 0 0
SMALL
GASTEIGER
Energy = 0

@<TRIPOS>ATOM
      1 N          -0.5170   -0.1330    0.0000 N.2     1  LIG1       -0.2422
      2 C           0.4920   -0.1330    0.0000 C.2     1  LIG1        0.0843
      3 C           1.1210   -0.8960    0.0000 C.ar    1  LIG1        0.0522
      4 C           0.8960   -1.8710    0.0000 C.ar    1  LIG1        0.1467
      5 O          -0.0170   -2.3250    0.0000 O.3     1  LIG1       -0.4519
      6 C          -0.9000   -1.8790    0.0000 C.ar    1  LIG1        0.1627
      7 C          -1.1330   -0.9080    0.0000 C.ar    1  LIG1        0.1157
      8 C          -2.0790   -0.6170    0.0000 C.ar    1  LIG1        0.0222
      9 C          -2.8130   -1.3080    0.0000 C.ar    1  LIG1        0.0017
     10 C          -2.5960   -2.2630    0.0000 C.ar    1  LIG1        0.0032
     11 C          -1.6290   -2.5670    0.0000 C.ar    1  LIG1        0.0391
     12 C           1.6330   -2.5500    0.0000 C.ar    1  LIG1        0.0375
     13 C           2.5960   -2.2540    0.0000 C.ar    1  LIG1        0.0031
     14 C           2.8080   -1.2670    0.0000 C.ar    1  LIG1        0.0002
     15 C           2.0750   -0.5920    0.0000 C.ar    1  LIG1        0.0045
     16 C           0.9290    0.7580    0.0000 C.ar    1  LIG1        0.0178
     17 C           1.9330    0.8330    0.0000 C.ar    1  LIG1        0.0015
     18 C           2.3710    1.7290    0.0000 C.ar    1  LIG1        0.0000
     19 C           1.8250    2.5710    0.0000 C.ar    1  LIG1        0.0000
     20 C           0.8250    2.4880    0.0000 C.ar    1  LIG1        0.0000
     21 C           0.3880    1.5920    0.0000 C.ar    1  LIG1        0.0015
@<TRIPOS>BOND
     1     1     2    2
     2     1     7    1
     3     2     3    1
     4     2    16    1
     5     3     4   ar
     6     3    15   ar
     7     4     5    1
     8     4    12   ar
     9     5     6    1
    10     6     7   ar
    11     6    11   ar
    12     7     8   ar
    13     8     9   ar
    14     9    10   ar
    15    10    11   ar
    16    12    13   ar
    17    13    14   ar
    18    14    15   ar
    19    16    17   ar
    20    16    21   ar
    21    17    18   ar
    22    18    19   ar
    23    19    20   ar
    24    20    21   ar
