@<TRIPOS>MOLECULE
33841_ChemDiv_8011-1777
 22 26 0 0 0
SMALL
GASTEIGER
Energy = 0

@<TRIPOS>ATOM
      1 N           0.9630   -0.3170    0.0000 N.ar    1  LIG1       -0.2426
      2 C           0.9630    0.6670    0.0000 C.ar    1  LIG1        0.1114
      3 C           0.0880    1.1710    0.0000 C.ar    1  LIG1       -0.0054
      4 C          -0.7880    0.6670    0.0000 C.ar    1  LIG1       -0.0231
      5 C          -0.7880   -0.3170    0.0000 C.ar    1  LIG1        0.0134
      6 C           0.0880   -0.8210    0.0000 C.ar    1  LIG1        0.0810
      7 C           0.0880   -1.8170    0.0000 C.ar    1  LIG1        0.0191
      8 C          -0.7880   -2.3170    0.0000 C.ar    1  LIG1        0.0015
      9 C          -1.6630   -1.8170    0.0000 C.ar    1  LIG1        0.0001
     10 C          -1.6630   -0.8210    0.0000 C.ar    1  LIG1        0.0011
     11 C          -2.5420   -0.3170    0.0000 C.ar    1  LIG1        0.0000
     12 C          -3.4080   -0.8210    0.0000 C.ar    1  LIG1        0.0000
     13 C          -3.4080   -1.8170    0.0000 C.ar    1  LIG1        0.0000
     14 C          -2.5420   -2.3170    0.0000 C.ar    1  LIG1        0.0000
     15 C          -1.5250    1.3670    0.0000 C.3     1  LIG1        0.0265
     16 C          -1.1080    2.2460    0.0000 C.3     1  LIG1        0.0094
     17 C          -0.1380    2.1670    0.0000 C.3     1  LIG1        0.0280
     18 C           1.8210    1.1540    0.0000 C.ar    1  LIG1        0.1627
     19 O           1.9040    2.1500    0.0000 O.2     1  LIG1       -0.4489
     20 C           2.8830    2.3210    0.0000 C.ar    1  LIG1        0.1797
     21 C           3.4040    1.4540    0.0000 C.ar    1  LIG1        0.0438
     22 C           2.7080    0.7380    0.0000 C.ar    1  LIG1        0.0423
@<TRIPOS>BOND
     1     1     2   ar
     2     1     6   ar
     3     2     3   ar
     4     2    18    1
     5     3     4   ar
     6     3    17    1
     7     4     5   ar
     8     4    15    1
     9     5     6   ar
    10     5    10   ar
    11     6     7   ar
    12     7     8   ar
    13     8     9   ar
    14     9    10   ar
    15     9    14   ar
    16    10    11   ar
    17    11    12   ar
    18    12    13   ar
    19    13    14   ar
    20    15    16    1
    21    16    17    1
    22    18    19   ar
    23    18    22   ar
    24    19    20   ar
    25    20    21   ar
    26    21    22   ar
