@<TRIPOS>MOLECULE
33845_ChemDiv_C066-1084
 16 18 0 0 0
SMALL
GASTEIGER
Energy = 0

@<TRIPOS>ATOM
      1 N          -0.3040   -2.0960    0.0000 N.2     1  LIG1       -0.2438
      2 C           0.3790   -1.3710    0.0000 C.ar    1  LIG1        0.1004
      3 C          -0.1250   -0.4880    0.0000 C.ar    1  LIG1        0.0219
      4 C          -1.0880   -0.6830    0.0000 C.2     1  LIG1        0.0153
      5 C          -1.2080   -1.6710    0.0000 C.2     1  LIG1        0.0807
      6 C          -2.1250   -2.0500    0.0000 C.2     1  LIG1        0.0149
      7 C          -2.9130   -1.4500    0.0000 C.2     1  LIG1       -0.0199
      8 C          -2.7920   -0.4710    0.0000 C.3     1  LIG1        0.0521
      9 C          -1.8830   -0.0790    0.0000 C.2     1  LIG1       -0.0199
     10 C           0.4000    0.3830    0.0000 C.ar    1  LIG1        0.0218
     11 CA          1.4080    0.3830    0.0000 C.ar    1  LIG1        0.0953
     12 N           1.9040   -0.5000    0.0000 N.ar    1  LIG1       -0.2411
     13 C           1.3960   -1.3750    0.0000 C.ar    1  LIG1        0.1179
     14 C           1.9170    1.2420    0.0000 C.2     1  LIG1        0.0905
     15 O           1.4250    2.1000    0.0000 O.co2   1  LIG1       -0.5430
     16 OXT         2.9080    1.2290    0.0000 O.co2   1  LIG1       -0.5430
@<TRIPOS>BOND
     1     1     2    1
     2     1     5    2
     3     2     3   ar
     4     2    13   ar
     5     3     4    1
     6     3    10   ar
     7     4     5    1
     8     4     9    2
     9     5     6    1
    10     6     7    2
    11     7     8    1
    12     8     9    1
    13    10    11   ar
    14    11    12   ar
    15    11    14    1
    16    12    13   ar
    17    14    15   ar
    18    14    16   ar
