@<TRIPOS>MOLECULE
33856_ChemDiv_8012-0380
 19 20 0 0 0
SMALL
GASTEIGER
Energy = 0

@<TRIPOS>ATOM
      1 N          -0.8500    0.9500    0.0000 N.ar    1  LIG1       -0.2983
      2 C           0.8210    0.9500    0.0000 C.ar    1  LIG1        0.1646
      3 C           0.8210   -0.0210    0.0000 C.ar    1  LIG1        0.1400
      4 S          -0.0250   -0.5080    0.0000 S.2     1  LIG1       -0.0534
      5 C          -0.8500   -0.0210    0.0000 C.ar    1  LIG1        0.1287
      6 S          -1.6750   -0.5080    0.0000 S.2     1  LIG1       -0.0247
      7 C           1.6750   -0.5080    0.0000 C.2     1  LIG1        0.3502
      8 O           1.6750   -1.4500    0.0000 O.2     1  LIG1       -0.2442
      9 O           2.5000   -0.0420    0.0000 O.3     1  LIG1       -0.4450
     10 C           3.3290   -0.5750    0.0000 C.3     1  LIG1        0.2089
     11 C           4.1750   -0.0630    0.0000 C.3     1  LIG1        0.0513
     12 N           1.6460    1.4170    0.0000 N.pl3   1  LIG1       -0.1082
     13 C          -1.7080    1.4460    0.0000 C.3     1  LIG1        0.1350
     14 C          -2.5380    0.9790    0.0000 C.ar    1  LIG1        0.0004
     15 C          -2.5380   -0.0040    0.0000 C.ar    1  LIG1       -0.0024
     16 C          -3.3500   -0.4750    0.0000 C.ar    1  LIG1       -0.0003
     17 C          -4.1790   -0.0040    0.0000 C.ar    1  LIG1       -0.0000
     18 C          -4.1790    0.9790    0.0000 C.ar    1  LIG1       -0.0003
     19 C          -3.3500    1.4540    0.0000 C.ar    1  LIG1       -0.0024
@<TRIPOS>BOND
     1     1     2   ar
     2     1     5   ar
     3     1    13    1
     4     2     3   ar
     5     2    12    1
     6     3     4   ar
     7     3     7    1
     8     4     5   ar
     9     5     6    2
    10     7     8    2
    11     7     9    1
    12     9    10    1
    13    10    11    1
    14    13    14    1
    15    14    15   ar
    16    14    19   ar
    17    15    16   ar
    18    16    17   ar
    19    17    18   ar
    20    18    19   ar
