@<TRIPOS>MOLECULE
33855_ChemDiv_8011-2584
 27 30 0 0 0
SMALL
GASTEIGER
Energy = 0

@<TRIPOS>ATOM
      1 C          -0.7290   -0.8460    0.0000 C.3     1  LIG1        0.2036
      2 C          -1.2670   -1.6540    0.0000 C.2     1  LIG1        0.2016
      3 C          -2.2290   -1.6540    0.0000 C.ar    1  LIG1        0.0400
      4 C          -2.6960   -0.8130    0.0000 C.ar    1  LIG1        0.0400
      5 C          -2.2080    0.0380    0.0000 C.2     1  LIG1        0.2016
      6 O          -2.7000    0.8960    0.0000 O.2     1  LIG1       -0.2888
      7 C          -3.6710   -0.8210    0.0000 C.ar    1  LIG1        0.0030
      8 C          -4.1670   -1.6580    0.0000 C.ar    1  LIG1        0.0001
      9 C          -3.7130   -2.4750    0.0000 C.ar    1  LIG1        0.0001
     10 C          -2.7540   -2.4750    0.0000 C.ar    1  LIG1        0.0030
     11 O          -0.7830   -2.5330    0.0000 O.2     1  LIG1       -0.2888
     12 N          -0.1790   -1.6830    0.0000 N.pl3   1  LIG1       -0.2220
     13 C           0.7170   -1.6830    0.0000 C.ar    1  LIG1        0.0667
     14 C           1.2330   -0.8460    0.0000 C.ar    1  LIG1        0.0192
     15 C           2.2000   -0.8460    0.0000 C.ar    1  LIG1        0.0382
     16 C           2.6960   -1.6830    0.0000 C.ar    1  LIG1        0.1388
     17 C           2.1830   -2.5250    0.0000 C.ar    1  LIG1        0.0382
     18 C           1.2130   -2.5250    0.0000 C.ar    1  LIG1        0.0192
     19 O           3.6830   -1.6830    0.0000 O.3     1  LIG1       -0.4714
     20 C           4.1630   -2.5250    0.0000 C.3     1  LIG1        0.2525
     21 C          -0.1790   -0.0080    0.0000 C.ar    1  LIG1        0.0094
     22 C           0.8170   -0.0080    0.0000 C.ar    1  LIG1       -0.0010
     23 C           1.3080    0.8330    0.0000 C.ar    1  LIG1        0.0111
     24 C           0.8330    1.6710    0.0000 C.ar    1  LIG1        0.0577
     25 C          -0.1290    1.6710    0.0000 C.ar    1  LIG1        0.0111
     26 C          -0.6500    0.8330    0.0000 C.ar    1  LIG1       -0.0010
     27 CL          1.3960    2.5380    0.0000 Cl      1  LIG1       -0.0822
@<TRIPOS>BOND
     1     1     2    1
     2     1     5    1
     3     1    12    1
     4     1    21    1
     5     2     3    1
     6     2    11    2
     7     3     4   ar
     8     3    10   ar
     9     4     5    1
    10     4     7   ar
    11     5     6    2
    12     7     8   ar
    13     8     9   ar
    14     9    10   ar
    15    12    13    1
    16    13    14   ar
    17    13    18   ar
    18    14    15   ar
    19    15    16   ar
    20    16    17   ar
    21    16    19    1
    22    17    18   ar
    23    19    20    1
    24    21    22   ar
    25    21    26   ar
    26    22    23   ar
    27    23    24   ar
    28    24    25   ar
    29    24    27    1
    30    25    26   ar
