@<TRIPOS>MOLECULE
33859_ChemDiv_8015-9718
 22 24 0 0 0
SMALL
GASTEIGER
Energy = 0

@<TRIPOS>ATOM
      1 C          -0.0080   -0.7500    0.0000 C.ar    1  LIG1        0.1582
      2 N           0.8630   -1.2500    0.0000 N.ar    1  LIG1       -0.1402
      3 N           0.8630   -2.2420    0.0000 N.ar    1  LIG1       -0.1054
      4 C          -0.0080   -2.7500    0.0000 C.ar    1  LIG1        0.2967
      5 C          -0.8670   -2.2420    0.0000 C.ar    1  LIG1        0.0610
      6 C          -0.8670   -1.2500    0.0000 C.ar    1  LIG1        0.0287
      7 C          -1.7290   -0.7500    0.0000 C.ar    1  LIG1        0.0019
      8 C          -2.5960   -1.2500    0.0000 C.ar    1  LIG1        0.0001
      9 C          -2.5960   -2.2420    0.0000 C.ar    1  LIG1        0.0002
     10 C          -1.7290   -2.7500    0.0000 C.ar    1  LIG1        0.0049
     11 O          -0.0080   -3.7500    0.0000 O.2     1  LIG1       -0.2636
     12 C          -0.0080    0.2500    0.0000 C.2     1  LIG1        0.2885
     13 N           0.8630    0.7460    0.0000 N.am    1  LIG1       -0.1747
     14 C           0.8630    1.7460    0.0000 C.ar    1  LIG1        0.0658
     15 C          -0.0080    2.2460    0.0000 C.ar    1  LIG1       -0.0068
     16 C          -0.0080    3.2460    0.0000 C.ar    1  LIG1       -0.0030
     17 C           0.8630    3.7540    0.0000 C.ar    1  LIG1       -0.0006
     18 C           1.7290    3.2460    0.0000 C.ar    1  LIG1       -0.0030
     19 C           1.7290    2.2460    0.0000 C.ar    1  LIG1       -0.0068
     20 C           2.5920    1.7460    0.0000 C.3     1  LIG1        0.0324
     21 C          -0.8670    1.7460    0.0000 C.3     1  LIG1        0.0324
     22 O          -0.8670    0.7460    0.0000 O.2     1  LIG1       -0.2663
@<TRIPOS>BOND
     1     1     2   ar
     2     1     6   ar
     3     1    12    1
     4     2     3   ar
     5     3     4   ar
     6     4     5   ar
     7     4    11    2
     8     5     6   ar
     9     5    10   ar
    10     6     7   ar
    11     7     8   ar
    12     8     9   ar
    13     9    10   ar
    14    12    13   am
    15    12    22    2
    16    13    14    1
    17    14    15   ar
    18    14    19   ar
    19    15    16   ar
    20    15    21    1
    21    16    17   ar
    22    17    18   ar
    23    18    19   ar
    24    19    20    1
