@<TRIPOS>MOLECULE
33857_ChemDiv_8015-6498
 22 24 0 0 0
SMALL
GASTEIGER
Energy = 0

@<TRIPOS>ATOM
      1 C          -0.8670   -0.5000    0.0000 C.ar    1  LIG1        0.1582
      2 N          -0.8670    0.4960    0.0000 N.ar    1  LIG1       -0.1402
      3 N          -1.7290    0.9960    0.0000 N.ar    1  LIG1       -0.1054
      4 C          -2.5960    0.4960    0.0000 C.ar    1  LIG1        0.2968
      5 C          -2.5960   -0.5000    0.0000 C.ar    1  LIG1        0.0658
      6 C          -1.7290   -1.0000    0.0000 C.ar    1  LIG1        0.0306
      7 O          -3.4670    0.9960    0.0000 O.2     1  LIG1       -0.2636
      8 C           0.0040   -1.0000    0.0000 C.2     1  LIG1        0.2885
      9 N           0.8670   -0.5000    0.0000 N.am    1  LIG1       -0.1741
     10 C           1.7290   -1.0000    0.0000 C.ar    1  LIG1        0.0737
     11 C           2.6000   -0.5000    0.0000 C.ar    1  LIG1        0.0154
     12 C           2.6000    0.4960    0.0000 C.ar    1  LIG1        0.0013
     13 C           1.7290    0.9960    0.0000 C.ar    1  LIG1        0.0000
     14 C           1.7290    1.9960    0.0000 C.ar    1  LIG1        0.0000
     15 C           2.6000    2.5040    0.0000 C.ar    1  LIG1        0.0000
     16 C           3.4630    1.9960    0.0000 C.ar    1  LIG1        0.0000
     17 C           3.4630    0.9960    0.0000 C.ar    1  LIG1        0.0000
     18 C           3.4630   -1.0000    0.0000 C.ar    1  LIG1        0.0013
     19 C           3.4630   -2.0000    0.0000 C.ar    1  LIG1        0.0001
     20 C           2.6000   -2.5000    0.0000 C.ar    1  LIG1        0.0013
     21 C           1.7290   -2.0000    0.0000 C.ar    1  LIG1        0.0166
     22 O           0.0040   -2.0000    0.0000 O.2     1  LIG1       -0.2663
@<TRIPOS>BOND
     1     1     2   ar
     2     1     6   ar
     3     1     8    1
     4     2     3   ar
     5     3     4   ar
     6     4     5   ar
     7     4     7    2
     8     5     6   ar
     9     8     9   am
    10     8    22    2
    11     9    10    1
    12    10    11   ar
    13    10    21   ar
    14    11    12    1
    15    11    18   ar
    16    12    13   ar
    17    12    17   ar
    18    13    14   ar
    19    14    15   ar
    20    15    16   ar
    21    16    17   ar
    22    18    19   ar
    23    19    20   ar
    24    20    21   ar
