@<TRIPOS>MOLECULE
33863_ChemDiv_8016-9966
 31 34 0 0 0
SMALL
GASTEIGER
Energy = 0

@<TRIPOS>ATOM
      1 C           2.1540   -0.7420    0.0000 C.ar    1  LIG1        0.1562
      2 N           3.0250   -1.2540    0.0000 N.ar    1  LIG1       -0.1621
      3 N           3.0250   -2.2630    0.0000 N.ar    1  LIG1       -0.2145
      4 C           2.1500   -2.7630    0.0000 C.ar    1  LIG1        0.2764
      5 C           1.2790   -2.2540    0.0000 C.ar    1  LIG1        0.0592
      6 C           1.2880   -1.2540    0.0000 C.ar    1  LIG1        0.0285
      7 C           0.4170   -0.7540    0.0000 C.ar    1  LIG1        0.0019
      8 C          -0.4330   -1.2540    0.0000 C.ar    1  LIG1        0.0001
      9 C          -0.4420   -2.2540    0.0000 C.ar    1  LIG1        0.0002
     10 C           0.4250   -2.7540    0.0000 C.ar    1  LIG1        0.0048
     11 O           2.1420   -3.7540    0.0000 O.2     1  LIG1       -0.2655
     12 C           3.8880   -2.7630    0.0000 C.3     1  LIG1        0.1571
     13 C           2.1540    0.2580    0.0000 C.2     1  LIG1        0.2884
     14 N           1.2880    0.7500    0.0000 N.am    1  LIG1       -0.1740
     15 C           1.2920    1.7580    0.0000 C.ar    1  LIG1        0.0781
     16 C           0.4290    2.2580    0.0000 C.ar    1  LIG1        0.0707
     17 C          -0.4330    1.7580    0.0000 C.2     1  LIG1        0.2702
     18 N          -0.4330    0.7630    0.0000 N.am    1  LIG1       -0.1754
     19 C          -1.3040    0.2710    0.0000 C.ar    1  LIG1        0.0734
     20 C          -2.1670    0.7710    0.0000 C.ar    1  LIG1        0.0124
     21 C          -3.0290    0.2750    0.0000 C.ar    1  LIG1       -0.0206
     22 C          -3.0290   -0.7250    0.0000 C.ar    1  LIG1       -0.0042
     23 C          -2.1580   -1.2250    0.0000 C.ar    1  LIG1        0.0010
     24 C          -1.3040   -0.7250    0.0000 C.ar    1  LIG1        0.0166
     25 C          -3.8920    0.7750    0.0000 C.3     1  LIG1        0.0311
     26 O          -1.2960    2.2670    0.0000 O.2     1  LIG1       -0.2680
     27 C           0.4290    3.2580    0.0000 C.ar    1  LIG1        0.0059
     28 C           1.3040    3.7580    0.0000 C.ar    1  LIG1        0.0002
     29 C           2.1750    3.2500    0.0000 C.ar    1  LIG1        0.0013
     30 C           2.1670    2.2500    0.0000 C.ar    1  LIG1        0.0168
     31 O           3.0170    0.7500    0.0000 O.2     1  LIG1       -0.2663
@<TRIPOS>BOND
     1     1     2   ar
     2     1     6   ar
     3     1    13    1
     4     2     3   ar
     5     3     4   ar
     6     3    12    1
     7     4     5   ar
     8     4    11    2
     9     5     6   ar
    10     5    10   ar
    11     6     7   ar
    12     7     8   ar
    13     8     9   ar
    14     9    10   ar
    15    13    14   am
    16    13    31    2
    17    14    15    1
    18    15    16   ar
    19    15    30   ar
    20    16    17    1
    21    16    27   ar
    22    17    18   am
    23    17    26    2
    24    18    19    1
    25    19    20   ar
    26    19    24   ar
    27    20    21   ar
    28    21    22   ar
    29    21    25    1
    30    22    23   ar
    31    23    24   ar
    32    27    28   ar
    33    28    29   ar
    34    29    30   ar
