@<TRIPOS>MOLECULE
33869_ChemDiv_8010-5001
 19 21 0 0 0
SMALL
GASTEIGER
Energy = 0

@<TRIPOS>ATOM
      1 C          -1.8830   -0.3330    0.0000 C.ar    1  LIG1        0.2339
      2 C          -3.4170   -0.3330    0.0000 C.ar    1  LIG1        0.2468
      3 N          -3.4170   -1.2210    0.0000 N.ar    1  LIG1       -0.0284
      4 O          -2.6500   -1.6630    0.0000 O.2     1  LIG1       -0.2389
      5 N          -1.8830   -1.2210    0.0000 N.ar    1  LIG1       -0.0297
      6 N          -4.2880    0.1670    0.0000 N.pl3   1  LIG1       -0.1005
      7 N          -1.0210    0.1670    0.0000 N.am    1  LIG1       -0.1525
      8 C          -0.1380   -0.3460    0.0000 C.2     1  LIG1        0.2772
      9 O          -0.1380   -1.3500    0.0000 O.2     1  LIG1       -0.2702
     10 C           0.7500    0.1670    0.0000 C.3     1  LIG1        0.2292
     11 O           1.6670   -0.3580    0.0000 O.3     1  LIG1       -0.3408
     12 C           2.5080    0.1380    0.0000 C.3     1  LIG1        0.1726
     13 C           3.4000   -0.3580    0.0000 C.3     1  LIG1        0.1684
     14 N           4.2830    0.1380    0.0000 N.4     1  LIG1        0.3791
     15 C           3.8210    0.8170    0.0000 C.3     1  LIG1        0.1387
     16 C           3.0380    0.3540    0.0000 C.3     1  LIG1        0.0655
     17 C           2.5080    1.1670    0.0000 C.3     1  LIG1        0.0451
     18 C           3.4000    1.6670    0.0000 C.3     1  LIG1        0.0655
     19 C           4.2830    1.1670    0.0000 C.3     1  LIG1        0.1387
@<TRIPOS>BOND
     1     1     2   ar
     2     1     5   ar
     3     1     7    1
     4     2     3   ar
     5     2     6    1
     6     3     4   ar
     7     4     5   ar
     8     7     8   am
     9     8     9    2
    10     8    10    1
    11    10    11    1
    12    11    12    1
    13    12    13    1
    14    12    17    1
    15    13    14    1
    16    14    15    1
    17    14    19    1
    18    15    16    1
    19    16    17    1
    20    17    18    1
    21    18    19    1
