@<TRIPOS>MOLECULE
33861_ChemDiv_8016-9961
 28 32 0 0 0
SMALL
GASTEIGER
Energy = 0

@<TRIPOS>ATOM
      1 C           0.4290   -2.1500    0.0000 C.ar    1  LIG1        0.1562
      2 N           1.2920   -2.6540    0.0000 N.ar    1  LIG1       -0.1621
      3 N           1.2920   -3.6630    0.0000 N.ar    1  LIG1       -0.2145
      4 C           0.4250   -4.1540    0.0000 C.ar    1  LIG1        0.2764
      5 C          -0.4380   -3.6540    0.0000 C.ar    1  LIG1        0.0592
      6 C          -0.4380   -2.6540    0.0000 C.ar    1  LIG1        0.0285
      7 C          -1.3000   -2.1630    0.0000 C.ar    1  LIG1        0.0019
      8 C          -2.1580   -2.6540    0.0000 C.ar    1  LIG1        0.0001
      9 C          -2.1580   -3.6540    0.0000 C.ar    1  LIG1        0.0002
     10 C          -1.2960   -4.1540    0.0000 C.ar    1  LIG1        0.0048
     11 O           0.4170   -5.1500    0.0000 O.2     1  LIG1       -0.2655
     12 C           2.1540   -4.1630    0.0000 C.3     1  LIG1        0.1571
     13 C           0.4250   -1.1540    0.0000 C.2     1  LIG1        0.2884
     14 N          -0.4380   -0.6540    0.0000 N.am    1  LIG1       -0.1741
     15 C          -0.4330    0.3500    0.0000 C.ar    1  LIG1        0.0734
     16 C           0.4420    0.8420    0.0000 C.ar    1  LIG1        0.0127
     17 C           0.4500    1.8380    0.0000 C.ar    1  LIG1       -0.0165
     18 C          -0.4210    2.3500    0.0000 C.ar    1  LIG1       -0.0039
     19 C          -0.2000    3.3250    0.0000 C.ar    1  LIG1       -0.0039
     20 C           0.8040    3.4250    0.0000 C.ar    1  LIG1       -0.0178
     21 C           1.2000    2.5040    0.0000 C.3     1  LIG1        0.0527
     22 C           1.2170    4.3290    0.0000 C.ar    1  LIG1       -0.0039
     23 C           0.6290    5.1500    0.0000 C.ar    1  LIG1       -0.0003
     24 C          -0.3750    5.0420    0.0000 C.ar    1  LIG1       -0.0000
     25 C          -0.7880    4.1290    0.0000 C.ar    1  LIG1       -0.0003
     26 C          -1.2880    1.8500    0.0000 C.ar    1  LIG1        0.0010
     27 C          -1.2880    0.8500    0.0000 C.ar    1  LIG1        0.0166
     28 O           1.2880   -0.6540    0.0000 O.2     1  LIG1       -0.2663
@<TRIPOS>BOND
     1     1     2   ar
     2     1     6   ar
     3     1    13    1
     4     2     3   ar
     5     3     4   ar
     6     3    12    1
     7     4     5   ar
     8     4    11    2
     9     5     6   ar
    10     5    10   ar
    11     6     7   ar
    12     7     8   ar
    13     8     9   ar
    14     9    10   ar
    15    13    14   am
    16    13    28    2
    17    14    15    1
    18    15    16   ar
    19    15    27   ar
    20    16    17   ar
    21    17    18   ar
    22    17    21    1
    23    18    19    1
    24    18    26   ar
    25    19    20   ar
    26    19    25   ar
    27    20    21    1
    28    20    22   ar
    29    22    23   ar
    30    23    24   ar
    31    24    25   ar
    32    26    27   ar
