@<TRIPOS>MOLECULE
33865_ChemDiv_8010-4842
 25 27 0 0 0
SMALL
GASTEIGER
Energy = 0

@<TRIPOS>ATOM
      1 S           0.4790    1.5380    0.0000 S.O2    1  LIG1        0.1734
      2 N          -0.5750    1.5380    0.0000 N.pl3   1  LIG1        0.1292
      3 C          -1.0540    0.7080    0.0000 C.2     1  LIG1        0.3913
      4 N          -0.6000   -0.1080    0.0000 N.2     1  LIG1       -0.0346
      5 C          -1.0540   -0.9380    0.0000 C.ar    1  LIG1        0.1936
      6 C          -1.9880   -0.9380    0.0000 C.ar    1  LIG1        0.0517
      7 C          -2.4420   -0.0670    0.0000 C.2     1  LIG1        0.1111
      8 C          -3.4580   -0.0670    0.0000 C.2     1  LIG1        0.1439
      9 C          -3.9830    0.7920    0.0000 C.1     1  LIG1        0.1111
     10 N          -4.4960    1.6380    0.0000 N.1     1  LIG1       -0.1901
     11 C          -3.9670   -0.9250    0.0000 C.1     1  LIG1        0.1111
     12 N          -4.4580   -1.7920    0.0000 N.1     1  LIG1       -0.1901
     13 C          -2.4250   -1.7170    0.0000 C.ar    1  LIG1        0.0040
     14 C          -2.0080   -2.5330    0.0000 C.ar    1  LIG1        0.0002
     15 C          -1.0670   -2.5330    0.0000 C.ar    1  LIG1        0.0038
     16 C          -0.6130   -1.7540    0.0000 C.ar    1  LIG1        0.0466
     17 C           1.4960    1.5380    0.0000 C.ar    1  LIG1        0.1496
     18 C           1.9420    2.4210    0.0000 C.ar    1  LIG1        0.0220
     19 C           2.9500    2.4210    0.0000 C.ar    1  LIG1       -0.0028
     20 C           3.4670    1.5380    0.0000 C.ar    1  LIG1       -0.0218
     21 C           2.9880    0.6880    0.0000 C.ar    1  LIG1       -0.0028
     22 C           1.9580    0.6880    0.0000 C.ar    1  LIG1        0.0220
     23 C           4.4920    1.5380    0.0000 C.3     1  LIG1        0.0310
     24 O           0.4790    2.5380    0.0000 O.2     1  LIG1       -0.1267
     25 O           0.4790    0.5540    0.0000 O.2     1  LIG1       -0.1267
@<TRIPOS>BOND
     1     1     2    1
     2     1    17    1
     3     1    24    2
     4     1    25    2
     5     2     3    1
     6     3     4    2
     7     3     7    1
     8     4     5    1
     9     5     6   ar
    10     5    16   ar
    11     6     7    1
    12     6    13   ar
    13     7     8    2
    14     8     9    1
    15     8    11    1
    16     9    10    3
    17    11    12    3
    18    13    14   ar
    19    14    15   ar
    20    15    16   ar
    21    17    18   ar
    22    17    22   ar
    23    18    19   ar
    24    19    20   ar
    25    20    21   ar
    26    20    23    1
    27    21    22   ar
