@<TRIPOS>MOLECULE
33870_ChemDiv_8012-4799
 24 25 0 0 0
SMALL
GASTEIGER
Energy = 0

@<TRIPOS>ATOM
      1 S          -0.4290    1.5130    0.0000 S.O2    1  LIG1        0.0633
      2 C          -0.4290    0.5130    0.0000 C.ar    1  LIG1        0.1238
      3 C           0.4460    0.0130    0.0000 C.ar    1  LIG1        0.0393
      4 C           0.4460   -1.0040    0.0000 C.ar    1  LIG1        0.1164
      5 N           1.2960   -1.5040    0.0000 N.ar    1  LIG1       -0.2407
      6 C           2.1920   -1.0040    0.0000 C.ar    1  LIG1        0.0989
      7 C           2.1920    0.0130    0.0000 C.ar    1  LIG1        0.0207
      8 C           1.2960    0.5130    0.0000 C.ar    1  LIG1        0.0045
      9 C          -0.4290   -1.5040    0.0000 C.ar    1  LIG1        0.1563
     10 C          -1.3000   -1.0040    0.0000 C.ar    1  LIG1        0.0398
     11 C          -1.3000    0.0130    0.0000 C.ar    1  LIG1        0.0231
     12 O          -0.4290   -2.5000    0.0000 O.3     1  LIG1       -0.4699
     13 C          -1.2790   -3.0000    0.0000 C.3     1  LIG1        0.2525
     14 N          -0.4290    2.5040    0.0000 N.3     1  LIG1       -0.1555
     15 C           0.4460    3.0040    0.0000 C.3     1  LIG1        0.0958
     16 C           1.2750    2.4670    0.0000 C.3     1  LIG1        0.0191
     17 C           2.2630    2.9210    0.0000 C.3     1  LIG1        0.0015
     18 C           3.0130    2.5210    0.0000 C.3     1  LIG1        0.0000
     19 C          -1.3000    3.0040    0.0000 C.3     1  LIG1        0.0958
     20 C          -2.1540    2.4830    0.0000 C.3     1  LIG1        0.0191
     21 C          -2.1630    1.4920    0.0000 C.3     1  LIG1        0.0015
     22 C          -3.0170    0.9710    0.0000 C.3     1  LIG1        0.0000
     23 O           0.5670    1.5130    0.0000 O.2     1  LIG1       -0.1528
     24 O          -1.4250    1.5130    0.0000 O.2     1  LIG1       -0.1528
@<TRIPOS>BOND
     1     1     2    1
     2     1    14    1
     3     1    23    2
     4     1    24    2
     5     2     3   ar
     6     2    11   ar
     7     3     4   ar
     8     3     8   ar
     9     4     5   ar
    10     4     9   ar
    11     5     6   ar
    12     6     7   ar
    13     7     8   ar
    14     9    10   ar
    15     9    12    1
    16    10    11   ar
    17    12    13    1
    18    14    15    1
    19    14    19    1
    20    15    16    1
    21    16    17    1
    22    17    18    1
    23    19    20    1
    24    20    21    1
    25    21    22    1
