@<TRIPOS>MOLECULE
33877_ChemDiv_C301-5423
 33 37 0 0 0
SMALL
GASTEIGER
Energy = 0

@<TRIPOS>ATOM
      1 C          -1.1000    0.3460    0.0000 C.3     1  LIG1        0.1766
      2 C          -1.6790   -0.4710    0.0000 C.2     1  LIG1        0.2289
      3 C          -2.6290   -0.1540    0.0000 C.ar    1  LIG1        0.0440
      4 C          -2.6290    0.8460    0.0000 C.ar    1  LIG1        0.0440
      5 C          -1.6790    1.1580    0.0000 C.2     1  LIG1        0.2289
      6 O          -1.3670    2.1080    0.0000 O.2     1  LIG1       -0.2847
      7 C          -3.4960    1.3540    0.0000 C.ar    1  LIG1        0.0032
      8 C          -4.3630    0.8380    0.0000 C.ar    1  LIG1        0.0001
      9 C          -4.3500   -0.1710    0.0000 C.ar    1  LIG1        0.0001
     10 C          -3.4790   -0.6580    0.0000 C.ar    1  LIG1        0.0032
     11 O          -1.3670   -1.4170    0.0000 O.2     1  LIG1       -0.2847
     12 N          -0.3830   -0.3630    0.0000 N.4     1  LIG1        0.3852
     13 C          -0.6500   -1.3250    0.0000 C.3     1  LIG1        0.1615
     14 C           0.0540   -2.0290    0.0000 C.3     1  LIG1        0.1544
     15 N           1.0210   -1.7670    0.0000 N.pl3   1  LIG1       -0.2975
     16 C           1.7210   -2.4670    0.0000 C.ar    1  LIG1        0.0438
     17 C           2.6880   -2.2170    0.0000 C.ar    1  LIG1       -0.0125
     18 C           3.3920   -2.9210    0.0000 C.ar    1  LIG1       -0.0246
     19 C           3.1380   -3.8880    0.0000 C.ar    1  LIG1       -0.0045
     20 C           2.1750   -4.1460    0.0000 C.ar    1  LIG1        0.0009
     21 C           1.4670   -3.4330    0.0000 C.ar    1  LIG1        0.0142
     22 C           4.3580   -2.6540    0.0000 C.3     1  LIG1        0.0307
     23 C           2.9380   -1.2500    0.0000 C.3     1  LIG1        0.0320
     24 C           1.2830   -0.8000    0.0000 C.3     1  LIG1        0.1544
     25 C           0.5790   -0.0960    0.0000 C.3     1  LIG1        0.1615
     26 C          -0.3830    1.0460    0.0000 C.ar    1  LIG1        0.0374
     27 C           0.5790    0.8080    0.0000 C.ar    1  LIG1        0.0050
     28 C           1.2830    1.5170    0.0000 C.ar    1  LIG1        0.0368
     29 C           1.0170    2.4830    0.0000 C.ar    1  LIG1        0.1387
     30 C           0.0380    2.7330    0.0000 C.ar    1  LIG1        0.0368
     31 C          -0.6540    2.0170    0.0000 C.ar    1  LIG1        0.0050
     32 O           1.7170    3.1960    0.0000 O.3     1  LIG1       -0.4714
     33 C           1.4420    4.1460    0.0000 C.3     1  LIG1        0.2525
@<TRIPOS>BOND
     1     1     2    1
     2     1     5    1
     3     1    12    1
     4     1    26    1
     5     2     3    1
     6     2    11    2
     7     3     4   ar
     8     3    10   ar
     9     4     5    1
    10     4     7   ar
    11     5     6    2
    12     7     8   ar
    13     8     9   ar
    14     9    10   ar
    15    12    13    1
    16    12    25    1
    17    13    14    1
    18    14    15    1
    19    15    16    1
    20    15    24    1
    21    16    17   ar
    22    16    21   ar
    23    17    18   ar
    24    17    23    1
    25    18    19   ar
    26    18    22    1
    27    19    20   ar
    28    20    21   ar
    29    24    25    1
    30    26    27   ar
    31    26    31   ar
    32    27    28   ar
    33    28    29   ar
    34    29    30   ar
    35    29    32    1
    36    30    31   ar
    37    32    33    1
