@<TRIPOS>MOLECULE
33875_ChemDiv_C301-5422
 31 35 0 0 0
SMALL
GASTEIGER
Energy = 0

@<TRIPOS>ATOM
      1 C          -0.6210    0.3460    0.0000 C.3     1  LIG1        0.1766
      2 C          -1.1960   -0.4670    0.0000 C.2     1  LIG1        0.2289
      3 C          -2.1500   -0.1540    0.0000 C.ar    1  LIG1        0.0440
      4 C          -2.1500    0.8460    0.0000 C.ar    1  LIG1        0.0440
      5 C          -1.1960    1.1580    0.0000 C.2     1  LIG1        0.2289
      6 O          -0.8830    2.1080    0.0000 O.2     1  LIG1       -0.2847
      7 C          -3.0170    1.3460    0.0000 C.ar    1  LIG1        0.0032
      8 C          -3.8830    0.8330    0.0000 C.ar    1  LIG1        0.0001
      9 C          -3.8790   -0.1710    0.0000 C.ar    1  LIG1        0.0001
     10 C          -3.0040   -0.6540    0.0000 C.ar    1  LIG1        0.0032
     11 O          -0.8960   -1.4210    0.0000 O.2     1  LIG1       -0.2847
     12 N           0.0880   -0.3580    0.0000 N.4     1  LIG1        0.3852
     13 C          -0.1670   -1.3250    0.0000 C.3     1  LIG1        0.1616
     14 C           0.5380   -2.0290    0.0000 C.3     1  LIG1        0.1555
     15 N           1.5040   -1.7750    0.0000 N.pl3   1  LIG1       -0.2824
     16 C           2.2080   -2.4750    0.0000 C.ar    1  LIG1        0.1320
     17 N           3.1670   -2.2170    0.0000 N.ar    1  LIG1       -0.2292
     18 C           3.8790   -2.9170    0.0000 C.ar    1  LIG1        0.1003
     19 C           3.6170   -3.8880    0.0000 C.ar    1  LIG1        0.0208
     20 C           2.6500   -4.1500    0.0000 C.ar    1  LIG1        0.0045
     21 C           1.9460   -3.4460    0.0000 C.ar    1  LIG1        0.0343
     22 C           1.7580   -0.8040    0.0000 C.3     1  LIG1        0.1555
     23 C           1.0580   -0.0920    0.0000 C.3     1  LIG1        0.1616
     24 C           0.0880    1.0500    0.0000 C.ar    1  LIG1        0.0374
     25 C          -0.1750    2.0170    0.0000 C.ar    1  LIG1        0.0050
     26 C           0.5210    2.7330    0.0000 C.ar    1  LIG1        0.0368
     27 C           1.4960    2.4830    0.0000 C.ar    1  LIG1        0.1387
     28 C           1.7580    1.5170    0.0000 C.ar    1  LIG1        0.0368
     29 C           1.0580    0.8040    0.0000 C.ar    1  LIG1        0.0050
     30 O           2.1960    3.2040    0.0000 O.3     1  LIG1       -0.4714
     31 C           1.9250    4.1500    0.0000 C.3     1  LIG1        0.2525
@<TRIPOS>BOND
     1     1     2    1
     2     1     5    1
     3     1    12    1
     4     1    24    1
     5     2     3    1
     6     2    11    2
     7     3     4   ar
     8     3    10   ar
     9     4     5    1
    10     4     7   ar
    11     5     6    2
    12     7     8   ar
    13     8     9   ar
    14     9    10   ar
    15    12    13    1
    16    12    23    1
    17    13    14    1
    18    14    15    1
    19    15    16    1
    20    15    22    1
    21    16    17   ar
    22    16    21   ar
    23    17    18   ar
    24    18    19   ar
    25    19    20   ar
    26    20    21   ar
    27    22    23    1
    28    24    25   ar
    29    24    29   ar
    30    25    26   ar
    31    26    27   ar
    32    27    28   ar
    33    27    30    1
    34    28    29   ar
    35    30    31    1
