@<TRIPOS>MOLECULE
33879_ChemDiv_C301-5424
 33 37 0 0 0
SMALL
GASTEIGER
Energy = 0

@<TRIPOS>ATOM
      1 C          -0.6170    0.8290    0.0000 C.3     1  LIG1        0.1766
      2 C          -1.1960    0.0170    0.0000 C.2     1  LIG1        0.2289
      3 C          -2.1500    0.3290    0.0000 C.ar    1  LIG1        0.0440
      4 C          -2.1500    1.3290    0.0000 C.ar    1  LIG1        0.0440
      5 C          -1.1960    1.6420    0.0000 C.2     1  LIG1        0.2289
      6 O          -0.8830    2.5920    0.0000 O.2     1  LIG1       -0.2847
      7 C          -3.0130    1.8290    0.0000 C.ar    1  LIG1        0.0032
      8 C          -3.8790    1.3170    0.0000 C.ar    1  LIG1        0.0001
      9 C          -3.8710    0.3130    0.0000 C.ar    1  LIG1        0.0001
     10 C          -2.9960   -0.1710    0.0000 C.ar    1  LIG1        0.0032
     11 O          -0.8830   -0.9330    0.0000 O.2     1  LIG1       -0.2847
     12 N           0.1000    0.1250    0.0000 N.4     1  LIG1        0.3852
     13 C           1.0630    0.3920    0.0000 C.3     1  LIG1        0.1615
     14 C           1.7710   -0.3210    0.0000 C.3     1  LIG1        0.1544
     15 N           1.5040   -1.2880    0.0000 N.pl3   1  LIG1       -0.2975
     16 C           2.2080   -1.9920    0.0000 C.ar    1  LIG1        0.0438
     17 C           3.1750   -1.7290    0.0000 C.ar    1  LIG1       -0.0085
     18 C           3.8750   -2.4330    0.0000 C.ar    1  LIG1       -0.0034
     19 C           3.6210   -3.4000    0.0000 C.ar    1  LIG1       -0.0045
     20 C           2.6580   -3.6670    0.0000 C.ar    1  LIG1       -0.0206
     21 C           1.9500   -2.9580    0.0000 C.ar    1  LIG1        0.0099
     22 C           2.3960   -4.6290    0.0000 C.3     1  LIG1        0.0311
     23 C           3.4250   -0.7630    0.0000 C.3     1  LIG1        0.0323
     24 C           0.5380   -1.5420    0.0000 C.3     1  LIG1        0.1544
     25 C          -0.1670   -0.8420    0.0000 C.3     1  LIG1        0.1615
     26 C           0.1000    1.5330    0.0000 C.ar    1  LIG1        0.0374
     27 C           1.0630    1.2880    0.0000 C.ar    1  LIG1        0.0050
     28 C           1.7710    2.0000    0.0000 C.ar    1  LIG1        0.0368
     29 C           1.5000    2.9670    0.0000 C.ar    1  LIG1        0.1387
     30 C           0.5210    3.2170    0.0000 C.ar    1  LIG1        0.0368
     31 C          -0.1710    2.5000    0.0000 C.ar    1  LIG1        0.0050
     32 O           2.2000    3.6880    0.0000 O.3     1  LIG1       -0.4714
     33 C           1.9250    4.6290    0.0000 C.3     1  LIG1        0.2525
@<TRIPOS>BOND
     1     1     2    1
     2     1     5    1
     3     1    12    1
     4     1    26    1
     5     2     3    1
     6     2    11    2
     7     3     4   ar
     8     3    10   ar
     9     4     5    1
    10     4     7   ar
    11     5     6    2
    12     7     8   ar
    13     8     9   ar
    14     9    10   ar
    15    12    13    1
    16    12    25    1
    17    13    14    1
    18    14    15    1
    19    15    16    1
    20    15    24    1
    21    16    17   ar
    22    16    21   ar
    23    17    18   ar
    24    17    23    1
    25    18    19   ar
    26    19    20   ar
    27    20    21   ar
    28    20    22    1
    29    24    25    1
    30    26    27   ar
    31    26    31   ar
    32    27    28   ar
    33    28    29   ar
    34    29    30   ar
    35    29    32    1
    36    30    31   ar
    37    32    33    1
