@<TRIPOS>MOLECULE
33874_ChemDiv_8012-0386
 26 28 0 0 0
SMALL
GASTEIGER
Energy = 0

@<TRIPOS>ATOM
      1 C          -1.3080   -0.4040    0.0000 C.ar    1  LIG1        0.1086
      2 C          -2.7710    0.4460    0.0000 C.ar    1  LIG1        0.0933
      3 C          -3.2580   -0.4040    0.0000 C.ar    1  LIG1       -0.0118
      4 C          -2.7710   -1.2790    0.0000 C.ar    1  LIG1        0.0051
      5 S          -1.8330   -1.2790    0.0000 S.2     1  LIG1       -0.0749
      6 C          -3.2330   -2.1170    0.0000 C.3     1  LIG1        0.0379
      7 C          -4.2580   -0.4040    0.0000 C.3     1  LIG1        0.0315
      8 C          -3.2580    1.2960    0.0000 C.2     1  LIG1        0.3427
      9 O          -2.7500    2.0960    0.0000 O.2     1  LIG1       -0.2448
     10 O          -4.2670    1.3130    0.0000 O.3     1  LIG1       -0.4454
     11 C          -4.6920    2.1210    0.0000 C.3     1  LIG1        0.2089
     12 C          -5.6960    2.1210    0.0000 C.3     1  LIG1        0.0513
     13 N          -0.4420   -0.4040    0.0000 N.am    1  LIG1       -0.1686
     14 C           0.0500    0.4250    0.0000 C.2     1  LIG1        0.2694
     15 C           1.0170    0.4250    0.0000 C.ar    1  LIG1        0.0555
     16 C           1.5170    1.2170    0.0000 C.ar    1  LIG1        0.0061
     17 C           2.4210    1.2170    0.0000 C.ar    1  LIG1        0.0194
     18 C           2.8920    0.4250    0.0000 C.ar    1  LIG1        0.0863
     19 N           3.8170    0.4250    0.0000 N.ar    1  LIG1       -0.1886
     20 N           4.2880    1.2170    0.0000 N.ar    1  LIG1       -0.0385
     21 N           5.6920    0.4250    0.0000 N.ar    1  LIG1       -0.0222
     22 N           5.2170   -0.3790    0.0000 N.ar    1  LIG1       -0.1045
     23 C           4.2880   -0.3790    0.0000 C.ar    1  LIG1        0.2258
     24 C           2.4210   -0.3790    0.0000 C.ar    1  LIG1        0.0194
     25 C           1.5170   -0.3790    0.0000 C.ar    1  LIG1        0.0061
     26 O          -0.4210    1.2500    0.0000 O.2     1  LIG1       -0.2680
@<TRIPOS>BOND
     1     1     2   ar
     2     1     5   ar
     3     1    13    1
     4     2     3   ar
     5     2     8    1
     6     3     4   ar
     7     3     7    1
     8     4     5   ar
     9     4     6    1
    10     8     9    2
    11     8    10    1
    12    10    11    1
    13    11    12    1
    14    13    14   am
    15    14    15    1
    16    14    26    2
    17    15    16   ar
    18    15    25   ar
    19    16    17   ar
    20    17    18   ar
    21    18    19    1
    22    18    24   ar
    23    19    20   ar
    24    19    23   ar
    25    20    21   ar
    26    21    22   ar
    27    22    23   ar
    28    24    25   ar
