@<TRIPOS>MOLECULE
33881_ChemDiv_C301-5425
 31 34 0 0 0
SMALL
GASTEIGER
Energy = 0

@<TRIPOS>ATOM
      1 C          -0.3880    0.3790    0.0000 C.3     1  LIG1        0.2282
      2 C          -0.9670   -0.4380    0.0000 C.2     1  LIG1        0.2345
      3 C          -1.9210   -0.1250    0.0000 C.ar    1  LIG1        0.0442
      4 C          -1.9210    0.8790    0.0000 C.ar    1  LIG1        0.0442
      5 C          -0.9670    1.1920    0.0000 C.2     1  LIG1        0.2345
      6 O          -0.6540    2.1420    0.0000 O.2     1  LIG1       -0.2845
      7 C          -2.7880    1.3790    0.0000 C.ar    1  LIG1        0.0032
      8 C          -3.6540    0.8670    0.0000 C.ar    1  LIG1        0.0001
      9 C          -3.6500   -0.1380    0.0000 C.ar    1  LIG1        0.0001
     10 C          -2.7750   -0.6250    0.0000 C.ar    1  LIG1        0.0032
     11 O          -0.6630   -1.3880    0.0000 O.2     1  LIG1       -0.2845
     12 N           0.3210   -0.3250    0.0000 N.4     1  LIG1        0.4575
     13 C           0.0670   -1.2960    0.0000 C.3     1  LIG1        0.2328
     14 C           0.7710   -2.0000    0.0000 C.ar    1  LIG1        0.0772
     15 C           0.5080   -2.9670    0.0000 C.ar    1  LIG1        0.1406
     16 C           1.2130   -3.6710    0.0000 C.ar    1  LIG1        0.0399
     17 C           2.1790   -3.4040    0.0000 C.ar    1  LIG1        0.0400
     18 C           2.4290   -2.4380    0.0000 C.ar    1  LIG1        0.1388
     19 C           1.7290   -1.7420    0.0000 C.ar    1  LIG1        0.0416
     20 O           3.4000   -2.1790    0.0000 O.3     1  LIG1       -0.4714
     21 C           3.6500   -1.2130    0.0000 C.3     1  LIG1        0.2525
     22 O          -0.4500   -3.2170    0.0000 O.3     1  LIG1       -0.4715
     23 C          -0.7130   -4.1880    0.0000 C.3     1  LIG1        0.2525
     24 C           0.3210    1.0790    0.0000 C.ar    1  LIG1        0.0428
     25 C           1.2920    0.8380    0.0000 C.ar    1  LIG1        0.0052
     26 C           1.9920    1.5500    0.0000 C.ar    1  LIG1        0.0368
     27 C           1.7290    2.5170    0.0000 C.ar    1  LIG1        0.1387
     28 C           0.7540    2.7670    0.0000 C.ar    1  LIG1        0.0368
     29 C           0.0540    2.0500    0.0000 C.ar    1  LIG1        0.0052
     30 O           2.4290    3.2380    0.0000 O.3     1  LIG1       -0.4714
     31 C           2.1580    4.1880    0.0000 C.3     1  LIG1        0.2525
@<TRIPOS>BOND
     1     1     2    1
     2     1     5    1
     3     1    12    1
     4     1    24    1
     5     2     3    1
     6     2    11    2
     7     3     4   ar
     8     3    10   ar
     9     4     5    1
    10     4     7   ar
    11     5     6    2
    12     7     8   ar
    13     8     9   ar
    14     9    10   ar
    15    12    13    1
    16    13    14    1
    17    14    15   ar
    18    14    19   ar
    19    15    16   ar
    20    15    22    1
    21    16    17   ar
    22    17    18   ar
    23    18    19   ar
    24    18    20    1
    25    20    21    1
    26    22    23    1
    27    24    25   ar
    28    24    29   ar
    29    25    26   ar
    30    26    27   ar
    31    27    28   ar
    32    27    30    1
    33    28    29   ar
    34    30    31    1
