@<TRIPOS>MOLECULE
33883_ChemDiv_E938-0001
 30 34 0 0 0
SMALL
GASTEIGER
Energy = 0

@<TRIPOS>ATOM
      1 C          -1.1790    1.0040    0.0000 C.3     1  LIG1        0.1766
      2 C          -1.7630    0.2000    0.0000 C.2     1  LIG1        0.2289
      3 C          -2.7040    0.5000    0.0000 C.ar    1  LIG1        0.0440
      4 C          -2.7080    1.4880    0.0000 C.ar    1  LIG1        0.0440
      5 C          -1.7710    1.8040    0.0000 C.2     1  LIG1        0.2289
      6 O          -1.5170    2.7670    0.0000 O.2     1  LIG1       -0.2847
      7 C          -3.5670    1.9830    0.0000 C.ar    1  LIG1        0.0032
      8 C          -4.4210    1.4880    0.0000 C.ar    1  LIG1        0.0001
      9 C          -4.4210    0.4960    0.0000 C.ar    1  LIG1        0.0001
     10 C          -3.5670    0.0000    0.0000 C.ar    1  LIG1        0.0032
     11 O          -1.5040   -0.7540    0.0000 O.2     1  LIG1       -0.2847
     12 N          -0.2290    0.0540    0.0000 N.4     1  LIG1        0.3852
     13 C          -0.4790   -0.9000    0.0000 C.3     1  LIG1        0.1616
     14 C           0.2170   -1.5960    0.0000 C.3     1  LIG1        0.1568
     15 N           1.1630   -1.3460    0.0000 N.am    1  LIG1       -0.2620
     16 C           1.8750   -2.0420    0.0000 C.2     1  LIG1        0.2841
     17 C           2.8330   -1.7790    0.0000 C.ar    1  LIG1        0.1987
     18 O           3.1710   -0.8500    0.0000 O.2     1  LIG1       -0.4458
     19 C           4.1580   -0.8960    0.0000 C.ar    1  LIG1        0.1798
     20 C           4.4170   -1.8420    0.0000 C.ar    1  LIG1        0.0440
     21 C           3.5920   -2.3960    0.0000 C.ar    1  LIG1        0.0455
     22 O           1.6210   -2.9920    0.0000 O.2     1  LIG1       -0.2666
     23 C           1.4210   -0.3830    0.0000 C.3     1  LIG1        0.1568
     24 C           0.7250    0.3080    0.0000 C.3     1  LIG1        0.1616
     25 C          -0.3290    1.5080    0.0000 C.ar    1  LIG1        0.0372
     26 C          -0.3420    2.4920    0.0000 C.ar    1  LIG1        0.0019
     27 C           0.5130    2.9960    0.0000 C.ar    1  LIG1       -0.0001
     28 C           1.3750    2.5080    0.0000 C.ar    1  LIG1       -0.0000
     29 C           1.3880    1.5130    0.0000 C.ar    1  LIG1       -0.0001
     30 C           0.5330    1.0130    0.0000 C.ar    1  LIG1        0.0019
@<TRIPOS>BOND
     1     1     2    1
     2     1     5    1
     3     1    12    1
     4     1    25    1
     5     2     3    1
     6     2    11    2
     7     3     4   ar
     8     3    10   ar
     9     4     5    1
    10     4     7   ar
    11     5     6    2
    12     7     8   ar
    13     8     9   ar
    14     9    10   ar
    15    12    13    1
    16    12    24    1
    17    13    14    1
    18    14    15    1
    19    15    16   am
    20    15    23    1
    21    16    17    1
    22    16    22    2
    23    17    18   ar
    24    17    21   ar
    25    18    19   ar
    26    19    20   ar
    27    20    21   ar
    28    23    24    1
    29    25    26   ar
    30    25    30   ar
    31    26    27   ar
    32    27    28   ar
    33    28    29   ar
    34    29    30   ar
