@<TRIPOS>MOLECULE
33892_ChemDiv_C301-0704
 26 30 0 0 0
SMALL
GASTEIGER
Energy = 0

@<TRIPOS>ATOM
      1 C          -2.5960    1.0130    0.0000 C.ar    1  LIG1        0.2197
      2 N          -3.4580    0.5290    0.0000 N.ar    1  LIG1       -0.1874
      3 N          -4.1880    1.2040    0.0000 N.ar    1  LIG1       -0.0384
      4 N          -3.7750    2.1000    0.0000 N.ar    1  LIG1       -0.0222
      5 N          -2.7880    1.9830    0.0000 N.ar    1  LIG1       -0.1048
      6 C          -3.4710   -0.4750    0.0000 C.ar    1  LIG1        0.1038
      7 C          -2.6080   -0.9920    0.0000 C.ar    1  LIG1        0.1005
      8 N          -1.7290   -0.5000    0.0000 N.ar    1  LIG1       -0.2260
      9 C          -1.7290    0.5080    0.0000 C.ar    1  LIG1        0.1697
     10 N          -0.8540    0.9960    0.0000 N.pl3   1  LIG1       -0.2908
     11 C           0.0080    0.4790    0.0000 C.3     1  LIG1        0.0923
     12 C           0.8750    0.9710    0.0000 C.3     1  LIG1        0.0219
     13 C           0.8920    1.9790    0.0000 C.3     1  LIG1        0.0078
     14 C           1.7670    2.4630    0.0000 C.3     1  LIG1        0.0265
     15 C           2.6290    1.9500    0.0000 C.ar    1  LIG1       -0.0222
     16 C           2.6040    0.9500    0.0000 C.ar    1  LIG1       -0.0043
     17 C           3.4670    0.4380    0.0000 C.ar    1  LIG1       -0.0003
     18 C           4.3380    0.9330    0.0000 C.ar    1  LIG1       -0.0000
     19 C           4.3460    1.9330    0.0000 C.ar    1  LIG1       -0.0003
     20 C           3.4920    2.4380    0.0000 C.ar    1  LIG1       -0.0043
     21 C           0.0290    2.4920    0.0000 C.3     1  LIG1        0.0219
     22 C          -0.8500    1.9920    0.0000 C.3     1  LIG1        0.0923
     23 C          -2.6210   -1.9920    0.0000 C.ar    1  LIG1        0.0207
     24 C          -3.4830   -2.4880    0.0000 C.ar    1  LIG1        0.0016
     25 C          -4.3500   -1.9750    0.0000 C.ar    1  LIG1        0.0016
     26 C          -4.3380   -0.9750    0.0000 C.ar    1  LIG1        0.0208
@<TRIPOS>BOND
     1     1     2   ar
     2     1     5   ar
     3     1     9   ar
     4     2     3   ar
     5     2     6   ar
     6     3     4   ar
     7     4     5   ar
     8     6     7   ar
     9     6    26   ar
    10     7     8   ar
    11     7    23   ar
    12     8     9   ar
    13     9    10    1
    14    10    11    1
    15    10    22    1
    16    11    12    1
    17    12    13    1
    18    13    14    1
    19    13    21    1
    20    14    15    1
    21    15    16   ar
    22    15    20   ar
    23    16    17   ar
    24    17    18   ar
    25    18    19   ar
    26    19    20   ar
    27    21    22    1
    28    23    24   ar
    29    24    25   ar
    30    25    26   ar
