@<TRIPOS>MOLECULE
33894_ChemDiv_C301-3414
 25 29 0 0 0
SMALL
GASTEIGER
Energy = 0

@<TRIPOS>ATOM
      1 N          -2.2380    0.9920    0.0000 N.ar    1  LIG1       -0.1873
      2 C          -1.3630    0.4750    0.0000 C.ar    1  LIG1        0.2211
      3 C          -1.3540   -0.5460    0.0000 C.ar    1  LIG1        0.1858
      4 N          -2.2380   -1.0540    0.0000 N.ar    1  LIG1       -0.2248
      5 C          -3.1170   -0.5420    0.0000 C.ar    1  LIG1        0.1006
      6 C          -3.1170    0.4750    0.0000 C.ar    1  LIG1        0.1038
      7 C          -3.9920    0.9790    0.0000 C.ar    1  LIG1        0.0208
      8 C          -4.8670    0.4750    0.0000 C.ar    1  LIG1        0.0016
      9 C          -4.8670   -0.5460    0.0000 C.ar    1  LIG1        0.0016
     10 C          -3.9920   -1.0540    0.0000 C.ar    1  LIG1        0.0207
     11 N          -0.5000   -1.0380    0.0000 N.pl3   1  LIG1       -0.2174
     12 C           0.3460   -0.5460    0.0000 C.3     1  LIG1        0.1186
     13 C           1.2000   -1.0380    0.0000 C.3     1  LIG1        0.0513
     14 C           2.0500   -0.5420    0.0000 C.ar    1  LIG1        0.0002
     15 C           2.1540    0.4380    0.0000 C.ar    1  LIG1        0.0946
     16 N           3.1130    0.6420    0.0000 N.ar    1  LIG1       -0.2442
     17 C           3.6040   -0.2080    0.0000 C.ar    1  LIG1        0.0810
     18 C           2.9420   -0.9420    0.0000 C.ar    1  LIG1        0.0152
     19 C           3.2500   -1.8670    0.0000 C.ar    1  LIG1        0.0012
     20 C           4.2130   -2.0790    0.0000 C.ar    1  LIG1        0.0001
     21 C           4.8630   -1.3420    0.0000 C.ar    1  LIG1        0.0015
     22 C           4.5580   -0.4080    0.0000 C.ar    1  LIG1        0.0191
     23 N          -0.6000    1.1500    0.0000 N.ar    1  LIG1       -0.1048
     24 N          -1.0080    2.0830    0.0000 N.ar    1  LIG1       -0.0222
     25 N          -2.0250    1.9790    0.0000 N.ar    1  LIG1       -0.0384
@<TRIPOS>BOND
     1     1     2   ar
     2     1     6   ar
     3     1    25   ar
     4     2     3   ar
     5     2    23   ar
     6     3     4   ar
     7     3    11    1
     8     4     5   ar
     9     5     6   ar
    10     5    10   ar
    11     6     7   ar
    12     7     8   ar
    13     8     9   ar
    14     9    10   ar
    15    11    12    1
    16    12    13    1
    17    13    14    1
    18    14    15   ar
    19    14    18   ar
    20    15    16   ar
    21    16    17   ar
    22    17    18   ar
    23    17    22   ar
    24    18    19   ar
    25    19    20   ar
    26    20    21   ar
    27    21    22   ar
    28    23    24   ar
    29    24    25   ar
