@<TRIPOS>MOLECULE
33896_ChemDiv_C850-0566
 26 31 0 0 0
SMALL
GASTEIGER
Energy = 0

@<TRIPOS>ATOM
      1 C          -0.3670    1.1960    0.0000 C.ar    1  LIG1        0.2211
      2 N          -1.2250    1.7040    0.0000 N.ar    1  LIG1       -0.1873
      3 N          -1.0080    2.6750    0.0000 N.ar    1  LIG1       -0.0384
      4 N          -0.0170    2.7750    0.0000 N.ar    1  LIG1       -0.0222
      5 N           0.3790    1.8580    0.0000 N.ar    1  LIG1       -0.1048
      6 C          -2.1000    1.2130    0.0000 C.ar    1  LIG1        0.1038
      7 C          -2.1000    0.2130    0.0000 C.ar    1  LIG1        0.1006
      8 N          -1.2420   -0.2960    0.0000 N.ar    1  LIG1       -0.2248
      9 C          -0.3670    0.1960    0.0000 C.ar    1  LIG1        0.1857
     10 N           0.4920   -0.3130    0.0000 N.pl3   1  LIG1       -0.2195
     11 C           0.4790   -1.3130    0.0000 C.3     1  LIG1        0.0941
     12 C           1.3330   -1.8290    0.0000 C.3     1  LIG1        0.0184
     13 C           1.4170   -0.8460    0.0000 C.3     1  LIG1        0.0017
     14 C           2.3630   -0.5580    0.0000 C.3     1  LIG1        0.0001
     15 C           2.8460   -1.3540    0.0000 C.3     1  LIG1        0.0000
     16 C           2.8130   -2.2710    0.0000 C.3     1  LIG1        0.0001
     17 C           1.8920   -2.5750    0.0000 C.3     1  LIG1        0.0017
     18 C           3.8290   -2.7710    0.0000 C.3     1  LIG1        0.0000
     19 C           3.2790   -1.9250    0.0000 C.3     1  LIG1        0.0001
     20 C           2.2960   -2.2290    0.0000 C.3     1  LIG1        0.0017
     21 C           3.3580   -0.9420    0.0000 C.3     1  LIG1        0.0000
     22 C          -0.4000   -1.8040    0.0000 C.3     1  LIG1        0.0234
     23 C          -2.9750   -0.2790    0.0000 C.ar    1  LIG1        0.0207
     24 C          -3.8330    0.2210    0.0000 C.ar    1  LIG1        0.0016
     25 C          -3.8250    1.2210    0.0000 C.ar    1  LIG1        0.0016
     26 C          -2.9580    1.7210    0.0000 C.ar    1  LIG1        0.0208
@<TRIPOS>BOND
     1     1     2   ar
     2     1     5   ar
     3     1     9   ar
     4     2     3   ar
     5     2     6   ar
     6     3     4   ar
     7     4     5   ar
     8     6     7   ar
     9     6    26   ar
    10     7     8   ar
    11     7    23   ar
    12     8     9   ar
    13     9    10    1
    14    10    11    1
    15    11    12    1
    16    11    22    1
    17    12    13    1
    18    12    17    1
    19    12    20    1
    20    13    14    1
    21    14    15    1
    22    14    21    1
    23    15    16    1
    24    16    17    1
    25    16    18    1
    26    18    19    1
    27    19    20    1
    28    19    21    1
    29    23    24   ar
    30    24    25   ar
    31    25    26   ar
