@<TRIPOS>MOLECULE
33898_ChemDiv_C850-0578
 27 31 0 0 0
SMALL
GASTEIGER
Energy = 0

@<TRIPOS>ATOM
      1 N          -2.1420    2.7290    0.0000 N.ar    1  LIG1       -0.1873
      2 C          -1.2830    2.2170    0.0000 C.ar    1  LIG1        0.2211
      3 C          -1.2830    1.2130    0.0000 C.ar    1  LIG1        0.1858
      4 N          -2.1580    0.7250    0.0000 N.ar    1  LIG1       -0.2248
      5 C          -3.0210    1.2330    0.0000 C.ar    1  LIG1        0.1006
      6 C          -3.0210    2.2330    0.0000 C.ar    1  LIG1        0.1038
      7 C          -3.8750    2.7460    0.0000 C.ar    1  LIG1        0.0208
      8 C          -4.7460    2.2460    0.0000 C.ar    1  LIG1        0.0016
      9 C          -4.7540    1.2420    0.0000 C.ar    1  LIG1        0.0016
     10 C          -3.8920    0.7420    0.0000 C.ar    1  LIG1        0.0207
     11 N          -0.4210    0.7080    0.0000 N.pl3   1  LIG1       -0.2175
     12 C          -0.4330   -0.2750    0.0000 C.3     1  LIG1        0.1201
     13 C           0.4170   -0.7750    0.0000 C.3     1  LIG1        0.0860
     14 C           0.4170   -1.7790    0.0000 C.3     1  LIG1        0.1409
     15 N           1.2880   -2.2790    0.0000 N.4     1  LIG1        0.3810
     16 C           2.1540   -1.7790    0.0000 C.3     1  LIG1        0.1659
     17 C           3.0210   -2.2920    0.0000 C.ar    1  LIG1        0.0306
     18 C           3.0040   -3.2960    0.0000 C.ar    1  LIG1       -0.0147
     19 C           2.1380   -3.7920    0.0000 C.3     1  LIG1        0.0889
     20 C           1.2790   -3.2790    0.0000 C.3     1  LIG1        0.1438
     21 C           3.8710   -3.7960    0.0000 C.ar    1  LIG1       -0.0042
     22 C           4.7420   -3.3130    0.0000 C.ar    1  LIG1       -0.0003
     23 C           4.7500   -2.3040    0.0000 C.ar    1  LIG1       -0.0001
     24 C           3.8880   -1.7960    0.0000 C.ar    1  LIG1        0.0011
     25 N          -0.5330    2.8830    0.0000 N.ar    1  LIG1       -0.1048
     26 N          -0.9330    3.8000    0.0000 N.ar    1  LIG1       -0.0222
     27 N          -1.9250    3.7000    0.0000 N.ar    1  LIG1       -0.0384
@<TRIPOS>BOND
     1     1     2   ar
     2     1     6   ar
     3     1    27   ar
     4     2     3   ar
     5     2    25   ar
     6     3     4   ar
     7     3    11    1
     8     4     5   ar
     9     5     6   ar
    10     5    10   ar
    11     6     7   ar
    12     7     8   ar
    13     8     9   ar
    14     9    10   ar
    15    11    12    1
    16    12    13    1
    17    13    14    1
    18    14    15    1
    19    15    16    1
    20    15    20    1
    21    16    17    1
    22    17    18   ar
    23    17    24   ar
    24    18    19    1
    25    18    21   ar
    26    19    20    1
    27    21    22   ar
    28    22    23   ar
    29    23    24   ar
    30    25    26   ar
    31    26    27   ar
