@<TRIPOS>MOLECULE
33906_ChemDiv_8012-0484
 24 26 0 0 0
SMALL
GASTEIGER
Energy = 0

@<TRIPOS>ATOM
      1 C           1.2000    0.0580    0.0000 C.ar    1  LIG1        0.0441
      2 C           0.2250    0.0670    0.0000 C.ar    1  LIG1        0.0435
      3 N          -0.2540   -0.8000    0.0000 N.ar    1  LIG1       -0.3137
      4 C           0.2380   -1.6290    0.0000 C.ar    1  LIG1        0.0379
      5 C           1.6380   -0.8670    0.0000 C.ar    1  LIG1       -0.0008
      6 C           2.6790   -0.8670    0.0000 C.3     1  LIG1        0.0692
      7 C           3.1580   -1.7170    0.0000 C.2     1  LIG1        0.0548
      8 O           2.6290   -2.5830    0.0000 O.co2   1  LIG1       -0.5488
      9 O           4.1330   -1.7170    0.0000 O.co2   1  LIG1       -0.5488
     10 C          -0.2460   -2.4630    0.0000 C.3     1  LIG1        0.0500
     11 C          -1.2250   -0.8000    0.0000 C.ar    1  LIG1        0.0634
     12 C          -1.6960   -1.6460    0.0000 C.ar    1  LIG1        0.0180
     13 C          -2.6540   -1.6460    0.0000 C.ar    1  LIG1        0.0082
     14 C          -3.1500   -0.8250    0.0000 C.ar    1  LIG1        0.0347
     15 C          -2.6710    0.0420    0.0000 C.ar    1  LIG1        0.0082
     16 C          -1.7080    0.0420    0.0000 C.ar    1  LIG1        0.0180
     17 BR         -4.1380   -0.8250    0.0000 Br      1  LIG1       -0.0490
     18 C          -0.2710    0.8750    0.0000 C.3     1  LIG1        0.0446
     19 C           0.2170    1.7250    0.0000 C.3     1  LIG1        0.0128
     20 C           1.1710    1.7250    0.0000 C.3     1  LIG1        0.0695
     21 C           1.6540    0.8960    0.0000 C.2     1  LIG1        0.1739
     22 O           2.6500    0.8960    0.0000 O.2     1  LIG1       -0.2913
     23 C          -0.7290    1.7130    0.0000 C.3     1  LIG1        0.0008
     24 C           0.6830    2.5880    0.0000 C.3     1  LIG1        0.0008
@<TRIPOS>BOND
     1     1     2   ar
     2     1     5   ar
     3     1    21    1
     4     2     3   ar
     5     2    18    1
     6     3     4   ar
     7     3    11    1
     8     4     5   ar
     9     4    10    1
    10     5     6    1
    11     6     7    1
    12     7     8   ar
    13     7     9   ar
    14    11    12   ar
    15    11    16   ar
    16    12    13   ar
    17    13    14   ar
    18    14    15   ar
    19    14    17    1
    20    15    16   ar
    21    18    19    1
    22    19    20    1
    23    19    23    1
    24    19    24    1
    25    20    21    1
    26    21    22    2
