@<TRIPOS>MOLECULE
33903_ChemDiv_8011-7132
 19 22 0 0 0
SMALL
GASTEIGER
Energy = 0

@<TRIPOS>ATOM
      1 C          -0.4630    0.2710    0.0000 C.ar    1  LIG1        0.4776
      2 N          -0.4630    1.2290    0.0000 N.ar    1  LIG1       -0.1442
      3 N          -1.3080    1.6960    0.0000 N.ar    1  LIG1       -0.1621
      4 C          -2.1380    1.2290    0.0000 C.ar    1  LIG1        0.0928
      5 C          -2.1380    0.2710    0.0000 C.ar    1  LIG1        0.0817
      6 N          -1.3080   -0.2080    0.0000 N.ar    1  LIG1       -0.1649
      7 C          -2.9750   -0.2080    0.0000 C.3     1  LIG1        0.0474
      8 C          -3.8170    0.2710    0.0000 C.3     1  LIG1        0.0067
      9 C          -3.8170    1.2290    0.0000 C.3     1  LIG1        0.0068
     10 C          -2.9750    1.6960    0.0000 C.3     1  LIG1        0.0488
     11 C           1.2080    1.2290    0.0000 C.ar    1  LIG1        0.1840
     12 C           1.2080    0.2710    0.0000 C.ar    1  LIG1        0.3198
     13 N           0.3710   -0.2080    0.0000 N.ar    1  LIG1        0.1207
     14 C           2.1500   -0.2330    0.0000 C.ar    1  LIG1        0.0720
     15 C           2.9830    0.2420    0.0000 C.ar    1  LIG1        0.0062
     16 C           3.8130   -0.2330    0.0000 C.ar    1  LIG1        0.0002
     17 C           3.8130   -1.2210    0.0000 C.ar    1  LIG1        0.0000
     18 C           2.9830   -1.6920    0.0000 C.ar    1  LIG1        0.0002
     19 C           2.1500   -1.2210    0.0000 C.ar    1  LIG1        0.0062
@<TRIPOS>BOND
     1     1     2   ar
     2     1     6   ar
     3     1    13   ar
     4     2     3   ar
     5     2    11   ar
     6     3     4   ar
     7     4     5   ar
     8     4    10    1
     9     5     6   ar
    10     5     7    1
    11     7     8    1
    12     8     9    1
    13     9    10    1
    14    11    12   ar
    15    12    13   ar
    16    12    14    1
    17    14    15   ar
    18    14    19   ar
    19    15    16   ar
    20    16    17   ar
    21    17    18   ar
    22    18    19   ar
