@<TRIPOS>MOLECULE
33901_ChemDiv_8010-5751
 17 19 0 0 0
SMALL
GASTEIGER
Energy = 0

@<TRIPOS>ATOM
      1 C          -0.8420    0.2380    0.0000 C.ar    1  LIG1        0.4776
      2 N          -0.8420    1.1710    0.0000 N.ar    1  LIG1       -0.1442
      3 N          -1.6880    1.6500    0.0000 N.ar    1  LIG1       -0.1620
      4 C          -2.5000    1.1710    0.0000 C.ar    1  LIG1        0.0933
      5 C          -2.5000    0.2380    0.0000 C.ar    1  LIG1        0.0821
      6 N          -1.6880   -0.2210    0.0000 N.ar    1  LIG1       -0.1649
      7 C          -3.3460   -0.2580    0.0000 C.3     1  LIG1        0.0537
      8 C          -3.4000    1.6920    0.0000 C.3     1  LIG1        0.0552
      9 C           0.8170    1.1710    0.0000 C.ar    1  LIG1        0.1840
     10 C           0.8170    0.2380    0.0000 C.ar    1  LIG1        0.3198
     11 N           0.0040   -0.2210    0.0000 N.ar    1  LIG1        0.1207
     12 C           1.7250   -0.2380    0.0000 C.ar    1  LIG1        0.0720
     13 C           1.7250   -1.2080    0.0000 C.ar    1  LIG1        0.0062
     14 C           2.5710   -1.6880    0.0000 C.ar    1  LIG1        0.0002
     15 C           3.3960   -1.2080    0.0000 C.ar    1  LIG1        0.0000
     16 C           3.3960   -0.2380    0.0000 C.ar    1  LIG1        0.0002
     17 C           2.5710    0.2380    0.0000 C.ar    1  LIG1        0.0062
@<TRIPOS>BOND
     1     1     2   ar
     2     1     6   ar
     3     1    11   ar
     4     2     3   ar
     5     2     9   ar
     6     3     4   ar
     7     4     5   ar
     8     4     8    1
     9     5     6   ar
    10     5     7    1
    11     9    10   ar
    12    10    11   ar
    13    10    12    1
    14    12    13   ar
    15    12    17   ar
    16    13    14   ar
    17    14    15   ar
    18    15    16   ar
    19    16    17   ar
