@<TRIPOS>MOLECULE
33907_ChemDiv_E938-0026
 32 35 0 0 0
SMALL
GASTEIGER
Energy = 0

@<TRIPOS>ATOM
      1 C           0.2290    0.9670    0.0000 C.3     1  LIG1        0.2036
      2 C          -0.5790    1.5580    0.0000 C.2     1  LIG1        0.2016
      3 C          -0.2710    2.5040    0.0000 C.ar    1  LIG1        0.0400
      4 C           0.7250    2.5040    0.0000 C.ar    1  LIG1        0.0400
      5 C           1.0380    1.5580    0.0000 C.2     1  LIG1        0.2016
      6 O           1.9880    1.2500    0.0000 O.2     1  LIG1       -0.2888
      7 C           1.2290    3.3750    0.0000 C.ar    1  LIG1        0.0030
      8 C           0.7250    4.2330    0.0000 C.ar    1  LIG1        0.0001
      9 C          -0.2710    4.2330    0.0000 C.ar    1  LIG1        0.0001
     10 C          -0.7670    3.3750    0.0000 C.ar    1  LIG1        0.0030
     11 O          -1.5330    1.2500    0.0000 O.2     1  LIG1       -0.2888
     12 N          -0.6080    0.4170    0.0000 N.pl3   1  LIG1       -0.2220
     13 C          -0.5420   -0.5830    0.0000 C.ar    1  LIG1        0.0669
     14 C           0.3540   -1.0250    0.0000 C.ar    1  LIG1        0.0226
     15 C           0.4130   -2.0250    0.0000 C.ar    1  LIG1        0.0771
     16 C           1.3130   -2.4710    0.0000 C.2     1  LIG1        0.3414
     17 O           1.3710   -3.4710    0.0000 O.2     1  LIG1       -0.2449
     18 O           2.1420   -1.9210    0.0000 O.3     1  LIG1       -0.4413
     19 C           3.0380   -2.3670    0.0000 C.3     1  LIG1        0.2560
     20 C          -0.4210   -2.5790    0.0000 C.ar    1  LIG1        0.0130
     21 C          -1.3170   -2.1330    0.0000 C.ar    1  LIG1        0.0771
     22 C          -2.1500   -2.6830    0.0000 C.2     1  LIG1        0.3414
     23 O          -3.0420   -2.2420    0.0000 O.2     1  LIG1       -0.2449
     24 O          -2.0880   -3.6790    0.0000 O.3     1  LIG1       -0.4413
     25 C          -2.9250   -4.2330    0.0000 C.3     1  LIG1        0.2560
     26 C          -1.3750   -1.1330    0.0000 C.ar    1  LIG1        0.0226
     27 C           0.9380    0.2580    0.0000 C.ar    1  LIG1        0.0094
     28 C           0.6790   -0.7040    0.0000 C.ar    1  LIG1       -0.0018
     29 C           1.3880   -1.4130    0.0000 C.ar    1  LIG1       -0.0002
     30 C           2.3500   -1.1540    0.0000 C.ar    1  LIG1       -0.0000
     31 C           2.6080   -0.1880    0.0000 C.ar    1  LIG1       -0.0002
     32 C           1.9000    0.5210    0.0000 C.ar    1  LIG1       -0.0018
@<TRIPOS>BOND
     1     1     2    1
     2     1     5    1
     3     1    12    1
     4     1    27    1
     5     2     3    1
     6     2    11    2
     7     3     4   ar
     8     3    10   ar
     9     4     5    1
    10     4     7   ar
    11     5     6    2
    12     7     8   ar
    13     8     9   ar
    14     9    10   ar
    15    12    13    1
    16    13    14   ar
    17    13    26   ar
    18    14    15   ar
    19    15    16    1
    20    15    20   ar
    21    16    17    2
    22    16    18    1
    23    18    19    1
    24    20    21   ar
    25    21    22    1
    26    21    26   ar
    27    22    23    2
    28    22    24    1
    29    24    25    1
    30    27    28   ar
    31    27    32   ar
    32    28    29   ar
    33    29    30   ar
    34    30    31   ar
    35    31    32   ar
