@<TRIPOS>MOLECULE
33904_ChemDiv_C850-0736
 19 21 0 0 0
SMALL
GASTEIGER
Energy = 0

@<TRIPOS>ATOM
      1 N          -1.7170    0.7380    0.0000 N.ar    1  LIG1       -0.1873
      2 C          -0.8630    0.2290    0.0000 C.ar    1  LIG1        0.2211
      3 C          -0.8630   -0.7750    0.0000 C.ar    1  LIG1        0.1858
      4 N          -1.7330   -1.2630    0.0000 N.ar    1  LIG1       -0.2248
      5 C          -2.5960   -0.7580    0.0000 C.ar    1  LIG1        0.1006
      6 C          -2.5960    0.2460    0.0000 C.ar    1  LIG1        0.1038
      7 C          -3.4500    0.7540    0.0000 C.ar    1  LIG1        0.0208
      8 C          -4.3170    0.2540    0.0000 C.ar    1  LIG1        0.0016
      9 C          -4.3290   -0.7460    0.0000 C.ar    1  LIG1        0.0016
     10 C          -3.4670   -1.2460    0.0000 C.ar    1  LIG1        0.0207
     11 N           0.0000   -1.2790    0.0000 N.pl3   1  LIG1       -0.2176
     12 C           0.8670   -0.7790    0.0000 C.3     1  LIG1        0.1165
     13 C           1.7250   -1.2920    0.0000 C.3     1  LIG1        0.0554
     14 C           2.6000   -0.7960    0.0000 C.3     1  LIG1        0.1441
     15 O           3.4580   -1.3080    0.0000 O.3     1  LIG1       -0.3510
     16 C           4.3250   -1.8080    0.0000 C.3     1  LIG1        0.1741
     17 N          -0.1080    0.8960    0.0000 N.ar    1  LIG1       -0.1048
     18 N          -0.5130    1.8130    0.0000 N.ar    1  LIG1       -0.0222
     19 N          -1.5000    1.7130    0.0000 N.ar    1  LIG1       -0.0384
@<TRIPOS>BOND
     1     1     2   ar
     2     1     6   ar
     3     1    19   ar
     4     2     3   ar
     5     2    17   ar
     6     3     4   ar
     7     3    11    1
     8     4     5   ar
     9     5     6   ar
    10     5    10   ar
    11     6     7   ar
    12     7     8   ar
    13     8     9   ar
    14     9    10   ar
    15    11    12    1
    16    12    13    1
    17    13    14    1
    18    14    15    1
    19    15    16    1
    20    17    18   ar
    21    18    19   ar
