@<TRIPOS>MOLECULE
33909_ChemDiv_E938-0077
 23 26 0 0 0
SMALL
GASTEIGER
Energy = 0

@<TRIPOS>ATOM
      1 C           0.1670    0.3330    0.0000 C.3     1  LIG1        0.1767
      2 C          -0.4040   -0.4580    0.0000 C.2     1  LIG1        0.2290
      3 C          -1.3330   -0.1630    0.0000 C.ar    1  LIG1        0.0440
      4 C          -1.3420    0.8080    0.0000 C.ar    1  LIG1        0.0440
      5 C          -0.4170    1.1210    0.0000 C.2     1  LIG1        0.2290
      6 O          -0.1630    2.0710    0.0000 O.2     1  LIG1       -0.2847
      7 C          -2.1830    1.2960    0.0000 C.ar    1  LIG1        0.0032
      8 C          -3.0290    0.8040    0.0000 C.ar    1  LIG1        0.0001
      9 C          -3.0290   -0.1710    0.0000 C.ar    1  LIG1        0.0001
     10 C          -2.1830   -0.6580    0.0000 C.ar    1  LIG1        0.0032
     11 O          -0.1540   -1.4000    0.0000 O.2     1  LIG1       -0.2847
     12 N           1.3540   -0.8500    0.0000 N.4     1  LIG1        0.3864
     13 C           1.3540   -1.8170    0.0000 C.3     1  LIG1        0.1724
     14 C           2.1920   -2.2920    0.0000 C.3     1  LIG1        0.2048
     15 O           3.0250   -1.8170    0.0000 O.3     1  LIG1       -0.3411
     16 C           3.0170   -0.8500    0.0000 C.3     1  LIG1        0.2048
     17 C           2.1880   -0.3630    0.0000 C.3     1  LIG1        0.1724
     18 C           1.0040    0.8290    0.0000 C.ar    1  LIG1        0.0372
     19 C           1.8540    0.3420    0.0000 C.ar    1  LIG1        0.0019
     20 C           2.6920    0.8330    0.0000 C.ar    1  LIG1       -0.0001
     21 C           2.6830    1.8130    0.0000 C.ar    1  LIG1       -0.0000
     22 C           1.8330    2.2960    0.0000 C.ar    1  LIG1       -0.0001
     23 C           0.9920    1.7960    0.0000 C.ar    1  LIG1        0.0019
@<TRIPOS>BOND
     1     1     2    1
     2     1     5    1
     3     1    12    1
     4     1    18    1
     5     2     3    1
     6     2    11    2
     7     3     4   ar
     8     3    10   ar
     9     4     5    1
    10     4     7   ar
    11     5     6    2
    12     7     8   ar
    13     8     9   ar
    14     9    10   ar
    15    12    13    1
    16    12    17    1
    17    13    14    1
    18    14    15    1
    19    15    16    1
    20    16    17    1
    21    18    19   ar
    22    18    23   ar
    23    19    20   ar
    24    20    21   ar
    25    21    22   ar
    26    22    23   ar
