@<TRIPOS>MOLECULE
33905_ChemDiv_E938-0017
 28 31 0 0 0
SMALL
GASTEIGER
Energy = 0

@<TRIPOS>ATOM
      1 C           0.0540    0.5880    0.0000 C.3     1  LIG1        0.2036
      2 C          -0.7500    1.1750    0.0000 C.2     1  LIG1        0.2016
      3 C          -0.4460    2.1290    0.0000 C.ar    1  LIG1        0.0400
      4 C           0.5540    2.1290    0.0000 C.ar    1  LIG1        0.0400
      5 C           0.8670    1.1750    0.0000 C.2     1  LIG1        0.2016
      6 O           1.8170    0.8670    0.0000 O.2     1  LIG1       -0.2888
      7 C           1.0580    2.9920    0.0000 C.ar    1  LIG1        0.0030
      8 C           0.5540    3.8580    0.0000 C.ar    1  LIG1        0.0001
      9 C          -0.4460    3.8580    0.0000 C.ar    1  LIG1        0.0001
     10 C          -0.9420    2.9920    0.0000 C.ar    1  LIG1        0.0030
     11 O          -1.7000    0.8670    0.0000 O.2     1  LIG1       -0.2888
     12 N          -0.7750    0.0330    0.0000 N.pl3   1  LIG1       -0.2223
     13 C          -0.7170   -0.9630    0.0000 C.ar    1  LIG1        0.0626
     14 C           0.1830   -1.4080    0.0000 C.ar    1  LIG1        0.0169
     15 C           0.2420   -2.4080    0.0000 C.ar    1  LIG1        0.0152
     16 C           1.1380   -2.8540    0.0000 C.2     1  LIG1        0.0729
     17 O           1.2000   -3.8540    0.0000 O.co2   1  LIG1       -0.5446
     18 O           1.9710   -2.3000    0.0000 O.co2   1  LIG1       -0.5446
     19 C          -0.5920   -2.9580    0.0000 C.ar    1  LIG1        0.0009
     20 C          -1.4880   -2.5130    0.0000 C.ar    1  LIG1       -0.0030
     21 C          -1.5460   -1.5170    0.0000 C.ar    1  LIG1       -0.0070
     22 C          -2.4420   -1.0670    0.0000 C.3     1  LIG1        0.0324
     23 C           0.7630   -0.1210    0.0000 C.ar    1  LIG1        0.0094
     24 C           0.5040   -1.0880    0.0000 C.ar    1  LIG1       -0.0018
     25 C           1.2130   -1.7920    0.0000 C.ar    1  LIG1       -0.0002
     26 C           2.1790   -1.5330    0.0000 C.ar    1  LIG1       -0.0000
     27 C           2.4380   -0.5710    0.0000 C.ar    1  LIG1       -0.0002
     28 C           1.7330    0.1380    0.0000 C.ar    1  LIG1       -0.0018
@<TRIPOS>BOND
     1     1     2    1
     2     1     5    1
     3     1    12    1
     4     1    23    1
     5     2     3    1
     6     2    11    2
     7     3     4   ar
     8     3    10   ar
     9     4     5    1
    10     4     7   ar
    11     5     6    2
    12     7     8   ar
    13     8     9   ar
    14     9    10   ar
    15    12    13    1
    16    13    14   ar
    17    13    21   ar
    18    14    15   ar
    19    15    16    1
    20    15    19   ar
    21    16    17   ar
    22    16    18   ar
    23    19    20   ar
    24    20    21   ar
    25    21    22    1
    26    23    24   ar
    27    23    28   ar
    28    24    25   ar
    29    25    26   ar
    30    26    27   ar
    31    27    28   ar
