@<TRIPOS>MOLECULE
33902_ChemDiv_C850-0735
 20 22 0 0 0
SMALL
GASTEIGER
Energy = 0

@<TRIPOS>ATOM
      1 N          -1.7170    1.2380    0.0000 N.ar    1  LIG1       -0.1873
      2 C          -0.8630    0.7290    0.0000 C.ar    1  LIG1        0.2211
      3 C          -0.8630   -0.2750    0.0000 C.ar    1  LIG1        0.1858
      4 N          -1.7330   -0.7630    0.0000 N.ar    1  LIG1       -0.2248
      5 C          -2.5960   -0.2580    0.0000 C.ar    1  LIG1        0.1006
      6 C          -2.5960    0.7460    0.0000 C.ar    1  LIG1        0.1038
      7 C          -3.4500    1.2540    0.0000 C.ar    1  LIG1        0.0208
      8 C          -4.3170    0.7540    0.0000 C.ar    1  LIG1        0.0016
      9 C          -4.3290   -0.2460    0.0000 C.ar    1  LIG1        0.0016
     10 C          -3.4670   -0.7460    0.0000 C.ar    1  LIG1        0.0207
     11 N           0.0000   -0.7790    0.0000 N.pl3   1  LIG1       -0.2176
     12 C           0.8670   -0.2790    0.0000 C.3     1  LIG1        0.1165
     13 C           1.7250   -0.7920    0.0000 C.3     1  LIG1        0.0554
     14 C           2.6000   -0.2960    0.0000 C.3     1  LIG1        0.1440
     15 O           3.4580   -0.8080    0.0000 O.3     1  LIG1       -0.3537
     16 C           4.3250   -1.3080    0.0000 C.3     1  LIG1        0.1422
     17 C           4.3250   -2.3080    0.0000 C.3     1  LIG1        0.0346
     18 N          -0.1080    1.3960    0.0000 N.ar    1  LIG1       -0.1048
     19 N          -0.5130    2.3130    0.0000 N.ar    1  LIG1       -0.0222
     20 N          -1.5000    2.2130    0.0000 N.ar    1  LIG1       -0.0384
@<TRIPOS>BOND
     1     1     2   ar
     2     1     6   ar
     3     1    20   ar
     4     2     3   ar
     5     2    18   ar
     6     3     4   ar
     7     3    11    1
     8     4     5   ar
     9     5     6   ar
    10     5    10   ar
    11     6     7   ar
    12     7     8   ar
    13     8     9   ar
    14     9    10   ar
    15    11    12    1
    16    12    13    1
    17    13    14    1
    18    14    15    1
    19    15    16    1
    20    16    17    1
    21    18    19   ar
    22    19    20   ar
