@<TRIPOS>MOLECULE
33900_ChemDiv_C850-0708
 23 26 0 0 0
SMALL
GASTEIGER
Energy = 0

@<TRIPOS>ATOM
      1 N          -1.2000    2.8080    0.0000 N.ar    1  LIG1       -0.1873
      2 C          -0.3460    2.2960    0.0000 C.ar    1  LIG1        0.2211
      3 C          -0.3460    1.2960    0.0000 C.ar    1  LIG1        0.1858
      4 N          -1.2170    0.8080    0.0000 N.ar    1  LIG1       -0.2248
      5 C          -2.0790    1.3130    0.0000 C.ar    1  LIG1        0.1006
      6 C          -2.0790    2.3170    0.0000 C.ar    1  LIG1        0.1038
      7 C          -2.9330    2.8250    0.0000 C.ar    1  LIG1        0.0208
      8 C          -3.8000    2.3250    0.0000 C.ar    1  LIG1        0.0016
      9 C          -3.8130    1.3250    0.0000 C.ar    1  LIG1        0.0016
     10 C          -2.9500    0.8250    0.0000 C.ar    1  LIG1        0.0207
     11 N           0.5170    0.7920    0.0000 N.pl3   1  LIG1       -0.2177
     12 C           0.5080   -0.2080    0.0000 C.3     1  LIG1        0.1157
     13 C           1.3750   -0.7080    0.0000 C.3     1  LIG1        0.0449
     14 C           1.3580   -1.7080    0.0000 C.3     1  LIG1        0.0952
     15 N           2.2250   -2.2210    0.0000 N.am    1  LIG1       -0.2795
     16 C           2.3250   -3.2210    0.0000 C.2     1  LIG1        0.2257
     17 O           1.5750   -3.8790    0.0000 O.2     1  LIG1       -0.2749
     18 C           3.3040   -3.4290    0.0000 C.3     1  LIG1        0.0870
     19 C           3.8080   -2.5710    0.0000 C.3     1  LIG1        0.0311
     20 C           3.1420   -1.8250    0.0000 C.3     1  LIG1        0.0939
     21 N           0.4080    2.9670    0.0000 N.ar    1  LIG1       -0.1048
     22 N           0.0080    3.8830    0.0000 N.ar    1  LIG1       -0.0222
     23 N          -0.9830    3.7830    0.0000 N.ar    1  LIG1       -0.0384
@<TRIPOS>BOND
     1     1     2   ar
     2     1     6   ar
     3     1    23   ar
     4     2     3   ar
     5     2    21   ar
     6     3     4   ar
     7     3    11    1
     8     4     5   ar
     9     5     6   ar
    10     5    10   ar
    11     6     7   ar
    12     7     8   ar
    13     8     9   ar
    14     9    10   ar
    15    11    12    1
    16    12    13    1
    17    13    14    1
    18    14    15    1
    19    15    16   am
    20    15    20    1
    21    16    17    2
    22    16    18    1
    23    18    19    1
    24    19    20    1
    25    21    22   ar
    26    22    23   ar
