@<TRIPOS>MOLECULE
33918_ChemDiv_8012-1907
 18 19 0 0 0
SMALL
GASTEIGER
Energy = 0

@<TRIPOS>ATOM
      1 S           0.4750    0.0290    0.0000 S.O2    1  LIG1        0.0631
      2 C          -0.5040    0.0290    0.0000 C.ar    1  LIG1        0.1179
      3 C          -1.0210    0.8750    0.0000 C.ar    1  LIG1        0.0158
      4 C          -2.0040    0.8750    0.0000 C.ar    1  LIG1       -0.0143
      5 C          -2.4960    0.0080    0.0000 C.ar    1  LIG1        0.0304
      6 C          -1.9960   -0.8540    0.0000 C.ar    1  LIG1        0.0034
      7 C          -1.0210   -0.8540    0.0000 C.ar    1  LIG1       -0.0028
      8 C          -0.5040   -1.7380    0.0000 C.3     1  LIG1        0.0324
      9 BR         -3.5000    0.0080    0.0000 Br      1  LIG1       -0.0493
     10 C          -2.5040    1.7420    0.0000 C.3     1  LIG1        0.0316
     11 N           1.4790    0.0290    0.0000 N.3     1  LIG1       -0.1504
     12 C           1.9880    0.8750    0.0000 C.3     1  LIG1        0.1279
     13 C           2.9830    0.8750    0.0000 C.3     1  LIG1        0.1613
     14 O           3.4960    0.0080    0.0000 O.3     1  LIG1       -0.3507
     15 C           2.9960   -0.8540    0.0000 C.3     1  LIG1        0.1613
     16 C           1.9880   -0.8540    0.0000 C.3     1  LIG1        0.1279
     17 O           0.4750   -0.9880    0.0000 O.2     1  LIG1       -0.1528
     18 O           0.4750    1.0130    0.0000 O.2     1  LIG1       -0.1528
@<TRIPOS>BOND
     1     1     2    1
     2     1    11    1
     3     1    17    2
     4     1    18    2
     5     2     3   ar
     6     2     7   ar
     7     3     4   ar
     8     4     5   ar
     9     4    10    1
    10     5     6   ar
    11     5     9    1
    12     6     7   ar
    13     7     8    1
    14    11    12    1
    15    11    16    1
    16    12    13    1
    17    13    14    1
    18    14    15    1
    19    15    16    1
