@<TRIPOS>MOLECULE
33911_ChemDiv_E938-0099
 28 31 0 0 0
SMALL
GASTEIGER
Energy = 0

@<TRIPOS>ATOM
      1 C          -0.3130    0.6420    0.0000 C.3     1  LIG1        0.2036
      2 C          -1.1210    1.2250    0.0000 C.2     1  LIG1        0.2016
      3 C          -0.8130    2.1750    0.0000 C.ar    1  LIG1        0.0400
      4 C           0.1880    2.1750    0.0000 C.ar    1  LIG1        0.0400
      5 C           0.4960    1.2250    0.0000 C.2     1  LIG1        0.2016
      6 O           1.4500    0.9210    0.0000 O.2     1  LIG1       -0.2888
      7 C           0.6880    3.0420    0.0000 C.ar    1  LIG1        0.0030
      8 C           0.1880    3.9130    0.0000 C.ar    1  LIG1        0.0001
      9 C          -0.8130    3.9130    0.0000 C.ar    1  LIG1        0.0001
     10 C          -1.3080    3.0420    0.0000 C.ar    1  LIG1        0.0030
     11 O          -2.0710    0.9210    0.0000 O.2     1  LIG1       -0.2888
     12 N          -1.1460    0.0880    0.0000 N.pl3   1  LIG1       -0.2220
     13 C          -1.0830   -0.9130    0.0000 C.ar    1  LIG1        0.0666
     14 C          -0.1880   -1.3580    0.0000 C.ar    1  LIG1        0.0181
     15 C          -0.1250   -2.3540    0.0000 C.ar    1  LIG1        0.0258
     16 C           0.7710   -2.8000    0.0000 C.2     1  LIG1        0.0737
     17 O           0.8290   -3.8000    0.0000 O.co2   1  LIG1       -0.5446
     18 O           1.6000   -2.2500    0.0000 O.co2   1  LIG1       -0.5446
     19 C          -0.9580   -2.9080    0.0000 C.ar    1  LIG1        0.0588
     20 C          -1.8580   -2.4580    0.0000 C.ar    1  LIG1        0.0128
     21 C          -1.9170   -1.4670    0.0000 C.ar    1  LIG1        0.0170
     22 CL         -0.9000   -3.9080    0.0000 Cl      1  LIG1       -0.0822
     23 C           0.3960   -0.0670    0.0000 C.ar    1  LIG1        0.0094
     24 C           0.1330   -1.0330    0.0000 C.ar    1  LIG1       -0.0018
     25 C           0.8420   -1.7420    0.0000 C.ar    1  LIG1       -0.0002
     26 C           1.8080   -1.4830    0.0000 C.ar    1  LIG1       -0.0000
     27 C           2.0670   -0.5170    0.0000 C.ar    1  LIG1       -0.0002
     28 C           1.3580    0.1920    0.0000 C.ar    1  LIG1       -0.0018
@<TRIPOS>BOND
     1     1     2    1
     2     1     5    1
     3     1    12    1
     4     1    23    1
     5     2     3    1
     6     2    11    2
     7     3     4   ar
     8     3    10   ar
     9     4     5    1
    10     4     7   ar
    11     5     6    2
    12     7     8   ar
    13     8     9   ar
    14     9    10   ar
    15    12    13    1
    16    13    14   ar
    17    13    21   ar
    18    14    15   ar
    19    15    16    1
    20    15    19   ar
    21    16    17   ar
    22    16    18   ar
    23    19    20   ar
    24    19    22    1
    25    20    21   ar
    26    23    24   ar
    27    23    28   ar
    28    24    25   ar
    29    25    26   ar
    30    26    27   ar
    31    27    28   ar
