@<TRIPOS>MOLECULE
33914_ChemDiv_8012-1067
 26 28 0 0 0
SMALL
GASTEIGER
Energy = 0

@<TRIPOS>ATOM
      1 S          -3.4750    0.7540    0.0000 S.O2    1  LIG1        0.0634
      2 C          -2.6080    0.2630    0.0000 C.ar    1  LIG1        0.1222
      3 C          -1.7290    0.7630    0.0000 C.ar    1  LIG1        0.0201
      4 C          -0.8750    0.2630    0.0000 C.ar    1  LIG1        0.0059
      5 C          -0.8750   -0.7460    0.0000 C.ar    1  LIG1        0.0537
      6 C          -0.0080   -1.2460    0.0000 C.2     1  LIG1        0.2490
      7 N           0.8880   -0.7790    0.0000 N.am    1  LIG1       -0.2761
      8 C           1.7540   -1.2790    0.0000 C.3     1  LIG1        0.0940
      9 C           2.6130   -0.7790    0.0000 C.3     1  LIG1        0.0259
     10 C           2.6130    0.2250    0.0000 C.3     1  LIG1        0.0257
     11 C           1.7540    0.7290    0.0000 C.3     1  LIG1        0.0259
     12 C           0.8880    0.2250    0.0000 C.3     1  LIG1        0.0940
     13 C           3.4500    0.6960    0.0000 C.ar    1  LIG1       -0.0224
     14 C           3.4500    1.7040    0.0000 C.ar    1  LIG1       -0.0043
     15 C           4.3330    2.2130    0.0000 C.ar    1  LIG1       -0.0003
     16 C           5.1920    1.7040    0.0000 C.ar    1  LIG1       -0.0000
     17 C           5.1920    0.6960    0.0000 C.ar    1  LIG1       -0.0003
     18 C           4.3330    0.1960    0.0000 C.ar    1  LIG1       -0.0043
     19 O          -0.0080   -2.2380    0.0000 O.2     1  LIG1       -0.2699
     20 C          -1.7290   -1.2460    0.0000 C.ar    1  LIG1        0.0059
     21 C          -2.6080   -0.7460    0.0000 C.ar    1  LIG1        0.0201
     22 N          -4.3380    1.2420    0.0000 N.3     1  LIG1       -0.1526
     23 C          -5.1960    0.7380    0.0000 C.3     1  LIG1        0.1150
     24 C          -4.3500    2.2420    0.0000 C.3     1  LIG1        0.1150
     25 O          -2.9830    1.6210    0.0000 O.2     1  LIG1       -0.1528
     26 O          -3.9670   -0.1250    0.0000 O.2     1  LIG1       -0.1528
@<TRIPOS>BOND
     1     1     2    1
     2     1    22    1
     3     1    25    2
     4     1    26    2
     5     2     3   ar
     6     2    21   ar
     7     3     4   ar
     8     4     5   ar
     9     5     6    1
    10     5    20   ar
    11     6     7   am
    12     6    19    2
    13     7     8    1
    14     7    12    1
    15     8     9    1
    16     9    10    1
    17    10    11    1
    18    10    13    1
    19    11    12    1
    20    13    14   ar
    21    13    18   ar
    22    14    15   ar
    23    15    16   ar
    24    16    17   ar
    25    17    18   ar
    26    20    21   ar
    27    22    23    1
    28    22    24    1
