@<TRIPOS>MOLECULE
33913_ChemDiv_E938-0110
 26 29 0 0 0
SMALL
GASTEIGER
Energy = 0

@<TRIPOS>ATOM
      1 C           0.3130    1.2330    0.0000 C.3     1  LIG1        0.2036
      2 C          -0.2580    0.4460    0.0000 C.2     1  LIG1        0.2016
      3 C          -1.1920    0.7380    0.0000 C.ar    1  LIG1        0.0400
      4 C          -1.1960    1.7130    0.0000 C.ar    1  LIG1        0.0400
      5 C          -0.2750    2.0250    0.0000 C.2     1  LIG1        0.2016
      6 O          -0.0170    2.9750    0.0000 O.2     1  LIG1       -0.2888
      7 C          -2.0460    2.2040    0.0000 C.ar    1  LIG1        0.0030
      8 C          -2.8880    1.7080    0.0000 C.ar    1  LIG1        0.0001
      9 C          -2.8880    0.7330    0.0000 C.ar    1  LIG1        0.0001
     10 C          -2.0460    0.2460    0.0000 C.ar    1  LIG1        0.0030
     11 O          -0.0130   -0.5000    0.0000 O.2     1  LIG1       -0.2888
     12 N           1.5040    0.0500    0.0000 N.pl3   1  LIG1       -0.2223
     13 C           1.2580   -0.8920    0.0000 C.ar    1  LIG1        0.0622
     14 C           1.9460   -1.5710    0.0000 C.ar    1  LIG1       -0.0109
     15 C           1.7080   -2.5130    0.0000 C.ar    1  LIG1       -0.0246
     16 C           0.7710   -2.7750    0.0000 C.ar    1  LIG1       -0.0045
     17 C           0.0790   -2.0920    0.0000 C.ar    1  LIG1        0.0010
     18 C           0.3250   -1.1500    0.0000 C.ar    1  LIG1        0.0158
     19 C           2.4000   -3.2000    0.0000 C.3     1  LIG1        0.0307
     20 C           2.8830   -1.3080    0.0000 C.3     1  LIG1        0.0320
     21 C           1.1500    1.7330    0.0000 C.ar    1  LIG1        0.0094
     22 C           2.0000    1.2460    0.0000 C.ar    1  LIG1       -0.0018
     23 C           2.8460    1.7380    0.0000 C.ar    1  LIG1       -0.0002
     24 C           2.8330    2.7210    0.0000 C.ar    1  LIG1       -0.0000
     25 C           1.9830    3.2040    0.0000 C.ar    1  LIG1       -0.0002
     26 C           1.1420    2.7040    0.0000 C.ar    1  LIG1       -0.0018
@<TRIPOS>BOND
     1     1     2    1
     2     1     5    1
     3     1    12    1
     4     1    21    1
     5     2     3    1
     6     2    11    2
     7     3     4   ar
     8     3    10   ar
     9     4     5    1
    10     4     7   ar
    11     5     6    2
    12     7     8   ar
    13     8     9   ar
    14     9    10   ar
    15    12    13    1
    16    13    14   ar
    17    13    18   ar
    18    14    15   ar
    19    14    20    1
    20    15    16   ar
    21    15    19    1
    22    16    17   ar
    23    17    18   ar
    24    21    22   ar
    25    21    26   ar
    26    22    23   ar
    27    23    24   ar
    28    24    25   ar
    29    25    26   ar
