@<TRIPOS>MOLECULE
33910_ChemDiv_8012-0646
 37 41 0 0 0
SMALL
GASTEIGER
Energy = 0

@<TRIPOS>ATOM
      1 C           3.2380   -0.3960    0.0000 C.ar    1  LIG1        0.2238
      2 N           2.7330    0.4920    0.0000 N.ar    1  LIG1       -0.1782
      3 C           1.7290    0.4920    0.0000 C.ar    1  LIG1        0.2601
      4 N           1.2210   -0.3960    0.0000 N.ar    1  LIG1       -0.1952
      5 C           1.7290   -1.2460    0.0000 C.ar    1  LIG1        0.1562
      6 N           2.7330   -1.2460    0.0000 N.ar    1  LIG1       -0.1977
      7 C           1.2210   -2.1040    0.0000 C.3     1  LIG1        0.1292
      8 S           0.1750   -2.1040    0.0000 S.3     1  LIG1       -0.0861
      9 C          -0.3880   -1.2710    0.0000 C.ar    1  LIG1        0.1166
     10 C          -1.3880   -1.2710    0.0000 C.ar    1  LIG1        0.0919
     11 C          -1.8880   -0.4080    0.0000 C.ar    1  LIG1        0.0131
     12 C          -1.4130    0.4420    0.0000 C.ar    1  LIG1        0.0198
     13 C          -0.4130    0.4420    0.0000 C.ar    1  LIG1        0.0819
     14 N           0.1080   -0.4080    0.0000 N.ar    1  LIG1       -0.2385
     15 C          -0.9420    1.3170    0.0000 C.ar    1  LIG1        0.0177
     16 C          -1.9460    1.3170    0.0000 C.ar    1  LIG1        0.0015
     17 C          -2.4540    2.1830    0.0000 C.ar    1  LIG1        0.0000
     18 C          -1.9630    3.0380    0.0000 C.ar    1  LIG1        0.0000
     19 C          -0.9580    3.0380    0.0000 C.ar    1  LIG1        0.0000
     20 C          -0.4460    2.1830    0.0000 C.ar    1  LIG1        0.0015
     21 C          -2.8250   -0.4080    0.0000 C.ar    1  LIG1        0.0010
     22 C          -3.3080   -1.2460    0.0000 C.ar    1  LIG1        0.0031
     23 C          -4.2920   -1.2330    0.0000 C.ar    1  LIG1        0.0369
     24 C          -4.8210   -0.4080    0.0000 C.ar    1  LIG1        0.1387
     25 C          -4.3170    0.4670    0.0000 C.ar    1  LIG1        0.0369
     26 C          -3.3080    0.4670    0.0000 C.ar    1  LIG1        0.0031
     27 O          -5.8080   -0.4080    0.0000 O.3     1  LIG1       -0.4714
     28 C          -6.2710    0.4920    0.0000 C.3     1  LIG1        0.2525
     29 C          -1.8880   -2.1540    0.0000 C.1     1  LIG1        0.1024
     30 N          -2.3750   -3.0330    0.0000 N.1     1  LIG1       -0.1908
     31 N           1.2460    1.3670    0.0000 N.pl3   1  LIG1       -0.0859
     32 N           4.2420   -0.3960    0.0000 N.pl3   1  LIG1       -0.2730
     33 C           4.7580    0.4920    0.0000 C.3     1  LIG1        0.1257
     34 C           5.7630    0.4920    0.0000 C.3     1  LIG1        0.1637
     35 O           6.2710   -0.3960    0.0000 O.3     1  LIG1       -0.3501
     36 C           5.7630   -1.2460    0.0000 C.3     1  LIG1        0.1637
     37 C           4.7580   -1.2460    0.0000 C.3     1  LIG1        0.1257
@<TRIPOS>BOND
     1     1     2   ar
     2     1     6   ar
     3     1    32    1
     4     2     3   ar
     5     3     4   ar
     6     3    31    1
     7     4     5   ar
     8     5     6   ar
     9     5     7    1
    10     7     8    1
    11     8     9    1
    12     9    10   ar
    13     9    14   ar
    14    10    11   ar
    15    10    29    1
    16    11    12   ar
    17    11    21    1
    18    12    13   ar
    19    13    14   ar
    20    13    15    1
    21    15    16   ar
    22    15    20   ar
    23    16    17   ar
    24    17    18   ar
    25    18    19   ar
    26    19    20   ar
    27    21    22   ar
    28    21    26   ar
    29    22    23   ar
    30    23    24   ar
    31    24    25   ar
    32    24    27    1
    33    25    26   ar
    34    27    28    1
    35    29    30    3
    36    32    33    1
    37    32    37    1
    38    33    34    1
    39    34    35    1
    40    35    36    1
    41    36    37    1
