@<TRIPOS>MOLECULE
33916_ChemDiv_8012-1708
 25 28 0 0 0
SMALL
GASTEIGER
Energy = 0

@<TRIPOS>ATOM
      1 N          -1.8710   -0.0670    0.0000 N.ar    1  LIG1       -0.3245
      2 C          -2.4580   -0.8830    0.0000 C.ar    1  LIG1        0.0600
      3 C          -3.4250   -0.5540    0.0000 C.ar    1  LIG1        0.0172
      4 C          -3.4000    0.4130    0.0000 C.ar    1  LIG1        0.0172
      5 C          -2.4710    0.7460    0.0000 C.ar    1  LIG1        0.0600
      6 C          -2.2630    1.7250    0.0000 C.ar    1  LIG1        0.0172
      7 C          -3.0210    2.3830    0.0000 C.ar    1  LIG1        0.0015
      8 C          -3.9670    2.0580    0.0000 C.ar    1  LIG1        0.0001
      9 C          -4.1630    1.0880    0.0000 C.ar    1  LIG1        0.0015
     10 C          -4.1630   -1.2250    0.0000 C.ar    1  LIG1        0.0015
     11 C          -3.9580   -2.1920    0.0000 C.ar    1  LIG1        0.0001
     12 C          -3.0210   -2.5170    0.0000 C.ar    1  LIG1        0.0015
     13 C          -2.2750   -1.8580    0.0000 C.ar    1  LIG1        0.0172
     14 C          -0.8580   -0.0670    0.0000 C.3     1  LIG1        0.1414
     15 C          -0.3460   -0.9290    0.0000 C.3     1  LIG1        0.2038
     16 O          -0.8580   -1.8210    0.0000 O.3     1  LIG1       -0.2183
     17 C           0.6500   -0.9290    0.0000 C.3     1  LIG1        0.1769
     18 O           1.1580   -0.0880    0.0000 O.3     1  LIG1       -0.3510
     19 C           2.1500   -0.0880    0.0000 C.3     1  LIG1        0.1425
     20 C           2.6540    0.7710    0.0000 C.3     1  LIG1        0.0343
     21 C           2.1500    1.6580    0.0000 C.3     1  LIG1        0.0282
     22 C           2.6540    2.5210    0.0000 C.2     1  LIG1       -0.0306
     23 C           3.6540    2.5080    0.0000 C.2     1  LIG1       -0.0307
     24 C           4.1580    1.6290    0.0000 C.3     1  LIG1        0.0258
     25 C           3.6540    0.7710    0.0000 C.3     1  LIG1        0.0075
@<TRIPOS>BOND
     1     1     2   ar
     2     1     5   ar
     3     1    14    1
     4     2     3   ar
     5     2    13   ar
     6     3     4   ar
     7     3    10   ar
     8     4     5   ar
     9     4     9   ar
    10     5     6   ar
    11     6     7   ar
    12     7     8   ar
    13     8     9   ar
    14    10    11   ar
    15    11    12   ar
    16    12    13   ar
    17    14    15    1
    18    15    16    1
    19    15    17    1
    20    17    18    1
    21    18    19    1
    22    19    20    1
    23    20    21    1
    24    20    25    1
    25    21    22    1
    26    22    23    2
    27    23    24    1
    28    24    25    1
