@<TRIPOS>MOLECULE
33920_ChemDiv_K691-0154
 31 34 0 0 0
SMALL
GASTEIGER
Energy = 0

@<TRIPOS>ATOM
      1 S          -0.9290   -3.4920    0.0000 S.O2    1  LIG1        0.0634
      2 N          -1.8000   -4.0040    0.0000 N.3     1  LIG1       -0.1504
      3 C          -1.8000   -5.0040    0.0000 C.3     1  LIG1        0.1279
      4 C          -2.6630   -5.5040    0.0000 C.3     1  LIG1        0.1613
      5 O          -3.5330   -5.0040    0.0000 O.3     1  LIG1       -0.3507
      6 C          -3.5330   -4.0040    0.0000 C.3     1  LIG1        0.1613
      7 C          -2.6670   -3.5040    0.0000 C.3     1  LIG1        0.1279
      8 C          -0.0630   -2.9920    0.0000 C.ar    1  LIG1        0.1222
      9 C           0.8040   -3.4920    0.0000 C.ar    1  LIG1        0.0196
     10 C           1.6710   -2.9920    0.0000 C.ar    1  LIG1       -0.0026
     11 C           1.6710   -1.9920    0.0000 C.ar    1  LIG1       -0.0177
     12 C           2.5290   -1.4920    0.0000 C.3     1  LIG1        0.0526
     13 C           2.5290   -0.4920    0.0000 C.ar    1  LIG1       -0.0177
     14 C           1.6710    0.0080    0.0000 C.ar    1  LIG1       -0.0026
     15 C           1.6710    1.0080    0.0000 C.ar    1  LIG1        0.0196
     16 C           2.5290    1.5080    0.0000 C.ar    1  LIG1        0.1222
     17 S           2.5290    2.5080    0.0000 S.O2    1  LIG1        0.0634
     18 N           2.5290    3.5080    0.0000 N.3     1  LIG1       -0.1504
     19 C           1.6630    4.0040    0.0000 C.3     1  LIG1        0.1279
     20 C           1.6630    5.0040    0.0000 C.3     1  LIG1        0.1613
     21 O           2.5290    5.5040    0.0000 O.3     1  LIG1       -0.3507
     22 C           3.3880    5.0040    0.0000 C.3     1  LIG1        0.1613
     23 C           3.3880    4.0040    0.0000 C.3     1  LIG1        0.1279
     24 O           1.5290    2.5080    0.0000 O.2     1  LIG1       -0.1528
     25 O           3.5290    2.5080    0.0000 O.2     1  LIG1       -0.1528
     26 C           3.3960    1.0080    0.0000 C.ar    1  LIG1        0.0196
     27 C           3.3960    0.0080    0.0000 C.ar    1  LIG1       -0.0026
     28 C           0.8040   -1.4920    0.0000 C.ar    1  LIG1       -0.0026
     29 C          -0.0630   -1.9920    0.0000 C.ar    1  LIG1        0.0196
     30 O          -0.4290   -4.3710    0.0000 O.2     1  LIG1       -0.1528
     31 O          -1.4380   -2.6250    0.0000 O.2     1  LIG1       -0.1528
@<TRIPOS>BOND
     1     1     2    1
     2     1     8    1
     3     1    30    2
     4     1    31    2
     5     2     3    1
     6     2     7    1
     7     3     4    1
     8     4     5    1
     9     5     6    1
    10     6     7    1
    11     8     9   ar
    12     8    29   ar
    13     9    10   ar
    14    10    11   ar
    15    11    12    1
    16    11    28   ar
    17    12    13    1
    18    13    14   ar
    19    13    27   ar
    20    14    15   ar
    21    15    16   ar
    22    16    17    1
    23    16    26   ar
    24    17    18    1
    25    17    24    2
    26    17    25    2
    27    18    19    1
    28    18    23    1
    29    19    20    1
    30    20    21    1
    31    21    22    1
    32    22    23    1
    33    26    27   ar
    34    28    29   ar
