@<TRIPOS>MOLECULE
33929_ChemDiv_8017-9522
 23 26 0 0 0
SMALL
GASTEIGER
Energy = 0

@<TRIPOS>ATOM
      1 N          -0.6040   -0.2420    0.0000 N.ar    1  LIG1       -0.1991
      2 C          -0.6040   -1.2420    0.0000 C.ar    1  LIG1        0.2529
      3 N           0.3460   -1.5540    0.0000 N.ar    1  LIG1       -0.2088
      4 C           0.9330   -0.7420    0.0000 C.ar    1  LIG1        0.0980
      5 C           0.3460    0.0630    0.0000 C.ar    1  LIG1        0.0815
      6 C           0.8460    0.9380    0.0000 C.3     1  LIG1        0.0539
      7 C           1.9330   -0.7420    0.0000 C.ar    1  LIG1        0.0189
      8 C           2.4330    0.1210    0.0000 C.ar    1  LIG1        0.0012
      9 C           3.4330    0.1210    0.0000 C.ar    1  LIG1       -0.0042
     10 C           3.9330   -0.7420    0.0000 C.ar    1  LIG1       -0.0218
     11 C           3.4330   -1.6130    0.0000 C.ar    1  LIG1       -0.0042
     12 C           2.4330   -1.6130    0.0000 C.ar    1  LIG1        0.0012
     13 C           4.9330   -0.7420    0.0000 C.3     1  LIG1        0.0310
     14 N          -1.4710   -1.7500    0.0000 N.ar    1  LIG1       -0.2068
     15 C          -2.3380   -1.2420    0.0000 C.ar    1  LIG1        0.1229
     16 C          -2.3380   -0.2420    0.0000 C.ar    1  LIG1        0.1205
     17 N          -1.4710    0.2580    0.0000 N.ar    1  LIG1       -0.1613
     18 C          -3.2080    0.2580    0.0000 C.ar    1  LIG1        0.0209
     19 C          -4.0710   -0.2420    0.0000 C.ar    1  LIG1        0.0016
     20 C          -4.9380    0.2580    0.0000 C.ar    1  LIG1        0.0000
     21 C          -4.9380    1.2630    0.0000 C.ar    1  LIG1        0.0000
     22 C          -4.0710    1.7540    0.0000 C.ar    1  LIG1        0.0000
     23 C          -3.2080    1.2630    0.0000 C.ar    1  LIG1        0.0016
@<TRIPOS>BOND
     1     1     2   ar
     2     1     5   ar
     3     1    17   ar
     4     2     3   ar
     5     2    14   ar
     6     3     4   ar
     7     4     5   ar
     8     4     7    1
     9     5     6    1
    10     7     8   ar
    11     7    12   ar
    12     8     9   ar
    13     9    10   ar
    14    10    11   ar
    15    10    13    1
    16    11    12   ar
    17    14    15   ar
    18    15    16   ar
    19    16    17   ar
    20    16    18    1
    21    18    19   ar
    22    18    23   ar
    23    19    20   ar
    24    20    21   ar
    25    21    22   ar
    26    22    23   ar
