@<TRIPOS>MOLECULE
33921_ChemDiv_8012-2906
 20 23 0 0 0
SMALL
GASTEIGER
Energy = 0

@<TRIPOS>ATOM
      1 C          -1.0290   -0.5040    0.0000 C.ar    1  LIG1        0.4776
      2 N          -1.0290    0.5080    0.0000 N.ar    1  LIG1       -0.1442
      3 N          -1.8920    0.9960    0.0000 N.ar    1  LIG1       -0.1621
      4 C          -2.7500    0.5080    0.0000 C.ar    1  LIG1        0.0928
      5 C          -2.7500   -0.5040    0.0000 C.ar    1  LIG1        0.0817
      6 N          -1.8920   -0.9920    0.0000 N.ar    1  LIG1       -0.1649
      7 C          -3.6170   -0.9920    0.0000 C.3     1  LIG1        0.0474
      8 C          -4.5000   -0.5040    0.0000 C.3     1  LIG1        0.0067
      9 C          -4.5000    0.5080    0.0000 C.3     1  LIG1        0.0068
     10 C          -3.6170    0.9960    0.0000 C.3     1  LIG1        0.0488
     11 C          -0.0790    0.8080    0.0000 C.ar    1  LIG1        0.1840
     12 C           0.5000   -0.0080    0.0000 C.ar    1  LIG1        0.3198
     13 N          -0.0790   -0.8040    0.0000 N.ar    1  LIG1        0.1207
     14 C           1.5000    0.0420    0.0000 C.ar    1  LIG1        0.0720
     15 C           2.0460   -0.8040    0.0000 C.ar    1  LIG1        0.0067
     16 C           3.0420   -0.7460    0.0000 C.ar    1  LIG1        0.0069
     17 C           3.4960    0.1500    0.0000 C.ar    1  LIG1        0.0346
     18 C           2.9540    0.9960    0.0000 C.ar    1  LIG1        0.0069
     19 C           1.9540    0.9460    0.0000 C.ar    1  LIG1        0.0067
     20 BR          4.4960    0.2080    0.0000 Br      1  LIG1       -0.0490
@<TRIPOS>BOND
     1     1     2   ar
     2     1     6   ar
     3     1    13   ar
     4     2     3   ar
     5     2    11   ar
     6     3     4   ar
     7     4     5   ar
     8     4    10    1
     9     5     6   ar
    10     5     7    1
    11     7     8    1
    12     8     9    1
    13     9    10    1
    14    11    12   ar
    15    12    13   ar
    16    12    14    1
    17    14    15   ar
    18    14    19   ar
    19    15    16   ar
    20    16    17   ar
    21    17    18   ar
    22    17    20    1
    23    18    19   ar
