@<TRIPOS>MOLECULE
33922_ChemDiv_E784-0071
 25 28 0 0 0
SMALL
GASTEIGER
Energy = 0

@<TRIPOS>ATOM
      1 C          -0.0170    1.9500    0.0000 C.ar    1  LIG1        0.2197
      2 N          -0.8790    2.4580    0.0000 N.ar    1  LIG1       -0.1874
      3 C          -1.7420    1.9500    0.0000 C.ar    1  LIG1        0.1035
      4 C          -1.7420    0.9500    0.0000 C.ar    1  LIG1        0.1005
      5 N          -0.8790    0.4500    0.0000 N.ar    1  LIG1       -0.2260
      6 C          -0.0170    0.9500    0.0000 C.ar    1  LIG1        0.1698
      7 N           0.8580    0.4540    0.0000 N.pl3   1  LIG1       -0.2873
      8 C           0.8630   -0.5460    0.0000 C.3     1  LIG1        0.1139
      9 C           1.7460   -1.0290    0.0000 C.3     1  LIG1        0.1182
     10 N           2.6000   -0.5290    0.0000 N.am    1  LIG1       -0.2425
     11 C           3.4710   -1.0130    0.0000 C.2     1  LIG1        0.4050
     12 O           4.3330   -0.5130    0.0000 O.2     1  LIG1       -0.2262
     13 O           3.4880   -2.0250    0.0000 O.3     1  LIG1       -0.4345
     14 C           3.4960   -3.0210    0.0000 C.3     1  LIG1        0.2102
     15 C           2.6330   -3.5330    0.0000 C.3     1  LIG1        0.0513
     16 C           2.5920    0.4830    0.0000 C.3     1  LIG1        0.1182
     17 C           1.7210    0.9670    0.0000 C.3     1  LIG1        0.1139
     18 C          -2.6130    0.4500    0.0000 C.ar    1  LIG1        0.0204
     19 C          -3.4670    0.9500    0.0000 C.ar    1  LIG1       -0.0026
     20 C          -3.4670    1.9500    0.0000 C.ar    1  LIG1       -0.0203
     21 C          -2.6130    2.4580    0.0000 C.ar    1  LIG1        0.0165
     22 C          -4.3380    2.4460    0.0000 C.3     1  LIG1        0.0311
     23 N          -0.6630    3.4290    0.0000 N.ar    1  LIG1       -0.0384
     24 N           0.3170    3.5380    0.0000 N.ar    1  LIG1       -0.0222
     25 N           0.7290    2.6250    0.0000 N.ar    1  LIG1       -0.1048
@<TRIPOS>BOND
     1     1     2   ar
     2     1     6   ar
     3     1    25   ar
     4     2     3   ar
     5     2    23   ar
     6     3     4   ar
     7     3    21   ar
     8     4     5   ar
     9     4    18   ar
    10     5     6   ar
    11     6     7    1
    12     7     8    1
    13     7    17    1
    14     8     9    1
    15     9    10    1
    16    10    11   am
    17    10    16    1
    18    11    12    2
    19    11    13    1
    20    13    14    1
    21    14    15    1
    22    16    17    1
    23    18    19   ar
    24    19    20   ar
    25    20    21   ar
    26    20    22    1
    27    23    24   ar
    28    24    25   ar
