@<TRIPOS>MOLECULE
33926_ChemDiv_8012-5018
 23 28 0 0 0
SMALL
GASTEIGER
Energy = 0

@<TRIPOS>ATOM
      1 C          -0.8420   -0.5330    0.0000 C.ar    1  LIG1        0.4771
      2 N          -0.8420    0.4540    0.0000 N.ar    1  LIG1       -0.1446
      3 N          -1.7130    0.9540    0.0000 N.ar    1  LIG1       -0.1621
      4 C          -2.5750    0.4290    0.0000 C.ar    1  LIG1        0.0928
      5 C          -2.5750   -0.5670    0.0000 C.ar    1  LIG1        0.0817
      6 N          -1.7130   -1.0460    0.0000 N.ar    1  LIG1       -0.1649
      7 C          -3.4500   -1.0670    0.0000 C.3     1  LIG1        0.0474
      8 C          -4.3210   -0.5670    0.0000 C.3     1  LIG1        0.0067
      9 C          -4.3080    0.4290    0.0000 C.3     1  LIG1        0.0068
     10 C          -3.4330    0.9250    0.0000 C.3     1  LIG1        0.0488
     11 C           0.1210    0.7670    0.0000 C.ar    1  LIG1        0.1792
     12 C           0.6960   -0.0630    0.0000 C.ar    1  LIG1        0.2962
     13 N           0.1380   -0.8460    0.0000 N.ar    1  LIG1        0.1160
     14 C           1.6880   -0.1000    0.0000 C.3     1  LIG1        0.0862
     15 C           2.2880   -0.8080    0.0000 C.3     1  LIG1        0.0103
     16 C           3.3210   -0.5250    0.0000 C.3     1  LIG1        0.0005
     17 C           3.4580    0.2750    0.0000 C.3     1  LIG1        0.0000
     18 C           2.9330    1.0710    0.0000 C.3     1  LIG1        0.0005
     19 C           1.8380    0.7750    0.0000 C.3     1  LIG1        0.0103
     20 C           3.6960    1.0580    0.0000 C.3     1  LIG1        0.0000
     21 C           3.7380    0.0130    0.0000 C.3     1  LIG1        0.0005
     22 C           2.4130   -0.3380    0.0000 C.3     1  LIG1        0.0103
     23 C           4.3170   -1.0000    0.0000 C.3     1  LIG1        0.0000
@<TRIPOS>BOND
     1     1     2   ar
     2     1     6   ar
     3     1    13   ar
     4     2     3   ar
     5     2    11   ar
     6     3     4   ar
     7     4     5   ar
     8     4    10    1
     9     5     6   ar
    10     5     7    1
    11     7     8    1
    12     8     9    1
    13     9    10    1
    14    11    12   ar
    15    12    13   ar
    16    12    14    1
    17    14    15    1
    18    14    19    1
    19    14    22    1
    20    15    16    1
    21    16    17    1
    22    16    23    1
    23    17    18    1
    24    18    19    1
    25    18    20    1
    26    20    21    1
    27    21    22    1
    28    21    23    1
