@<TRIPOS>MOLECULE
33935_ChemDiv_8015-3936
 14 16 0 0 0
SMALL
GASTEIGER
Energy = 0

@<TRIPOS>ATOM
      1 N           0.5040   -1.2380    0.0000 N.ar    1  LIG1       -0.1075
      2 N           0.5040   -0.2420    0.0000 N.ar    1  LIG1       -0.1301
      3 C          -0.3790    0.2580    0.0000 C.ar    1  LIG1        0.1536
      4 N          -0.3790    1.2540    0.0000 N.pl3   1  LIG1       -0.2919
      5 C          -1.1670    1.8080    0.0000 C.3     1  LIG1        0.0923
      6 C          -0.8790    2.7670    0.0000 C.3     1  LIG1        0.0232
      7 C           0.0790    2.8170    0.0000 C.3     1  LIG1        0.0232
      8 C           0.4250    1.8710    0.0000 C.3     1  LIG1        0.0923
      9 C          -1.2540   -0.2420    0.0000 C.ar    1  LIG1        0.0394
     10 C          -1.2540   -1.2380    0.0000 C.ar    1  LIG1        0.0454
     11 C          -0.3790   -1.7420    0.0000 C.ar    1  LIG1        0.2080
     12 N          -0.1580   -2.7170    0.0000 N.ar    1  LIG1       -0.1060
     13 N           0.8500   -2.8130    0.0000 N.ar    1  LIG1       -0.0210
     14 N           1.2500   -1.8670    0.0000 N.ar    1  LIG1       -0.0210
@<TRIPOS>BOND
     1     1     2   ar
     2     1    11   ar
     3     1    14   ar
     4     2     3   ar
     5     3     4    1
     6     3     9   ar
     7     4     5    1
     8     4     8    1
     9     5     6    1
    10     6     7    1
    11     7     8    1
    12     9    10   ar
    13    10    11   ar
    14    11    12   ar
    15    12    13   ar
    16    13    14   ar
