@<TRIPOS>MOLECULE
33930_ChemDiv_8012-5080
 25 28 0 0 0
SMALL
GASTEIGER
Energy = 0

@<TRIPOS>ATOM
      1 C          -1.4710    0.1710    0.0000 C.3     1  LIG1        0.1241
      2 N          -2.0500   -0.6460    0.0000 N.pl3   1  LIG1       -0.2878
      3 C          -3.0040   -0.3540    0.0000 C.ar    1  LIG1        0.0453
      4 C          -3.0040    0.6500    0.0000 C.ar    1  LIG1       -0.0064
      5 C          -2.0500    0.9540    0.0000 C.3     1  LIG1        0.0514
      6 C          -1.3790    1.6960    0.0000 C.3     1  LIG1        0.0077
      7 C          -2.7830    1.6290    0.0000 C.3     1  LIG1        0.0077
      8 C          -3.8670    1.1500    0.0000 C.ar    1  LIG1       -0.0030
      9 C          -4.7420    0.6500    0.0000 C.ar    1  LIG1       -0.0002
     10 C          -4.7420   -0.3540    0.0000 C.ar    1  LIG1        0.0012
     11 C          -3.8670   -0.8580    0.0000 C.ar    1  LIG1        0.0142
     12 C          -1.4540   -1.4540    0.0000 C.3     1  LIG1        0.1784
     13 C          -0.5000   -1.1210    0.0000 C.2     1  LIG1        0.2469
     14 N          -0.5170   -0.1420    0.0000 N.am    1  LIG1       -0.2660
     15 C           0.3080    0.4540    0.0000 C.3     1  LIG1        0.0952
     16 C           1.2210    0.0540    0.0000 C.3     1  LIG1        0.0262
     17 C           2.0290    0.6250    0.0000 C.3     1  LIG1        0.0281
     18 C           2.9250    0.2000    0.0000 C.ar    1  LIG1       -0.0221
     19 C           3.0040   -0.7960    0.0000 C.ar    1  LIG1       -0.0043
     20 C           3.9040   -1.2250    0.0000 C.ar    1  LIG1       -0.0003
     21 C           4.7380   -0.6630    0.0000 C.ar    1  LIG1       -0.0000
     22 C           4.6460    0.3250    0.0000 C.ar    1  LIG1       -0.0003
     23 C           3.7500    0.7540    0.0000 C.ar    1  LIG1       -0.0043
     24 O           0.3420   -1.6920    0.0000 O.2     1  LIG1       -0.2730
     25 C          -0.8670    0.9830    0.0000 C.3     1  LIG1        0.0412
@<TRIPOS>BOND
     1     1     2    1
     2     1     5    1
     3     1    14    1
     4     1    25    1
     5     2     3    1
     6     2    12    1
     7     3     4   ar
     8     3    11   ar
     9     4     5    1
    10     4     8   ar
    11     5     6    1
    12     5     7    1
    13     8     9   ar
    14     9    10   ar
    15    10    11   ar
    16    12    13    1
    17    13    14   am
    18    13    24    2
    19    14    15    1
    20    15    16    1
    21    16    17    1
    22    17    18    1
    23    18    19   ar
    24    18    23   ar
    25    19    20   ar
    26    20    21   ar
    27    21    22   ar
    28    22    23   ar
