@<TRIPOS>MOLECULE
33936_ChemDiv_8012-7185
 30 34 0 0 0
SMALL
GASTEIGER
Energy = 0

@<TRIPOS>ATOM
      1 N           1.3630    0.8630    0.0000 N.am    1  LIG1       -0.2582
      2 C           0.7540    0.1380    0.0000 C.3     1  LIG1        0.0955
      3 C           1.2750   -0.6920    0.0000 C.3     1  LIG1        0.0991
      4 C           2.2250   -0.4380    0.0000 C.ar    1  LIG1       -0.0017
      5 C           2.2710    0.5290    0.0000 C.ar    1  LIG1        0.0500
      6 C           3.1380    0.9630    0.0000 C.ar    1  LIG1        0.0143
      7 C           3.9500    0.4420    0.0000 C.ar    1  LIG1       -0.0030
      8 C           3.9040   -0.5460    0.0000 C.ar    1  LIG1       -0.0221
      9 C           3.0380   -0.9750    0.0000 C.ar    1  LIG1       -0.0070
     10 C           4.7540   -1.1000    0.0000 C.3     1  LIG1        0.0310
     11 C           0.8330   -1.5670    0.0000 C.3     1  LIG1        0.1448
     12 N          -0.1540   -1.6040    0.0000 N.4     1  LIG1        0.3823
     13 C          -0.6750   -0.7750    0.0000 C.3     1  LIG1        0.1406
     14 C          -0.2170    0.0880    0.0000 C.3     1  LIG1        0.0834
     15 C          -0.6290   -2.5040    0.0000 C.3     1  LIG1        0.2022
     16 C           1.1130    1.8170    0.0000 C.2     1  LIG1        0.2561
     17 C           0.1670    2.0750    0.0000 C.3     1  LIG1        0.2361
     18 N          -0.5250    1.3710    0.0000 N.ar    1  LIG1       -0.1414
     19 N          -2.2170    1.3710    0.0000 N.ar    1  LIG1       -0.1292
     20 C          -2.2170    0.4080    0.0000 C.ar    1  LIG1        0.2055
     21 N          -1.3670   -0.0880    0.0000 N.ar    1  LIG1       -0.1077
     22 N          -0.5250    0.4080    0.0000 N.ar    1  LIG1       -0.0446
     23 C          -3.0670   -0.0880    0.0000 C.ar    1  LIG1        0.0354
     24 C          -3.9170    0.4080    0.0000 C.ar    1  LIG1       -0.0188
     25 C          -3.9170    1.4210    0.0000 C.3     1  LIG1        0.0311
     26 C          -4.7580   -0.0880    0.0000 C.ar    1  LIG1       -0.0042
     27 C          -4.7580   -1.0540    0.0000 C.ar    1  LIG1       -0.0003
     28 C          -3.9170   -1.5500    0.0000 C.ar    1  LIG1        0.0001
     29 C          -3.0670   -1.0540    0.0000 C.ar    1  LIG1        0.0028
     30 O           1.8040    2.5080    0.0000 O.2     1  LIG1       -0.2723
@<TRIPOS>BOND
     1     1     2    1
     2     1     5    1
     3     1    16   am
     4     2     3    1
     5     2    14    1
     6     3     4    1
     7     3    11    1
     8     4     5   ar
     9     4     9   ar
    10     5     6   ar
    11     6     7   ar
    12     7     8   ar
    13     8     9   ar
    14     8    10    1
    15    11    12    1
    16    12    13    1
    17    12    15    1
    18    13    14    1
    19    16    17    1
    20    16    30    2
    21    17    18    1
    22    18    19   ar
    23    18    22   ar
    24    19    20   ar
    25    20    21   ar
    26    20    23    1
    27    21    22   ar
    28    23    24   ar
    29    23    29   ar
    30    24    25    1
    31    24    26   ar
    32    26    27   ar
    33    27    28   ar
    34    28    29   ar
