@<TRIPOS>MOLECULE
33934_ChemDiv_8012-5269
 33 38 0 0 0
SMALL
GASTEIGER
Energy = 0

@<TRIPOS>ATOM
      1 N          -2.2960   -0.1790    0.0000 N.ar    1  LIG1       -0.1861
      2 C          -0.6250   -0.1790    0.0000 C.ar    1  LIG1        0.2151
      3 N          -0.6250   -1.1500    0.0000 N.ar    1  LIG1       -0.1011
      4 N          -1.4630   -1.6210    0.0000 N.ar    1  LIG1       -0.0218
      5 N          -2.2960   -1.1500    0.0000 N.ar    1  LIG1       -0.0382
      6 S           0.3170    0.1210    0.0000 S.3     1  LIG1       -0.0641
      7 C           0.3170    1.1250    0.0000 C.3     1  LIG1        0.1504
      8 C           1.1750    1.6380    0.0000 C.2     1  LIG1        0.2407
      9 N           2.0500    1.1420    0.0000 N.am    1  LIG1       -0.2591
     10 C           2.1630    0.1460    0.0000 C.3     1  LIG1        0.0955
     11 C           3.1380   -0.0460    0.0000 C.3     1  LIG1        0.0991
     12 C           3.6250    0.8170    0.0000 C.ar    1  LIG1       -0.0017
     13 C           2.9580    1.5540    0.0000 C.ar    1  LIG1        0.0500
     14 C           3.2460    2.4880    0.0000 C.ar    1  LIG1        0.0143
     15 C           4.2170    2.7000    0.0000 C.ar    1  LIG1       -0.0030
     16 C           4.8960    1.9750    0.0000 C.ar    1  LIG1       -0.0221
     17 C           4.5920    1.0330    0.0000 C.ar    1  LIG1       -0.0070
     18 C           5.8830    2.1920    0.0000 C.3     1  LIG1        0.0310
     19 C           3.4580   -0.9920    0.0000 C.3     1  LIG1        0.1448
     20 N           2.7920   -1.7460    0.0000 N.4     1  LIG1        0.3823
     21 C           1.8080   -1.5460    0.0000 C.3     1  LIG1        0.1406
     22 C           1.4920   -0.5960    0.0000 C.3     1  LIG1        0.0834
     23 C           3.1040   -2.6960    0.0000 C.3     1  LIG1        0.2022
     24 O           1.1750    2.6170    0.0000 O.2     1  LIG1       -0.2736
     25 C          -2.9790    0.4960    0.0000 C.ar    1  LIG1        0.0898
     26 C          -3.9130    0.2580    0.0000 C.ar    1  LIG1        0.0594
     27 C          -4.5880    0.9210    0.0000 C.ar    1  LIG1        0.1779
     28 C          -4.3380    1.8420    0.0000 C.ar    1  LIG1        0.1765
     29 O          -5.1330    2.3750    0.0000 O.3     1  LIG1       -0.4346
     30 C          -5.8880    1.7670    0.0000 C.3     1  LIG1        0.4294
     31 O          -5.5330    0.8750    0.0000 O.3     1  LIG1       -0.4346
     32 C          -3.4080    2.0960    0.0000 C.ar    1  LIG1        0.0417
     33 C          -2.7250    1.4290    0.0000 C.ar    1  LIG1        0.0226
@<TRIPOS>BOND
     1     1     2   ar
     2     1     5   ar
     3     1    25    1
     4     2     3   ar
     5     2     6    1
     6     3     4   ar
     7     4     5   ar
     8     6     7    1
     9     7     8    1
    10     8     9   am
    11     8    24    2
    12     9    10    1
    13     9    13    1
    14    10    11    1
    15    10    22    1
    16    11    12    1
    17    11    19    1
    18    12    13   ar
    19    12    17   ar
    20    13    14   ar
    21    14    15   ar
    22    15    16   ar
    23    16    17   ar
    24    16    18    1
    25    19    20    1
    26    20    21    1
    27    20    23    1
    28    21    22    1
    29    25    26   ar
    30    25    33   ar
    31    26    27   ar
    32    27    28   ar
    33    27    31    1
    34    28    29    1
    35    28    32   ar
    36    29    30    1
    37    30    31    1
    38    32    33   ar
