@<TRIPOS>MOLECULE
33932_ChemDiv_8012-5105
 29 32 0 0 0
SMALL
GASTEIGER
Energy = 0

@<TRIPOS>ATOM
      1 C          -0.9580   -1.3710    0.0000 C.ar    1  LIG1        0.2276
      2 N          -0.4790   -0.5420    0.0000 N.ar    1  LIG1       -0.1855
      3 C           0.9630   -1.3710    0.0000 C.ar    1  LIG1        0.2600
      4 O           0.4750   -2.1920    0.0000 O.2     1  LIG1       -0.3324
      5 N          -0.4790   -2.1920    0.0000 N.ar    1  LIG1       -0.0538
      6 C           1.9170   -1.3710    0.0000 C.ar    1  LIG1        0.0559
      7 C           2.4040   -0.5420    0.0000 C.ar    1  LIG1        0.0040
      8 C           3.3540   -0.5420    0.0000 C.ar    1  LIG1        0.0213
      9 C           3.8420    0.3460    0.0000 C.3     1  LIG1        0.2320
     10 O           3.3290    1.2130    0.0000 O.3     1  LIG1       -0.4706
     11 C           2.3830    1.2130    0.0000 C.ar    1  LIG1        0.1390
     12 C           1.9170    0.4130    0.0000 C.ar    1  LIG1        0.0366
     13 C           1.0250    0.4130    0.0000 C.ar    1  LIG1       -0.0012
     14 C           0.5540    1.1880    0.0000 C.ar    1  LIG1       -0.0226
     15 C          -0.4330    1.1880    0.0000 C.3     1  LIG1        0.0189
     16 C          -1.4380    1.1880    0.0000 C.3     1  LIG1        0.0044
     17 C          -0.4250    0.1880    0.0000 C.3     1  LIG1        0.0044
     18 C          -0.4330    2.1960    0.0000 C.3     1  LIG1        0.0044
     19 C           1.0250    1.9960    0.0000 C.ar    1  LIG1       -0.0012
     20 C           1.9170    1.9960    0.0000 C.ar    1  LIG1        0.0366
     21 C           3.8420   -1.3710    0.0000 C.ar    1  LIG1       -0.0007
     22 C           3.3540   -2.1920    0.0000 C.ar    1  LIG1       -0.0001
     23 C           2.4040   -2.1920    0.0000 C.ar    1  LIG1        0.0047
     24 C          -1.9170   -1.3710    0.0000 C.ar    1  LIG1        0.1990
     25 C          -3.3540   -0.5420    0.0000 C.ar    1  LIG1        0.2342
     26 N          -3.8460   -1.3710    0.0000 N.ar    1  LIG1       -0.0297
     27 O          -3.3540   -2.1920    0.0000 O.2     1  LIG1       -0.2401
     28 N          -2.3960   -2.1920    0.0000 N.ar    1  LIG1       -0.0435
     29 N          -3.8210    0.2830    0.0000 N.pl3   1  LIG1       -0.1018
@<TRIPOS>BOND
     1     1     2   ar
     2     1     5   ar
     3     1    24    1
     4     2     3   ar
     5     3     4   ar
     6     3     6    1
     7     4     5   ar
     8     6     7   ar
     9     6    23   ar
    10     7     8   ar
    11     8     9    1
    12     8    21   ar
    13     9    10    1
    14    10    11    1
    15    11    12   ar
    16    11    20   ar
    17    12    13   ar
    18    13    14   ar
    19    14    15    1
    20    14    19   ar
    21    15    16    1
    22    15    17    1
    23    15    18    1
    24    19    20   ar
    25    21    22   ar
    26    22    23   ar
    27    24    25   ar
    28    24    28   ar
    29    25    26   ar
    30    25    29    1
    31    26    27   ar
    32    27    28   ar
