@<TRIPOS>MOLECULE
33938_ChemDiv_8012-2237
 32 36 0 0 0
SMALL
GASTEIGER
Energy = 0

@<TRIPOS>ATOM
      1 C           2.4880   -0.8250    0.0000 C.ar    1  LIG1        0.2238
      2 N           1.9830    0.0250    0.0000 N.ar    1  LIG1       -0.1782
      3 C           1.0080    0.0250    0.0000 C.ar    1  LIG1        0.2601
      4 N           0.5040   -0.8250    0.0000 N.ar    1  LIG1       -0.1952
      5 C           1.0080   -1.6750    0.0000 C.ar    1  LIG1        0.1563
      6 N           1.9830   -1.6750    0.0000 N.ar    1  LIG1       -0.1977
      7 C           0.5040   -2.5170    0.0000 C.3     1  LIG1        0.1323
      8 S          -0.5250   -2.5170    0.0000 S.3     1  LIG1       -0.0486
      9 C          -1.0750   -1.7080    0.0000 C.ar    1  LIG1        0.2590
     10 N          -0.5960   -0.8500    0.0000 N.ar    1  LIG1       -0.2027
     11 C          -2.0710   -0.0210    0.0000 C.ar    1  LIG1        0.1193
     12 C          -2.5460   -0.8500    0.0000 C.ar    1  LIG1        0.1651
     13 O          -2.0500   -1.7080    0.0000 O.2     1  LIG1       -0.4300
     14 C          -3.5000   -0.8380    0.0000 C.ar    1  LIG1        0.0362
     15 C          -3.9880   -1.6960    0.0000 C.ar    1  LIG1        0.0031
     16 C          -4.9630   -1.6960    0.0000 C.ar    1  LIG1        0.0001
     17 C          -5.4540   -0.8500    0.0000 C.ar    1  LIG1        0.0000
     18 C          -4.9580    0.0000    0.0000 C.ar    1  LIG1        0.0001
     19 C          -3.9880    0.0000    0.0000 C.ar    1  LIG1        0.0031
     20 C          -2.5250    0.8130    0.0000 C.ar    1  LIG1        0.0208
     21 C          -3.5000    0.8130    0.0000 C.ar    1  LIG1        0.0016
     22 C          -3.9880    1.6830    0.0000 C.ar    1  LIG1        0.0000
     23 C          -3.4830    2.5210    0.0000 C.ar    1  LIG1        0.0000
     24 C          -2.5040    2.5210    0.0000 C.ar    1  LIG1        0.0000
     25 C          -2.0330    1.6830    0.0000 C.ar    1  LIG1        0.0016
     26 N           0.5330    0.8670    0.0000 N.pl3   1  LIG1       -0.0859
     27 N           3.4630   -0.8250    0.0000 N.pl3   1  LIG1       -0.2730
     28 C           3.9630   -1.6750    0.0000 C.3     1  LIG1        0.1257
     29 C           4.9420   -1.6750    0.0000 C.3     1  LIG1        0.1637
     30 O           5.4500   -0.8250    0.0000 O.3     1  LIG1       -0.3501
     31 C           4.9420    0.0250    0.0000 C.3     1  LIG1        0.1637
     32 C           3.9630    0.0250    0.0000 C.3     1  LIG1        0.1257
@<TRIPOS>BOND
     1     1     2   ar
     2     1     6   ar
     3     1    27    1
     4     2     3   ar
     5     3     4   ar
     6     3    26    1
     7     4     5   ar
     8     5     6   ar
     9     5     7    1
    10     7     8    1
    11     8     9    1
    12     9    10   ar
    13     9    13   ar
    14    10    11   ar
    15    11    12   ar
    16    11    20    1
    17    12    13   ar
    18    12    14    1
    19    14    15   ar
    20    14    19   ar
    21    15    16   ar
    22    16    17   ar
    23    17    18   ar
    24    18    19   ar
    25    20    21   ar
    26    20    25   ar
    27    21    22   ar
    28    22    23   ar
    29    23    24   ar
    30    24    25   ar
    31    27    28    1
    32    27    32    1
    33    28    29    1
    34    29    30    1
    35    30    31    1
    36    31    32    1
