@<TRIPOS>MOLECULE
33933_ChemDiv_8010-5952
 15 17 0 0 0
SMALL
GASTEIGER
Energy = 0

@<TRIPOS>ATOM
      1 N           1.3750   -0.7000    0.0000 N.ar    1  LIG1       -0.1075
      2 C           0.5040   -1.1960    0.0000 C.ar    1  LIG1        0.2079
      3 N           0.7290   -2.1920    0.0000 N.ar    1  LIG1       -0.1060
      4 N           1.6960   -2.2790    0.0000 N.ar    1  LIG1       -0.0210
      5 N           2.1170   -1.3920    0.0000 N.ar    1  LIG1       -0.0210
      6 C          -0.3670   -0.7000    0.0000 C.ar    1  LIG1        0.0422
      7 C          -0.3670    0.2920    0.0000 C.ar    1  LIG1        0.0379
      8 C           0.5040    0.7920    0.0000 C.ar    1  LIG1        0.1694
      9 N           1.3750    0.2920    0.0000 N.ar    1  LIG1       -0.1286
     10 N           0.5040    1.7880    0.0000 N.pl3   1  LIG1       -0.2170
     11 C          -0.3500    2.2830    0.0000 C.3     1  LIG1        0.1372
     12 C          -1.2420    0.7920    0.0000 C.ar    1  LIG1        0.0030
     13 C          -2.1210    0.2920    0.0000 C.ar    1  LIG1        0.0001
     14 C          -2.1210   -0.7000    0.0000 C.ar    1  LIG1        0.0001
     15 C          -1.2420   -1.1960    0.0000 C.ar    1  LIG1        0.0033
@<TRIPOS>BOND
     1     1     2   ar
     2     1     5   ar
     3     1     9   ar
     4     2     3   ar
     5     2     6   ar
     6     3     4   ar
     7     4     5   ar
     8     6     7   ar
     9     6    15   ar
    10     7     8   ar
    11     7    12   ar
    12     8     9   ar
    13     8    10    1
    14    10    11    1
    15    12    13   ar
    16    13    14   ar
    17    14    15   ar
