@<TRIPOS>MOLECULE
33947_ChemDiv_8011-4696
 26 28 0 0 0
SMALL
GASTEIGER
Energy = 0

@<TRIPOS>ATOM
      1 C           0.0080   -0.8830    0.0000 C.3     1  LIG1        0.2268
      2 C           1.0130   -0.8830    0.0000 C.2     1  LIG1        0.2050
      3 C           1.5250   -0.0080    0.0000 C.2     1  LIG1        0.0967
      4 C           1.0130    0.8670    0.0000 C.2     1  LIG1       -0.0317
      5 C           0.0080    0.8670    0.0000 C.3     1  LIG1        0.0250
      6 C          -0.5040   -0.0080    0.0000 C.3     1  LIG1        0.0566
      7 C          -1.5000   -0.0080    0.0000 C.ar    1  LIG1       -0.0202
      8 C          -2.0130   -0.8830    0.0000 C.ar    1  LIG1       -0.0042
      9 C          -3.0210   -0.8830    0.0000 C.ar    1  LIG1       -0.0003
     10 C          -3.5380   -0.0080    0.0000 C.ar    1  LIG1       -0.0000
     11 C          -3.0210    0.8670    0.0000 C.ar    1  LIG1       -0.0003
     12 C          -2.0130    0.8670    0.0000 C.ar    1  LIG1       -0.0042
     13 C          -0.4960    1.7380    0.0000 C.3     1  LIG1        0.0044
     14 C           0.0080    2.6080    0.0000 C.3     1  LIG1        0.0007
     15 C           1.0130    2.6080    0.0000 C.3     1  LIG1        0.0044
     16 C           1.5130    1.7380    0.0000 C.3     1  LIG1        0.0228
     17 C           2.5330   -0.0080    0.0000 C.1     1  LIG1        0.1027
     18 N           3.5330   -0.0080    0.0000 N.1     1  LIG1       -0.1908
     19 O           1.5000   -1.7420    0.0000 O.2     1  LIG1       -0.2890
     20 C          -0.4750   -1.7420    0.0000 C.2     1  LIG1        0.3369
     21 O           0.0670   -2.5710    0.0000 O.2     1  LIG1       -0.2485
     22 O          -1.4670   -1.7420    0.0000 O.3     1  LIG1       -0.4475
     23 C          -1.9130   -2.6040    0.0000 C.3     1  LIG1        0.2086
     24 C          -2.8920   -2.6040    0.0000 C.3     1  LIG1        0.0513
     25 C           0.4710   -1.7580    0.0000 C.1     1  LIG1        0.0898
     26 N           0.9460   -2.5710    0.0000 N.1     1  LIG1       -0.1949
@<TRIPOS>BOND
     1     1     2    1
     2     1     6    1
     3     1    20    1
     4     1    25    1
     5     2     3    1
     6     2    19    2
     7     3     4    2
     8     3    17    1
     9     4     5    1
    10     4    16    1
    11     5     6    1
    12     5    13    1
    13     6     7    1
    14     7     8   ar
    15     7    12   ar
    16     8     9   ar
    17     9    10   ar
    18    10    11   ar
    19    11    12   ar
    20    13    14    1
    21    14    15    1
    22    15    16    1
    23    17    18    3
    24    20    21    2
    25    20    22    1
    26    22    23    1
    27    23    24    1
    28    25    26    3
