@<TRIPOS>MOLECULE
33940_ChemDiv_8012-2257
 11 12 0 0 0
SMALL
GASTEIGER
Energy = 0

@<TRIPOS>ATOM
      1 C           0.4290   -0.0290    0.0000 C.ar    1  LIG1        0.1147
      2 C          -0.3880    0.4290    0.0000 C.ar    1  LIG1        0.0504
      3 C          -1.2040   -0.0290    0.0000 C.ar    1  LIG1       -0.0140
      4 C          -1.2040   -0.9540    0.0000 C.ar    1  LIG1       -0.0021
      5 C          -0.3880   -1.4210    0.0000 C.ar    1  LIG1        0.0211
      6 C           0.4290   -0.9540    0.0000 C.ar    1  LIG1        0.1093
      7 N           1.2540   -1.4210    0.0000 N.ar    1  LIG1       -0.1901
      8 S           2.0540   -0.9540    0.0000 S.2     1  LIG1        0.1165
      9 N           2.0540   -0.0290    0.0000 N.ar    1  LIG1       -0.1896
     10 C          -2.0580    0.4500    0.0000 C.3     1  LIG1        0.0316
     11 BR         -0.3880    1.4250    0.0000 Br      1  LIG1       -0.0477
@<TRIPOS>BOND
     1     1     2   ar
     2     1     6   ar
     3     1     9   ar
     4     2     3   ar
     5     2    11    1
     6     3     4   ar
     7     3    10    1
     8     4     5   ar
     9     5     6   ar
    10     6     7   ar
    11     7     8   ar
    12     8     9   ar
