@<TRIPOS>MOLECULE
33942_ChemDiv_8012-2358
 23 26 0 0 0
SMALL
GASTEIGER
Energy = 0

@<TRIPOS>ATOM
      1 N           1.3250    0.9080    0.0000 N.ar    1  LIG1       -0.1414
      2 N          -0.3540    0.9080    0.0000 N.ar    1  LIG1       -0.1292
      3 C          -0.3540   -0.0750    0.0000 C.ar    1  LIG1        0.2059
      4 N           0.4880   -0.5630    0.0000 N.ar    1  LIG1       -0.1077
      5 N           1.3250   -0.0750    0.0000 N.ar    1  LIG1       -0.0446
      6 C          -1.2080   -0.5630    0.0000 C.ar    1  LIG1        0.0426
      7 C          -2.0500   -0.0750    0.0000 C.ar    1  LIG1        0.0433
      8 C          -2.8960   -0.5500    0.0000 C.ar    1  LIG1        0.1765
      9 C          -2.8960   -1.5290    0.0000 C.ar    1  LIG1        0.1764
     10 O          -3.8170   -1.8250    0.0000 O.3     1  LIG1       -0.4346
     11 C          -4.3960   -1.0420    0.0000 C.3     1  LIG1        0.4294
     12 O          -3.8170   -0.2580    0.0000 O.3     1  LIG1       -0.4346
     13 C          -2.0500   -2.0210    0.0000 C.ar    1  LIG1        0.0403
     14 C          -1.2080   -1.5290    0.0000 C.ar    1  LIG1        0.0065
     15 C           2.0130    1.5920    0.0000 C.3     1  LIG1        0.2358
     16 C           2.9580    1.3420    0.0000 C.2     1  LIG1        0.2526
     17 N           3.2080    0.4130    0.0000 N.am    1  LIG1       -0.2727
     18 C           2.5130   -0.2790    0.0000 C.3     1  LIG1        0.1255
     19 C           2.7580   -1.2130    0.0000 C.3     1  LIG1        0.1636
     20 O           3.6920   -1.4710    0.0000 O.3     1  LIG1       -0.3501
     21 C           4.3920   -0.7880    0.0000 C.3     1  LIG1        0.1636
     22 C           4.1420    0.1500    0.0000 C.3     1  LIG1        0.1255
     23 O           3.6380    2.0250    0.0000 O.2     1  LIG1       -0.2726
@<TRIPOS>BOND
     1     1     2   ar
     2     1     5   ar
     3     1    15    1
     4     2     3   ar
     5     3     4   ar
     6     3     6    1
     7     4     5   ar
     8     6     7   ar
     9     6    14   ar
    10     7     8   ar
    11     8     9   ar
    12     8    12    1
    13     9    10    1
    14     9    13   ar
    15    10    11    1
    16    11    12    1
    17    13    14   ar
    18    15    16    1
    19    16    17   am
    20    16    23    2
    21    17    18    1
    22    17    22    1
    23    18    19    1
    24    19    20    1
    25    20    21    1
    26    21    22    1
