@<TRIPOS>MOLECULE
33953_ChemDiv_8016-4554
 28 32 0 0 0
SMALL
GASTEIGER
Energy = 0

@<TRIPOS>ATOM
      1 N          -2.9670   -0.8670    0.0000 N.ar    1  LIG1       -0.1075
      2 N          -1.9460   -0.8540    0.0000 N.ar    1  LIG1       -0.1301
      3 C          -1.4710    0.0130    0.0000 C.ar    1  LIG1        0.1539
      4 N          -0.4710   -0.0080    0.0000 N.pl3   1  LIG1       -0.2809
      5 C           0.0290    0.8670    0.0000 C.3     1  LIG1        0.1555
      6 C           1.0290    0.8580    0.0000 C.3     1  LIG1        0.1611
      7 N           1.5380   -0.0080    0.0000 N.4     1  LIG1        0.3820
      8 C           2.5380   -0.0080    0.0000 C.3     1  LIG1        0.1331
      9 C           3.0330    0.8460    0.0000 C.ar    1  LIG1        0.0328
     10 C           2.5380    1.7290    0.0000 C.ar    1  LIG1        0.0016
     11 C           3.0330    2.6040    0.0000 C.ar    1  LIG1       -0.0001
     12 C           4.0370    2.6040    0.0000 C.ar    1  LIG1       -0.0000
     13 C           4.5380    1.7040    0.0000 C.ar    1  LIG1       -0.0001
     14 C           4.0370    0.8460    0.0000 C.ar    1  LIG1        0.0016
     15 C           3.0330   -0.8790    0.0000 C.ar    1  LIG1        0.0328
     16 C           2.5380   -1.7420    0.0000 C.ar    1  LIG1        0.0016
     17 C           3.0330   -2.6000    0.0000 C.ar    1  LIG1       -0.0001
     18 C           4.0370   -2.6000    0.0000 C.ar    1  LIG1       -0.0000
     19 C           4.5380   -1.7420    0.0000 C.ar    1  LIG1       -0.0001
     20 C           4.0370   -0.8790    0.0000 C.ar    1  LIG1        0.0016
     21 C           1.0290   -0.8670    0.0000 C.3     1  LIG1        0.1611
     22 C           0.0290   -0.8670    0.0000 C.3     1  LIG1        0.1555
     23 C          -1.9710    0.8670    0.0000 C.ar    1  LIG1        0.0394
     24 C          -2.9670    0.8670    0.0000 C.ar    1  LIG1        0.0454
     25 C          -3.4670   -0.0080    0.0000 C.ar    1  LIG1        0.2080
     26 N          -4.4540   -0.2170    0.0000 N.ar    1  LIG1       -0.1060
     27 N          -4.5420   -1.1880    0.0000 N.ar    1  LIG1       -0.0210
     28 N          -3.6460   -1.5920    0.0000 N.ar    1  LIG1       -0.0210
@<TRIPOS>BOND
     1     1     2   ar
     2     1    25   ar
     3     1    28   ar
     4     2     3   ar
     5     3     4    1
     6     3    23   ar
     7     4     5    1
     8     4    22    1
     9     5     6    1
    10     6     7    1
    11     7     8    1
    12     7    21    1
    13     8     9    1
    14     8    15    1
    15     9    10   ar
    16     9    14   ar
    17    10    11   ar
    18    11    12   ar
    19    12    13   ar
    20    13    14   ar
    21    15    16   ar
    22    15    20   ar
    23    16    17   ar
    24    17    18   ar
    25    18    19   ar
    26    19    20   ar
    27    21    22    1
    28    23    24   ar
    29    24    25   ar
    30    25    26   ar
    31    26    27   ar
    32    27    28   ar
