@<TRIPOS>MOLECULE
33954_ChemDiv_8012-7208
 31 35 0 0 0
SMALL
GASTEIGER
Energy = 0

@<TRIPOS>ATOM
      1 N           1.5880    3.1920    0.0000 N.ar    1  LIG1       -0.1862
      2 C           0.2170    2.2080    0.0000 C.ar    1  LIG1        0.2151
      3 N          -0.3670    3.0130    0.0000 N.ar    1  LIG1       -0.1011
      4 N           0.0420    3.9000    0.0000 N.ar    1  LIG1       -0.0218
      5 N           1.0000    3.9960    0.0000 N.ar    1  LIG1       -0.0382
      6 S           0.0500    1.2330    0.0000 S.3     1  LIG1       -0.0641
      7 C          -0.8580    0.8880    0.0000 C.3     1  LIG1        0.1504
      8 C          -1.0170   -0.0670    0.0000 C.2     1  LIG1        0.2407
      9 N          -1.9330   -0.4130    0.0000 N.am    1  LIG1       -0.2591
     10 C          -2.1790   -1.3460    0.0000 C.3     1  LIG1        0.0955
     11 C          -3.1630   -1.4000    0.0000 C.3     1  LIG1        0.0991
     12 C          -3.5040   -0.5000    0.0000 C.ar    1  LIG1       -0.0017
     13 C          -2.7460    0.1250    0.0000 C.ar    1  LIG1        0.0500
     14 C          -2.9000    1.0630    0.0000 C.ar    1  LIG1        0.0143
     15 C          -3.8000    1.4170    0.0000 C.ar    1  LIG1       -0.0030
     16 C          -4.5540    0.8000    0.0000 C.ar    1  LIG1       -0.0221
     17 C          -4.3960   -0.1540    0.0000 C.ar    1  LIG1       -0.0070
     18 C          -5.5080    1.1630    0.0000 C.3     1  LIG1        0.0310
     19 C          -3.6040   -2.2630    0.0000 C.3     1  LIG1        0.1448
     20 N          -3.0830   -3.0960    0.0000 N.4     1  LIG1        0.3823
     21 C          -2.0920   -3.0420    0.0000 C.3     1  LIG1        0.1406
     22 C          -1.6540   -2.1750    0.0000 C.3     1  LIG1        0.0834
     23 C          -3.5500   -3.9920    0.0000 C.3     1  LIG1        0.2022
     24 O          -0.2580   -0.6830    0.0000 O.2     1  LIG1       -0.2736
     25 C           2.5670    3.0500    0.0000 C.ar    1  LIG1        0.0867
     26 C           2.9130    2.1210    0.0000 C.ar    1  LIG1        0.0201
     27 C           3.8710    1.9750    0.0000 C.ar    1  LIG1        0.0129
     28 C           4.4920    2.7420    0.0000 C.ar    1  LIG1        0.0578
     29 C           4.1460    3.6540    0.0000 C.ar    1  LIG1        0.0129
     30 C           3.1830    3.8000    0.0000 C.ar    1  LIG1        0.0201
     31 CL          5.5040    2.5790    0.0000 Cl      1  LIG1       -0.0822
@<TRIPOS>BOND
     1     1     2   ar
     2     1     5   ar
     3     1    25    1
     4     2     3   ar
     5     2     6    1
     6     3     4   ar
     7     4     5   ar
     8     6     7    1
     9     7     8    1
    10     8     9   am
    11     8    24    2
    12     9    10    1
    13     9    13    1
    14    10    11    1
    15    10    22    1
    16    11    12    1
    17    11    19    1
    18    12    13   ar
    19    12    17   ar
    20    13    14   ar
    21    14    15   ar
    22    15    16   ar
    23    16    17   ar
    24    16    18    1
    25    19    20    1
    26    20    21    1
    27    20    23    1
    28    21    22    1
    29    25    26   ar
    30    25    30   ar
    31    26    27   ar
    32    27    28   ar
    33    28    29   ar
    34    28    31    1
    35    29    30   ar
