@<TRIPOS>MOLECULE
33958_ChemDiv_8013-0818
 33 37 0 0 0
SMALL
GASTEIGER
Energy = 0

@<TRIPOS>ATOM
      1 N           1.5460    2.4920    0.0000 N.ar    1  LIG1       -0.1868
      2 C           0.0750    1.7170    0.0000 C.ar    1  LIG1        0.2151
      3 N          -0.3710    2.5750    0.0000 N.ar    1  LIG1       -0.1011
      4 N           0.1500    3.3790    0.0000 N.ar    1  LIG1       -0.0218
      5 N           1.0960    3.3330    0.0000 N.ar    1  LIG1       -0.0382
      6 S          -0.6580    1.0540    0.0000 S.3     1  LIG1       -0.0641
      7 C          -0.4290    0.0880    0.0000 C.3     1  LIG1        0.1504
      8 C          -1.1670   -0.5830    0.0000 C.2     1  LIG1        0.2407
      9 N          -2.1540   -0.6920    0.0000 N.am    1  LIG1       -0.2591
     10 C          -2.8210    0.0330    0.0000 C.3     1  LIG1        0.0955
     11 C          -3.7380   -0.3790    0.0000 C.3     1  LIG1        0.0991
     12 C          -3.6170   -1.3670    0.0000 C.ar    1  LIG1       -0.0017
     13 C          -2.6380   -1.5630    0.0000 C.ar    1  LIG1        0.0500
     14 C          -2.3250   -2.5040    0.0000 C.ar    1  LIG1        0.0143
     15 C          -2.9750   -3.2500    0.0000 C.ar    1  LIG1       -0.0030
     16 C          -3.9540   -3.0580    0.0000 C.ar    1  LIG1       -0.0221
     17 C          -4.2670   -2.1170    0.0000 C.ar    1  LIG1       -0.0070
     18 C          -4.6080   -3.8040    0.0000 C.3     1  LIG1        0.0310
     19 C          -4.5420    0.2000    0.0000 C.3     1  LIG1        0.1448
     20 N          -4.4460    1.1750    0.0000 N.4     1  LIG1        0.3823
     21 C          -3.5460    1.5960    0.0000 C.3     1  LIG1        0.1406
     22 C          -2.7330    1.0170    0.0000 C.3     1  LIG1        0.0834
     23 C          -5.2420    1.7540    0.0000 C.3     1  LIG1        0.2022
     24 O          -0.9500   -1.5630    0.0000 O.2     1  LIG1       -0.2736
     25 C           2.4630    2.2000    0.0000 C.ar    1  LIG1        0.0786
     26 C           2.6670    1.2580    0.0000 C.ar    1  LIG1       -0.0047
     27 C           3.5710    0.9790    0.0000 C.ar    1  LIG1       -0.0070
     28 C           4.2830    1.6210    0.0000 C.ar    1  LIG1       -0.0224
     29 C           4.0790    2.5580    0.0000 C.ar    1  LIG1       -0.0070
     30 C           3.1630    2.8380    0.0000 C.ar    1  LIG1       -0.0047
     31 C           2.9540    3.8080    0.0000 C.3     1  LIG1        0.0326
     32 C           5.2380    1.3290    0.0000 C.3     1  LIG1        0.0310
     33 C           1.9330    0.6130    0.0000 C.3     1  LIG1        0.0326
@<TRIPOS>BOND
     1     1     2   ar
     2     1     5   ar
     3     1    25    1
     4     2     3   ar
     5     2     6    1
     6     3     4   ar
     7     4     5   ar
     8     6     7    1
     9     7     8    1
    10     8     9   am
    11     8    24    2
    12     9    10    1
    13     9    13    1
    14    10    11    1
    15    10    22    1
    16    11    12    1
    17    11    19    1
    18    12    13   ar
    19    12    17   ar
    20    13    14   ar
    21    14    15   ar
    22    15    16   ar
    23    16    17   ar
    24    16    18    1
    25    19    20    1
    26    20    21    1
    27    20    23    1
    28    21    22    1
    29    25    26   ar
    30    25    30   ar
    31    26    27   ar
    32    26    33    1
    33    27    28   ar
    34    28    29   ar
    35    28    32    1
    36    29    30   ar
    37    30    31    1
