@<TRIPOS>MOLECULE
33957_ChemDiv_C301-5405
 18 21 0 0 0
SMALL
GASTEIGER
Energy = 0

@<TRIPOS>ATOM
      1 N          -1.2000    1.3630    0.0000 N.ar    1  LIG1       -0.1075
      2 N          -0.1790    1.3460    0.0000 N.ar    1  LIG1       -0.1301
      3 C           0.3040    0.4630    0.0000 C.ar    1  LIG1        0.1535
      4 C          -0.2210   -0.4040    0.0000 C.ar    1  LIG1        0.0364
      5 C          -1.2330   -0.3790    0.0000 C.ar    1  LIG1        0.0421
      6 C          -1.7290    0.4960    0.0000 C.ar    1  LIG1        0.2079
      7 N          -2.7080    0.7420    0.0000 N.ar    1  LIG1       -0.1060
      8 N          -2.7920    1.7500    0.0000 N.ar    1  LIG1       -0.0210
      9 N          -1.8540    2.1380    0.0000 N.ar    1  LIG1       -0.0210
     10 C          -1.7460   -1.2500    0.0000 C.ar    1  LIG1        0.0033
     11 C          -1.2630   -2.1210    0.0000 C.ar    1  LIG1        0.0001
     12 C          -0.2540   -2.1330    0.0000 C.ar    1  LIG1        0.0001
     13 C           0.2710   -1.2790    0.0000 C.ar    1  LIG1        0.0029
     14 N           1.2790    0.4460    0.0000 N.pl3   1  LIG1       -0.2919
     15 C           1.8290   -0.3580    0.0000 C.3     1  LIG1        0.0923
     16 C           2.7710   -0.0670    0.0000 C.3     1  LIG1        0.0232
     17 C           2.7880    0.9000    0.0000 C.3     1  LIG1        0.0232
     18 C           1.8580    1.2210    0.0000 C.3     1  LIG1        0.0923
@<TRIPOS>BOND
     1     1     2   ar
     2     1     6   ar
     3     1     9   ar
     4     2     3   ar
     5     3     4   ar
     6     3    14    1
     7     4     5   ar
     8     4    13   ar
     9     5     6   ar
    10     5    10   ar
    11     6     7   ar
    12     7     8   ar
    13     8     9   ar
    14    10    11   ar
    15    11    12   ar
    16    12    13   ar
    17    14    15    1
    18    14    18    1
    19    15    16    1
    20    16    17    1
    21    17    18    1
