@<TRIPOS>MOLECULE
33951_ChemDiv_8011-5619
 22 25 0 0 0
SMALL
GASTEIGER
Energy = 0

@<TRIPOS>ATOM
      1 N           0.4130   -1.0210    0.0000 N.ar    1  LIG1       -0.2536
      2 C           0.4130   -2.0080    0.0000 C.ar    1  LIG1        0.1878
      3 N          -0.4460   -2.5040    0.0000 N.ar    1  LIG1       -0.2214
      4 C          -1.3130   -2.0080    0.0000 C.ar    1  LIG1        0.0880
      5 C          -1.3130   -1.0210    0.0000 C.ar    1  LIG1        0.0742
      6 C          -0.4460   -0.5380    0.0000 C.ar    1  LIG1        0.2676
      7 O          -0.4460    0.4500    0.0000 O.2     1  LIG1       -0.2665
      8 C          -2.1790   -0.5380    0.0000 C.ar    1  LIG1        0.0063
      9 C          -3.0420   -1.0210    0.0000 C.ar    1  LIG1        0.0003
     10 C          -3.0420   -2.0080    0.0000 C.ar    1  LIG1        0.0015
     11 C          -2.1790   -2.5040    0.0000 C.ar    1  LIG1        0.0193
     12 S           1.2790   -2.5040    0.0000 S.2     1  LIG1       -0.0105
     13 C           1.2790   -0.5380    0.0000 C.ar    1  LIG1        0.0686
     14 C           1.3000    0.4750    0.0000 C.ar    1  LIG1        0.0163
     15 C           2.2000    0.9540    0.0000 C.ar    1  LIG1        0.0014
     16 C           3.0380    0.4330    0.0000 C.ar    1  LIG1        0.0001
     17 C           3.0210   -0.5750    0.0000 C.ar    1  LIG1        0.0015
     18 C           2.1170   -1.0580    0.0000 C.ar    1  LIG1        0.0177
     19 C           2.2380    1.9670    0.0000 C.ar    1  LIG1        0.0000
     20 C           1.3790    2.5080    0.0000 C.ar    1  LIG1        0.0000
     21 C           0.4830    2.0420    0.0000 C.ar    1  LIG1        0.0000
     22 C           0.4460    1.0170    0.0000 C.ar    1  LIG1        0.0014
@<TRIPOS>BOND
     1     1     2   ar
     2     1     6   ar
     3     1    13    1
     4     2     3   ar
     5     2    12    2
     6     3     4   ar
     7     4     5   ar
     8     4    11   ar
     9     5     6   ar
    10     5     8   ar
    11     6     7    2
    12     8     9   ar
    13     9    10   ar
    14    10    11   ar
    15    13    14   ar
    16    13    18   ar
    17    14    15   ar
    18    14    22   ar
    19    15    16   ar
    20    15    19   ar
    21    16    17   ar
    22    17    18   ar
    23    19    20   ar
    24    20    21   ar
    25    21    22   ar
