@<TRIPOS>MOLECULE
33956_ChemDiv_8013-0607
 32 36 0 0 0
SMALL
GASTEIGER
Energy = 0

@<TRIPOS>ATOM
      1 N           1.1750    2.6960    0.0000 N.ar    1  LIG1       -0.1862
      2 C          -0.2960    1.9250    0.0000 C.ar    1  LIG1        0.2151
      3 N          -0.7380    2.7830    0.0000 N.ar    1  LIG1       -0.1011
      4 N          -0.2210    3.5920    0.0000 N.ar    1  LIG1       -0.0218
      5 N           0.7290    3.5420    0.0000 N.ar    1  LIG1       -0.0382
      6 S          -1.0290    1.2630    0.0000 S.3     1  LIG1       -0.0641
      7 C          -0.8000    0.3040    0.0000 C.3     1  LIG1        0.1504
      8 C          -1.5380   -0.3750    0.0000 C.2     1  LIG1        0.2407
      9 N          -2.5210   -0.4790    0.0000 N.am    1  LIG1       -0.2591
     10 C          -3.1830    0.2420    0.0000 C.3     1  LIG1        0.0955
     11 C          -4.1000   -0.1710    0.0000 C.3     1  LIG1        0.0991
     12 C          -3.9830   -1.1580    0.0000 C.ar    1  LIG1       -0.0017
     13 C          -3.0040   -1.3500    0.0000 C.ar    1  LIG1        0.0500
     14 C          -2.6920   -2.2880    0.0000 C.ar    1  LIG1        0.0143
     15 C          -3.3380   -3.0380    0.0000 C.ar    1  LIG1       -0.0030
     16 C          -4.3170   -2.8460    0.0000 C.ar    1  LIG1       -0.0221
     17 C          -4.6290   -1.9000    0.0000 C.ar    1  LIG1       -0.0070
     18 C          -4.9670   -3.5880    0.0000 C.3     1  LIG1        0.0310
     19 C          -4.9040    0.4080    0.0000 C.3     1  LIG1        0.1448
     20 N          -4.8080    1.3830    0.0000 N.4     1  LIG1        0.3823
     21 C          -3.9080    1.8040    0.0000 C.3     1  LIG1        0.1406
     22 C          -3.0960    1.2290    0.0000 C.3     1  LIG1        0.0834
     23 C          -5.6040    1.9670    0.0000 C.3     1  LIG1        0.2022
     24 O          -1.3170   -1.3500    0.0000 O.2     1  LIG1       -0.2736
     25 C           2.0880    2.4080    0.0000 C.ar    1  LIG1        0.0868
     26 C           2.7920    3.0500    0.0000 C.ar    1  LIG1        0.0224
     27 C           3.7080    2.7670    0.0000 C.ar    1  LIG1        0.0384
     28 C           3.9130    1.8290    0.0000 C.ar    1  LIG1        0.1388
     29 C           3.2000    1.1920    0.0000 C.ar    1  LIG1        0.0384
     30 C           2.2960    1.4670    0.0000 C.ar    1  LIG1        0.0224
     31 O           4.8630    1.5290    0.0000 O.3     1  LIG1       -0.4714
     32 C           5.6000    2.2040    0.0000 C.3     1  LIG1        0.2525
@<TRIPOS>BOND
     1     1     2   ar
     2     1     5   ar
     3     1    25    1
     4     2     3   ar
     5     2     6    1
     6     3     4   ar
     7     4     5   ar
     8     6     7    1
     9     7     8    1
    10     8     9   am
    11     8    24    2
    12     9    10    1
    13     9    13    1
    14    10    11    1
    15    10    22    1
    16    11    12    1
    17    11    19    1
    18    12    13   ar
    19    12    17   ar
    20    13    14   ar
    21    14    15   ar
    22    15    16   ar
    23    16    17   ar
    24    16    18    1
    25    19    20    1
    26    20    21    1
    27    20    23    1
    28    21    22    1
    29    25    26   ar
    30    25    30   ar
    31    26    27   ar
    32    27    28   ar
    33    28    29   ar
    34    28    31    1
    35    29    30   ar
    36    31    32    1
