@<TRIPOS>MOLECULE
33967_ChemDiv_C301-5696
 26 30 0 0 0
SMALL
GASTEIGER
Energy = 0

@<TRIPOS>ATOM
      1 N           0.9540    2.8130    0.0000 N.ar    1  LIG1       -0.1075
      2 N           0.9630    1.8000    0.0000 N.ar    1  LIG1       -0.1301
      3 C           0.0830    1.3000    0.0000 C.ar    1  LIG1        0.1536
      4 C          -0.7830    1.8000    0.0000 C.ar    1  LIG1        0.0364
      5 C          -0.7750    2.8130    0.0000 C.ar    1  LIG1        0.0421
      6 C           0.0880    3.3170    0.0000 C.ar    1  LIG1        0.2079
      7 N           0.3080    4.2920    0.0000 N.ar    1  LIG1       -0.1060
      8 N           1.3040    4.3960    0.0000 N.ar    1  LIG1       -0.0210
      9 N           1.7080    3.4830    0.0000 N.ar    1  LIG1       -0.0210
     10 C          -1.6420    3.3130    0.0000 C.ar    1  LIG1        0.0033
     11 C          -2.5040    2.8000    0.0000 C.ar    1  LIG1        0.0001
     12 C          -2.5040    1.8040    0.0000 C.ar    1  LIG1        0.0001
     13 C          -1.6420    1.3040    0.0000 C.ar    1  LIG1        0.0029
     14 N           0.0830    0.3040    0.0000 N.pl3   1  LIG1       -0.2883
     15 C           0.9460   -0.1790    0.0000 C.3     1  LIG1        0.1137
     16 C           0.9420   -1.1920    0.0000 C.3     1  LIG1        0.1152
     17 N           0.0750   -1.6880    0.0000 N.am    1  LIG1       -0.2725
     18 C           0.0580   -2.6830    0.0000 C.2     1  LIG1        0.2523
     19 C           0.9250   -3.1880    0.0000 C.ar    1  LIG1        0.0942
     20 C           1.8330   -2.7920    0.0000 C.ar    1  LIG1        0.1842
     21 O           2.5000   -3.5290    0.0000 O.2     1  LIG1       -0.4472
     22 C           1.9920   -4.3960    0.0000 C.ar    1  LIG1        0.1799
     23 C           1.0170   -4.1790    0.0000 C.ar    1  LIG1        0.0484
     24 O          -0.8040   -3.1710    0.0000 O.2     1  LIG1       -0.2698
     25 C          -0.7830   -1.1750    0.0000 C.3     1  LIG1        0.1152
     26 C          -0.7830   -0.1790    0.0000 C.3     1  LIG1        0.1137
@<TRIPOS>BOND
     1     1     2   ar
     2     1     6   ar
     3     1     9   ar
     4     2     3   ar
     5     3     4   ar
     6     3    14    1
     7     4     5   ar
     8     4    13   ar
     9     5     6   ar
    10     5    10   ar
    11     6     7   ar
    12     7     8   ar
    13     8     9   ar
    14    10    11   ar
    15    11    12   ar
    16    12    13   ar
    17    14    15    1
    18    14    26    1
    19    15    16    1
    20    16    17    1
    21    17    18   am
    22    17    25    1
    23    18    19    1
    24    18    24    2
    25    19    20   ar
    26    19    23   ar
    27    20    21   ar
    28    21    22   ar
    29    22    23   ar
    30    25    26    1
