@<TRIPOS>MOLECULE
33964_ChemDiv_8012-5359
 27 31 0 0 0
SMALL
GASTEIGER
Energy = 0

@<TRIPOS>ATOM
      1 C           1.2540    0.8290    0.0000 C.ar    1  LIG1        0.0889
      2 C           2.1250    1.3130    0.0000 C.ar    1  LIG1        0.0076
      3 C           2.9960    0.7790    0.0000 C.ar    1  LIG1        0.0003
      4 C           2.9710   -0.2040    0.0000 C.ar    1  LIG1        0.0030
      5 C           2.1000   -0.6790    0.0000 C.ar    1  LIG1        0.0371
      6 C           1.2420   -0.1460    0.0000 C.ar    1  LIG1        0.1431
      7 O           0.3710   -0.6130    0.0000 O.3     1  LIG1       -0.4713
      8 C           0.3380   -1.5960    0.0000 C.3     1  LIG1        0.2525
      9 C           3.8420   -0.7420    0.0000 C.ar    1  LIG1        0.0001
     10 C           4.7250   -0.2580    0.0000 C.ar    1  LIG1        0.0000
     11 C           4.7380    0.7460    0.0000 C.ar    1  LIG1        0.0000
     12 C           3.8630    1.2790    0.0000 C.ar    1  LIG1        0.0000
     13 C           0.3830    1.3130    0.0000 C.2     1  LIG1        0.2677
     14 O           0.3960    2.3540    0.0000 O.2     1  LIG1       -0.2683
     15 N          -0.4630    0.7960    0.0000 N.am    1  LIG1       -0.2016
     16 C          -1.3380    1.2630    0.0000 C.3     1  LIG1        0.1155
     17 C          -2.1830    0.7460    0.0000 C.3     1  LIG1        0.0234
     18 C          -2.7000   -0.1000    0.0000 C.3     1  LIG1        0.0017
     19 C          -3.0500   -0.9710    0.0000 C.3     1  LIG1        0.0001
     20 C          -3.9710   -1.3710    0.0000 C.3     1  LIG1        0.0000
     21 C          -3.6210   -2.3500    0.0000 C.3     1  LIG1        0.0000
     22 C          -3.3420   -1.5040    0.0000 C.3     1  LIG1        0.0000
     23 C          -2.4460   -1.1540    0.0000 C.3     1  LIG1        0.0001
     24 C          -4.1000   -0.8040    0.0000 C.3     1  LIG1        0.0000
     25 C          -4.4290    0.1920    0.0000 C.3     1  LIG1        0.0000
     26 C          -3.3920    0.5380    0.0000 C.3     1  LIG1        0.0001
     27 C          -4.7420   -0.6790    0.0000 C.3     1  LIG1        0.0000
@<TRIPOS>BOND
     1     1     2   ar
     2     1     6   ar
     3     1    13    1
     4     2     3   ar
     5     3     4   ar
     6     3    12   ar
     7     4     5   ar
     8     4     9   ar
     9     5     6   ar
    10     6     7    1
    11     7     8    1
    12     9    10   ar
    13    10    11   ar
    14    11    12   ar
    15    13    14    2
    16    13    15   am
    17    15    16    1
    18    16    17    1
    19    17    18    1
    20    18    19    1
    21    18    23    1
    22    18    26    1
    23    19    20    1
    24    20    21    1
    25    20    27    1
    26    21    22    1
    27    22    23    1
    28    22    24    1
    29    24    25    1
    30    25    26    1
    31    25    27    1
