@<TRIPOS>MOLECULE
33963_ChemDiv_C301-5665
 26 29 0 0 0
SMALL
GASTEIGER
Energy = 0

@<TRIPOS>ATOM
      1 N           1.3130    3.4540    0.0000 N.ar    1  LIG1       -0.1075
      2 C           0.4380    3.9630    0.0000 C.ar    1  LIG1        0.2079
      3 N           0.6630    4.9420    0.0000 N.ar    1  LIG1       -0.1060
      4 N           1.6580    5.0380    0.0000 N.ar    1  LIG1       -0.0210
      5 N           2.0580    4.1250    0.0000 N.ar    1  LIG1       -0.0210
      6 C          -0.4250    3.4540    0.0000 C.ar    1  LIG1        0.0422
      7 C          -0.4290    2.4500    0.0000 C.ar    1  LIG1        0.0379
      8 C           0.4380    1.9500    0.0000 C.ar    1  LIG1        0.1696
      9 N           1.3170    2.4500    0.0000 N.ar    1  LIG1       -0.1286
     10 N           0.4380    0.9540    0.0000 N.pl3   1  LIG1       -0.2140
     11 C          -0.4290    0.4540    0.0000 C.3     1  LIG1        0.1403
     12 C          -0.4290   -0.5460    0.0000 C.ar    1  LIG1        0.0026
     13 C           0.4250   -1.0460    0.0000 C.ar    1  LIG1        0.0375
     14 C           0.4250   -2.0420    0.0000 C.ar    1  LIG1        0.1721
     15 C          -0.4380   -2.5420    0.0000 C.ar    1  LIG1        0.1722
     16 C          -1.3000   -2.0380    0.0000 C.ar    1  LIG1        0.0398
     17 C          -1.3000   -1.0460    0.0000 C.ar    1  LIG1        0.0008
     18 O          -0.4380   -3.5380    0.0000 O.3     1  LIG1       -0.4724
     19 C           0.4250   -4.0420    0.0000 C.3     1  LIG1        0.2057
     20 C           0.4250   -5.0380    0.0000 C.3     1  LIG1        0.0512
     21 O           1.2880   -2.5380    0.0000 O.3     1  LIG1       -0.4684
     22 C           2.1500   -2.0380    0.0000 C.3     1  LIG1        0.2526
     23 C          -1.2920    1.9500    0.0000 C.ar    1  LIG1        0.0030
     24 C          -2.1540    2.4500    0.0000 C.ar    1  LIG1        0.0001
     25 C          -2.1540    3.4540    0.0000 C.ar    1  LIG1        0.0001
     26 C          -1.2920    3.9540    0.0000 C.ar    1  LIG1        0.0033
@<TRIPOS>BOND
     1     1     2   ar
     2     1     5   ar
     3     1     9   ar
     4     2     3   ar
     5     2     6   ar
     6     3     4   ar
     7     4     5   ar
     8     6     7   ar
     9     6    26   ar
    10     7     8   ar
    11     7    23   ar
    12     8     9   ar
    13     8    10    1
    14    10    11    1
    15    11    12    1
    16    12    13   ar
    17    12    17   ar
    18    13    14   ar
    19    14    15   ar
    20    14    21    1
    21    15    16   ar
    22    15    18    1
    23    16    17   ar
    24    18    19    1
    25    19    20    1
    26    21    22    1
    27    23    24   ar
    28    24    25   ar
    29    25    26   ar
