@<TRIPOS>MOLECULE
33965_ChemDiv_C301-5668
 24 27 0 0 0
SMALL
GASTEIGER
Energy = 0

@<TRIPOS>ATOM
      1 N           1.3630    2.2000    0.0000 N.ar    1  LIG1       -0.1075
      2 N           1.3630    1.1960    0.0000 N.ar    1  LIG1       -0.1301
      3 C           0.4830    0.6960    0.0000 C.ar    1  LIG1        0.1536
      4 C          -0.3790    1.1960    0.0000 C.ar    1  LIG1        0.0364
      5 C          -0.3790    2.2000    0.0000 C.ar    1  LIG1        0.0421
      6 C           0.4960    2.7080    0.0000 C.ar    1  LIG1        0.2079
      7 N           0.7130    3.6880    0.0000 N.ar    1  LIG1       -0.1060
      8 N           1.7080    3.7960    0.0000 N.ar    1  LIG1       -0.0210
      9 N           2.1130    2.8750    0.0000 N.ar    1  LIG1       -0.0210
     10 C          -1.2380    2.6960    0.0000 C.ar    1  LIG1        0.0033
     11 C          -2.1000    2.2000    0.0000 C.ar    1  LIG1        0.0001
     12 C          -2.1000    1.1960    0.0000 C.ar    1  LIG1        0.0001
     13 C          -1.2380    0.6960    0.0000 C.ar    1  LIG1        0.0029
     14 N           0.4830   -0.3000    0.0000 N.pl3   1  LIG1       -0.2883
     15 C          -0.3790   -0.8000    0.0000 C.3     1  LIG1        0.1138
     16 C          -0.3920   -1.7920    0.0000 C.3     1  LIG1        0.1182
     17 N           0.4790   -2.2960    0.0000 N.am    1  LIG1       -0.2425
     18 C           0.4790   -3.2920    0.0000 C.2     1  LIG1        0.4050
     19 O           1.3420   -3.7920    0.0000 O.2     1  LIG1       -0.2262
     20 O          -0.3920   -3.7920    0.0000 O.3     1  LIG1       -0.4345
     21 C          -1.2540   -3.2880    0.0000 C.3     1  LIG1        0.2102
     22 C          -2.1170   -3.7750    0.0000 C.3     1  LIG1        0.0513
     23 C           1.3460   -1.7960    0.0000 C.3     1  LIG1        0.1182
     24 C           1.3460   -0.8000    0.0000 C.3     1  LIG1        0.1138
@<TRIPOS>BOND
     1     1     2   ar
     2     1     6   ar
     3     1     9   ar
     4     2     3   ar
     5     3     4   ar
     6     3    14    1
     7     4     5   ar
     8     4    13   ar
     9     5     6   ar
    10     5    10   ar
    11     6     7   ar
    12     7     8   ar
    13     8     9   ar
    14    10    11   ar
    15    11    12   ar
    16    12    13   ar
    17    14    15    1
    18    14    24    1
    19    15    16    1
    20    16    17    1
    21    17    18   am
    22    17    23    1
    23    18    19    2
    24    18    20    1
    25    20    21    1
    26    21    22    1
    27    23    24    1
