@<TRIPOS>MOLECULE
33961_ChemDiv_C301-5664
 22 25 0 0 0
SMALL
GASTEIGER
Energy = 0

@<TRIPOS>ATOM
      1 N           1.6830    1.6630    0.0000 N.ar    1  LIG1       -0.1075
      2 C           0.8210    2.1750    0.0000 C.ar    1  LIG1        0.2079
      3 N           1.0380    3.1540    0.0000 N.ar    1  LIG1       -0.1060
      4 N           2.0330    3.2500    0.0000 N.ar    1  LIG1       -0.0210
      5 N           2.4380    2.3380    0.0000 N.ar    1  LIG1       -0.0210
      6 C          -0.0540    1.6630    0.0000 C.ar    1  LIG1        0.0422
      7 C          -0.0540    0.6630    0.0000 C.ar    1  LIG1        0.0379
      8 C           0.8080    0.1630    0.0000 C.ar    1  LIG1        0.1693
      9 N           1.6830    0.6630    0.0000 N.ar    1  LIG1       -0.1286
     10 N           0.8080   -0.8330    0.0000 N.pl3   1  LIG1       -0.2206
     11 C          -0.0540   -1.3330    0.0000 C.3     1  LIG1        0.0941
     12 C           0.0790   -2.3250    0.0000 C.3     1  LIG1        0.0216
     13 C          -0.5380   -3.1170    0.0000 C.3     1  LIG1        0.0018
     14 C          -1.5250   -3.2460    0.0000 C.3     1  LIG1        0.0001
     15 C          -2.3080   -2.6330    0.0000 C.3     1  LIG1        0.0000
     16 C          -2.4420   -1.6460    0.0000 C.3     1  LIG1        0.0001
     17 C          -1.8380   -0.8500    0.0000 C.3     1  LIG1        0.0018
     18 C          -0.8380   -0.7290    0.0000 C.3     1  LIG1        0.0216
     19 C          -0.9130    0.1630    0.0000 C.ar    1  LIG1        0.0030
     20 C          -1.7750    0.6630    0.0000 C.ar    1  LIG1        0.0001
     21 C          -1.7750    1.6630    0.0000 C.ar    1  LIG1        0.0001
     22 C          -0.9130    2.1630    0.0000 C.ar    1  LIG1        0.0033
@<TRIPOS>BOND
     1     1     2   ar
     2     1     5   ar
     3     1     9   ar
     4     2     3   ar
     5     2     6   ar
     6     3     4   ar
     7     4     5   ar
     8     6     7   ar
     9     6    22   ar
    10     7     8   ar
    11     7    19   ar
    12     8     9   ar
    13     8    10    1
    14    10    11    1
    15    11    12    1
    16    11    18    1
    17    12    13    1
    18    13    14    1
    19    14    15    1
    20    15    16    1
    21    16    17    1
    22    17    18    1
    23    19    20   ar
    24    20    21   ar
    25    21    22   ar
