@<TRIPOS>MOLECULE
33960_ChemDiv_8013-1839
 30 34 0 0 0
SMALL
GASTEIGER
Energy = 0

@<TRIPOS>ATOM
      1 N           1.3630    0.8920    0.0000 N.am    1  LIG1       -0.2582
      2 C           0.7460    0.1420    0.0000 C.3     1  LIG1        0.0955
      3 C           1.2750   -0.6880    0.0000 C.3     1  LIG1        0.0991
      4 C           2.2130   -0.4420    0.0000 C.ar    1  LIG1       -0.0017
      5 C           2.2710    0.5330    0.0000 C.ar    1  LIG1        0.0500
      6 C           3.1380    0.9790    0.0000 C.ar    1  LIG1        0.0143
      7 C           3.9540    0.4460    0.0000 C.ar    1  LIG1       -0.0030
      8 C           3.9040   -0.5250    0.0000 C.ar    1  LIG1       -0.0221
      9 C           3.0250   -0.9710    0.0000 C.ar    1  LIG1       -0.0070
     10 C           4.7540   -1.0960    0.0000 C.3     1  LIG1        0.0310
     11 C           0.8290   -1.5630    0.0000 C.3     1  LIG1        0.1448
     12 N          -0.1580   -1.6000    0.0000 N.4     1  LIG1        0.3823
     13 C          -0.6830   -0.7750    0.0000 C.3     1  LIG1        0.1406
     14 C          -0.2290    0.0920    0.0000 C.3     1  LIG1        0.0834
     15 C          -0.6250   -2.5000    0.0000 C.3     1  LIG1        0.2022
     16 C           1.1130    1.8170    0.0000 C.2     1  LIG1        0.2561
     17 C           0.1630    2.0750    0.0000 C.3     1  LIG1        0.2361
     18 N          -0.5250    1.3830    0.0000 N.ar    1  LIG1       -0.1414
     19 N          -2.2170    1.3830    0.0000 N.ar    1  LIG1       -0.1292
     20 C          -2.2170    0.4080    0.0000 C.ar    1  LIG1        0.2066
     21 N          -1.3790   -0.0830    0.0000 N.ar    1  LIG1       -0.1077
     22 N          -0.5250    0.4080    0.0000 N.ar    1  LIG1       -0.0446
     23 C          -3.0790   -0.0830    0.0000 C.ar    1  LIG1        0.0499
     24 C          -3.9170    0.4080    0.0000 C.ar    1  LIG1        0.0607
     25 CL         -3.9170    1.3830    0.0000 Cl      1  LIG1       -0.0821
     26 C          -4.7580   -0.0830    0.0000 C.ar    1  LIG1        0.0115
     27 C          -4.7580   -1.0580    0.0000 C.ar    1  LIG1        0.0009
     28 C          -3.9170   -1.5500    0.0000 C.ar    1  LIG1        0.0002
     29 C          -3.0790   -1.0580    0.0000 C.ar    1  LIG1        0.0040
     30 O           1.8040    2.5040    0.0000 O.2     1  LIG1       -0.2723
@<TRIPOS>BOND
     1     1     2    1
     2     1     5    1
     3     1    16   am
     4     2     3    1
     5     2    14    1
     6     3     4    1
     7     3    11    1
     8     4     5   ar
     9     4     9   ar
    10     5     6   ar
    11     6     7   ar
    12     7     8   ar
    13     8     9   ar
    14     8    10    1
    15    11    12    1
    16    12    13    1
    17    12    15    1
    18    13    14    1
    19    16    17    1
    20    16    30    2
    21    17    18    1
    22    18    19   ar
    23    18    22   ar
    24    19    20   ar
    25    20    21   ar
    26    20    23    1
    27    21    22   ar
    28    23    24   ar
    29    23    29   ar
    30    24    25    1
    31    24    26   ar
    32    26    27   ar
    33    27    28   ar
    34    28    29   ar
