@<TRIPOS>MOLECULE
33966_ChemDiv_8012-5517
 21 22 0 0 0
SMALL
GASTEIGER
Energy = 0

@<TRIPOS>ATOM
      1 C           0.9170   -0.7210    0.0000 C.ar    1  LIG1        0.1705
      2 C           0.9170    0.2210    0.0000 C.ar    1  LIG1        0.1302
      3 C           2.5420    0.2210    0.0000 C.ar    1  LIG1        0.1632
      4 N           2.5420   -0.7210    0.0000 N.ar    1  LIG1       -0.1951
      5 S           1.7290   -1.1920    0.0000 S.2     1  LIG1        0.0340
      6 CL          3.3500    0.6880    0.0000 Cl      1  LIG1       -0.0592
      7 N           0.1130    0.6880    0.0000 N.am    1  LIG1       -0.1381
      8 C           0.1080    1.6170    0.0000 C.2     1  LIG1        0.4257
      9 O          -0.7670    2.0960    0.0000 O.2     1  LIG1       -0.2242
     10 O           0.9710    2.0670    0.0000 O.3     1  LIG1       -0.4292
     11 C           1.8000    1.5460    0.0000 C.3     1  LIG1        0.2574
     12 S           0.0540   -1.2210    0.0000 S.O2    1  LIG1        0.0211
     13 C          -0.8080   -1.7210    0.0000 C.3     1  LIG1        0.1829
     14 C          -1.6580   -1.2290    0.0000 C.ar    1  LIG1        0.0017
     15 C          -2.5460   -1.7000    0.0000 C.ar    1  LIG1       -0.0026
     16 C          -3.3540   -1.2130    0.0000 C.ar    1  LIG1       -0.0003
     17 C          -3.3540   -0.2170    0.0000 C.ar    1  LIG1       -0.0000
     18 C          -2.5040    0.2500    0.0000 C.ar    1  LIG1       -0.0003
     19 C          -1.6580   -0.2420    0.0000 C.ar    1  LIG1       -0.0026
     20 O           0.5630   -2.0920    0.0000 O.2     1  LIG1       -0.1677
     21 O          -0.4580   -0.3500    0.0000 O.2     1  LIG1       -0.1677
@<TRIPOS>BOND
     1     1     2   ar
     2     1     5   ar
     3     1    12    1
     4     2     3   ar
     5     2     7    1
     6     3     4   ar
     7     3     6    1
     8     4     5   ar
     9     7     8   am
    10     8     9    2
    11     8    10    1
    12    10    11    1
    13    12    13    1
    14    12    20    2
    15    12    21    2
    16    13    14    1
    17    14    15   ar
    18    14    19   ar
    19    15    16   ar
    20    16    17   ar
    21    17    18   ar
    22    18    19   ar
