@<TRIPOS>MOLECULE
33973_ChemDiv_8011-6078
 21 23 0 0 0
SMALL
GASTEIGER
Energy = 0

@<TRIPOS>ATOM
      1 N          -2.2500   -1.4710    0.0000 N.am    1  LIG1       -0.1758
      2 C          -2.2500   -2.4790    0.0000 C.2     1  LIG1        0.3841
      3 N          -1.3750   -2.9830    0.0000 N.2     1  LIG1        0.1024
      4 C          -0.5040   -2.4790    0.0000 C.3     1  LIG1        0.5006
      5 N          -0.5040   -1.4710    0.0000 N.pl3   1  LIG1       -0.2191
      6 C          -1.3750   -0.9670    0.0000 C.3     1  LIG1        0.2055
      7 C           0.3580   -0.9830    0.0000 C.ar    1  LIG1        0.0549
      8 C           0.3580    0.0250    0.0000 C.ar    1  LIG1        0.0150
      9 C           1.2250    0.5210    0.0000 C.ar    1  LIG1        0.0077
     10 C           2.0580    0.0000    0.0000 C.ar    1  LIG1        0.0757
     11 C           2.9250    0.5040    0.0000 C.2     1  LIG1        0.3412
     12 O           3.7920    0.0000    0.0000 O.2     1  LIG1       -0.2449
     13 O           2.9250    1.5040    0.0000 O.3     1  LIG1       -0.4454
     14 C           3.7920    2.0000    0.0000 C.3     1  LIG1        0.2089
     15 C           3.7920    2.9880    0.0000 C.3     1  LIG1        0.0513
     16 C           2.0830   -0.9830    0.0000 C.ar    1  LIG1        0.0077
     17 C           1.2250   -1.4710    0.0000 C.ar    1  LIG1        0.0150
     18 S          -3.2080   -2.7830    0.0000 S.3     1  LIG1       -0.0132
     19 C          -3.7960   -1.9750    0.0000 C.3     1  LIG1        0.1550
     20 C          -3.1920   -1.1630    0.0000 C.2     1  LIG1        0.2469
     21 O          -3.5080   -0.2040    0.0000 O.2     1  LIG1       -0.2734
@<TRIPOS>BOND
     1     1     2    1
     2     1     6    1
     3     1    20   am
     4     2     3    2
     5     2    18    1
     6     3     4    1
     7     4     5    1
     8     5     6    1
     9     5     7    1
    10     7     8   ar
    11     7    17   ar
    12     8     9   ar
    13     9    10   ar
    14    10    11    1
    15    10    16   ar
    16    11    12    2
    17    11    13    1
    18    13    14    1
    19    14    15    1
    20    16    17   ar
    21    18    19    1
    22    19    20    1
    23    20    21    2
