@<TRIPOS>MOLECULE
33975_ChemDiv_8011-6088
 16 18 0 0 0
SMALL
GASTEIGER
Energy = 0

@<TRIPOS>ATOM
      1 C           0.8790   -0.5080    0.0000 C.ar    1  LIG1        0.0771
      2 C           0.8790    0.4920    0.0000 C.ar    1  LIG1        0.0879
      3 C           0.0000    0.9880    0.0000 C.ar    1  LIG1        0.0256
      4 C          -0.8750    0.4920    0.0000 C.ar    1  LIG1        0.0771
      5 C          -0.8750   -0.5080    0.0000 C.ar    1  LIG1        0.0879
      6 C           0.0000   -0.9960    0.0000 C.ar    1  LIG1        0.0256
      7 N          -1.7540   -0.9960    0.0000 N.ar    1  LIG1       -0.2238
      8 C          -2.6210   -0.5080    0.0000 C.ar    1  LIG1        0.2016
      9 N          -2.6210    0.4920    0.0000 N.ar    1  LIG1       -0.1855
     10 C          -1.7540    0.9880    0.0000 C.ar    1  LIG1        0.2821
     11 O          -1.7540    1.9790    0.0000 O.2     1  LIG1       -0.2651
     12 N           1.7500    0.9880    0.0000 N.ar    1  LIG1       -0.2238
     13 C           2.6170    0.4920    0.0000 C.ar    1  LIG1        0.2016
     14 N           2.6170   -0.5080    0.0000 N.ar    1  LIG1       -0.1855
     15 C           1.7500   -0.9960    0.0000 C.ar    1  LIG1        0.2821
     16 O           1.7500   -1.9750    0.0000 O.2     1  LIG1       -0.2651
@<TRIPOS>BOND
     1     1     2   ar
     2     1     6   ar
     3     1    15   ar
     4     2     3   ar
     5     2    12   ar
     6     3     4   ar
     7     4     5   ar
     8     4    10   ar
     9     5     6   ar
    10     5     7   ar
    11     7     8   ar
    12     8     9   ar
    13     9    10   ar
    14    10    11    2
    15    12    13   ar
    16    13    14   ar
    17    14    15   ar
    18    15    16    2
