@<TRIPOS>MOLECULE
33971_ChemDiv_8011-5969
 32 36 0 0 0
SMALL
GASTEIGER
Energy = 0

@<TRIPOS>ATOM
      1 N           1.2250    0.4880    0.0000 N.ar    1  LIG1       -0.2611
      2 C           2.0880    0.9880    0.0000 C.ar    1  LIG1        0.2670
      3 C           2.9420    0.4880    0.0000 C.ar    1  LIG1        0.0742
      4 C           2.9420   -0.4830    0.0000 C.ar    1  LIG1        0.0872
      5 N           2.0880   -0.9830    0.0000 N.ar    1  LIG1       -0.2309
      6 C           1.2250   -0.4830    0.0000 C.ar    1  LIG1        0.1378
      7 C           0.3710   -0.9670    0.0000 C.3     1  LIG1        0.1291
      8 S          -0.4670   -0.4790    0.0000 S.3     1  LIG1       -0.0692
      9 C          -1.3130   -0.9830    0.0000 C.ar    1  LIG1        0.1720
     10 N          -3.0130   -0.9830    0.0000 N.ar    1  LIG1       -0.3011
     11 C          -3.0130   -1.9750    0.0000 C.ar    1  LIG1        0.0986
     12 C          -2.1790   -2.4710    0.0000 C.ar    1  LIG1        0.1197
     13 N          -1.3130   -1.9750    0.0000 N.ar    1  LIG1       -0.2195
     14 C          -3.8420   -0.4790    0.0000 C.3     1  LIG1        0.1347
     15 C          -3.8420    0.3710    0.0000 C.ar    1  LIG1        0.0004
     16 C          -2.9750    0.8580    0.0000 C.ar    1  LIG1       -0.0024
     17 C          -2.9750    1.8290    0.0000 C.ar    1  LIG1       -0.0003
     18 C          -3.8420    2.3500    0.0000 C.ar    1  LIG1       -0.0000
     19 C          -4.6790    1.8290    0.0000 C.ar    1  LIG1       -0.0003
     20 C          -4.6790    0.8580    0.0000 C.ar    1  LIG1       -0.0024
     21 C           3.8130   -0.9830    0.0000 C.ar    1  LIG1        0.0193
     22 C           4.6750   -0.4830    0.0000 C.ar    1  LIG1        0.0015
     23 C           4.6750    0.4880    0.0000 C.ar    1  LIG1        0.0003
     24 C           3.8130    0.9880    0.0000 C.ar    1  LIG1        0.0063
     25 O           2.0880    1.9710    0.0000 O.2     1  LIG1       -0.2665
     26 C           0.3830    1.0130    0.0000 C.ar    1  LIG1        0.0784
     27 C           0.3830    1.9750    0.0000 C.ar    1  LIG1        0.0738
     28 CL          1.2250    2.4580    0.0000 Cl      1  LIG1       -0.0807
     29 C          -0.4460    2.4750    0.0000 C.ar    1  LIG1        0.0129
     30 C          -1.3130    1.9750    0.0000 C.ar    1  LIG1        0.0010
     31 C          -1.3130    1.0130    0.0000 C.ar    1  LIG1        0.0015
     32 C          -0.4460    0.5210    0.0000 C.ar    1  LIG1        0.0185
@<TRIPOS>BOND
     1     1     2   ar
     2     1     6   ar
     3     1    26    1
     4     2     3   ar
     5     2    25    2
     6     3     4   ar
     7     3    24   ar
     8     4     5   ar
     9     4    21   ar
    10     5     6   ar
    11     6     7    1
    12     7     8    1
    13     8     9    1
    14     9    10   ar
    15     9    13   ar
    16    10    11   ar
    17    10    14    1
    18    11    12   ar
    19    12    13   ar
    20    14    15    1
    21    15    16   ar
    22    15    20   ar
    23    16    17   ar
    24    17    18   ar
    25    18    19   ar
    26    19    20   ar
    27    21    22   ar
    28    22    23   ar
    29    23    24   ar
    30    26    27   ar
    31    26    32   ar
    32    27    28    1
    33    27    29   ar
    34    29    30   ar
    35    30    31   ar
    36    31    32   ar
