@<TRIPOS>MOLECULE
33988_ChemDiv_8015-3921
 19 22 0 0 0
SMALL
GASTEIGER
Energy = 0

@<TRIPOS>ATOM
      1 C          -0.6420   -0.0670    0.0000 C.3     1  LIG1        0.0201
      2 C          -1.5580   -0.2380    0.0000 C.3     1  LIG1        0.0017
      3 C          -2.3960    0.3040    0.0000 C.3     1  LIG1        0.0001
      4 C          -3.0290   -0.5170    0.0000 C.3     1  LIG1        0.0000
      5 C          -2.1790   -0.2880    0.0000 C.3     1  LIG1        0.0001
      6 C          -1.3580   -0.8540    0.0000 C.3     1  LIG1        0.0017
      7 C          -2.0040    0.7290    0.0000 C.3     1  LIG1        0.0000
      8 C          -1.3460    1.5460    0.0000 C.3     1  LIG1        0.0001
      9 C          -0.4960    0.8790    0.0000 C.3     1  LIG1        0.0017
     10 C          -2.2460    1.3290    0.0000 C.3     1  LIG1        0.0000
     11 C           0.3500   -0.0540    0.0000 C.3     1  LIG1        0.1154
     12 N           0.8170   -0.8290    0.0000 N.am    1  LIG1       -0.2012
     13 C           1.7290   -0.8290    0.0000 C.2     1  LIG1        0.2708
     14 C           2.1630   -0.0540    0.0000 C.ar    1  LIG1        0.0845
     15 S           1.6420    0.7670    0.0000 S.2     1  LIG1       -0.0819
     16 C           2.1130    1.6210    0.0000 C.ar    1  LIG1        0.0356
     17 C           3.0250    1.6210    0.0000 C.ar    1  LIG1        0.0076
     18 C           3.0250   -0.0670    0.0000 C.ar    1  LIG1        0.0116
     19 O           2.1630   -1.6170    0.0000 O.2     1  LIG1       -0.2678
@<TRIPOS>BOND
     1     1     2    1
     2     1     6    1
     3     1     9    1
     4     1    11    1
     5     2     3    1
     6     3     4    1
     7     3    10    1
     8     4     5    1
     9     5     6    1
    10     5     7    1
    11     7     8    1
    12     8     9    1
    13     8    10    1
    14    11    12    1
    15    12    13   am
    16    13    14    1
    17    13    19    2
    18    14    15   ar
    19    14    18   ar
    20    15    16   ar
    21    16    17   ar
    22    17    18   ar
