@<TRIPOS>MOLECULE
33983_ChemDiv_K906-0959
 14 15 0 0 0
SMALL
GASTEIGER
Energy = 0

@<TRIPOS>ATOM
      1 N           1.2920    0.5000    0.0000 N.ar    1  LIG1       -0.2743
      2 C           1.2920   -0.5000    0.0000 C.ar    1  LIG1        0.1651
      3 N           0.4250   -1.0000    0.0000 N.ar    1  LIG1       -0.3063
      4 C          -0.4380   -0.5000    0.0000 C.ar    1  LIG1        0.0660
      5 C          -0.4380    0.5000    0.0000 C.ar    1  LIG1        0.0720
      6 C           0.4250    1.0000    0.0000 C.ar    1  LIG1        0.2637
      7 O           0.4250    1.9960    0.0000 O.2     1  LIG1       -0.2669
      8 C          -1.3000    1.0000    0.0000 C.ar    1  LIG1        0.0062
      9 C          -2.1710    0.4960    0.0000 C.ar    1  LIG1        0.0003
     10 C          -2.1710   -0.5000    0.0000 C.ar    1  LIG1        0.0015
     11 C          -1.3000   -1.0000    0.0000 C.ar    1  LIG1        0.0174
     12 C           0.4250   -1.9920    0.0000 C.3     1  LIG1        0.1324
     13 S           2.1670   -1.0080    0.0000 S.2     1  LIG1       -0.0126
     14 C           2.1670    1.0040    0.0000 C.3     1  LIG1        0.1355
@<TRIPOS>BOND
     1     1     2   ar
     2     1     6   ar
     3     1    14    1
     4     2     3   ar
     5     2    13    2
     6     3     4   ar
     7     3    12    1
     8     4     5   ar
     9     4    11   ar
    10     5     6   ar
    11     5     8   ar
    12     6     7    2
    13     8     9   ar
    14     9    10   ar
    15    10    11   ar
