@<TRIPOS>MOLECULE
33986_ChemDiv_8012-5628
 23 27 0 0 0
SMALL
GASTEIGER
Energy = 0

@<TRIPOS>ATOM
      1 C          -1.6540   -0.8250    0.0000 C.3     1  LIG1        0.0457
      2 N          -0.6630   -0.8000    0.0000 N.4     1  LIG1        0.3718
      3 C          -0.1830    0.0790    0.0000 C.3     1  LIG1        0.1600
      4 C           0.8210    0.0790    0.0000 C.3     1  LIG1        0.1567
      5 N           1.3250   -0.7880    0.0000 N.am    1  LIG1       -0.2641
      6 C           2.3170   -0.7880    0.0000 C.2     1  LIG1        0.2554
      7 C           2.8000    0.0790    0.0000 C.ar    1  LIG1        0.0830
      8 S           2.3710    1.0000    0.0000 S.2     1  LIG1       -0.0819
      9 C           3.1210    1.6630    0.0000 C.ar    1  LIG1        0.0356
     10 C           4.0210    1.1790    0.0000 C.ar    1  LIG1        0.0076
     11 C           3.8080    0.1880    0.0000 C.ar    1  LIG1        0.0116
     12 O           2.8330   -1.6500    0.0000 O.2     1  LIG1       -0.2694
     13 C           0.8210   -1.6580    0.0000 C.3     1  LIG1        0.1567
     14 C          -0.1750   -1.6580    0.0000 C.3     1  LIG1        0.1600
     15 C          -2.3880   -1.6210    0.0000 C.3     1  LIG1        0.0512
     16 C          -3.1750   -1.0630    0.0000 C.3     1  LIG1        0.0055
     17 C          -4.0250   -1.3000    0.0000 C.3     1  LIG1        0.0004
     18 C          -3.4040   -0.4790    0.0000 C.3     1  LIG1        0.0055
     19 C          -2.5790   -1.0000    0.0000 C.3     1  LIG1        0.0512
     20 C          -3.2500    0.5500    0.0000 C.3     1  LIG1        0.0004
     21 C          -2.3670    0.7830    0.0000 C.3     1  LIG1        0.0055
     22 C          -1.5080    0.1130    0.0000 C.3     1  LIG1        0.0512
     23 C          -3.0130   -0.0380    0.0000 C.3     1  LIG1        0.0004
@<TRIPOS>BOND
     1     1     2    1
     2     1    15    1
     3     1    19    1
     4     1    22    1
     5     2     3    1
     6     2    14    1
     7     3     4    1
     8     4     5    1
     9     5     6   am
    10     5    13    1
    11     6     7    1
    12     6    12    2
    13     7     8   ar
    14     7    11   ar
    15     8     9   ar
    16     9    10   ar
    17    10    11   ar
    18    13    14    1
    19    15    16    1
    20    16    17    1
    21    16    23    1
    22    17    18    1
    23    18    19    1
    24    18    20    1
    25    20    21    1
    26    21    22    1
    27    21    23    1
