@<TRIPOS>MOLECULE
33989_ChemDiv_G006-0004
 25 29 0 0 0
SMALL
GASTEIGER
Energy = 0

@<TRIPOS>ATOM
      1 N           1.3500    2.9580    0.0000 N.ar    1  LIG1       -0.1075
      2 N           1.3290    1.9580    0.0000 N.ar    1  LIG1       -0.1301
      3 C           0.4500    1.4790    0.0000 C.ar    1  LIG1        0.1538
      4 C          -0.4000    2.0000    0.0000 C.ar    1  LIG1        0.0364
      5 C          -0.3750    3.0000    0.0000 C.ar    1  LIG1        0.0421
      6 C           0.5000    3.4880    0.0000 C.ar    1  LIG1        0.2079
      7 N           0.7380    4.4420    0.0000 N.ar    1  LIG1       -0.1060
      8 N           1.7380    4.5170    0.0000 N.ar    1  LIG1       -0.0210
      9 N           2.1170    3.6000    0.0000 N.ar    1  LIG1       -0.0210
     10 C          -1.2330    3.5210    0.0000 C.ar    1  LIG1        0.0033
     11 C          -2.1080    3.0380    0.0000 C.ar    1  LIG1        0.0001
     12 C          -2.1210    2.0380    0.0000 C.ar    1  LIG1        0.0001
     13 C          -1.2710    1.5170    0.0000 C.ar    1  LIG1        0.0029
     14 N           0.4250    0.4790    0.0000 N.pl3   1  LIG1       -0.2874
     15 C           1.2750   -0.0540    0.0000 C.3     1  LIG1        0.1184
     16 C           1.2420   -1.0540    0.0000 C.2     1  LIG1       -0.0089
     17 C           0.3540   -1.5250    0.0000 C.2     1  LIG1       -0.0231
     18 C          -0.4960   -1.0040    0.0000 C.3     1  LIG1        0.0475
     19 C          -0.4630    0.0000    0.0000 C.3     1  LIG1        0.0972
     20 C           0.3290   -2.5250    0.0000 C.ar    1  LIG1       -0.0042
     21 C           1.1790   -3.0500    0.0000 C.ar    1  LIG1       -0.0003
     22 C           1.1540   -4.0420    0.0000 C.ar    1  LIG1       -0.0000
     23 C           0.2750   -4.5170    0.0000 C.ar    1  LIG1       -0.0000
     24 C          -0.5750   -4.0000    0.0000 C.ar    1  LIG1       -0.0000
     25 C          -0.5460   -3.0000    0.0000 C.ar    1  LIG1       -0.0003
@<TRIPOS>BOND
     1     1     2   ar
     2     1     6   ar
     3     1     9   ar
     4     2     3   ar
     5     3     4   ar
     6     3    14    1
     7     4     5   ar
     8     4    13   ar
     9     5     6   ar
    10     5    10   ar
    11     6     7   ar
    12     7     8   ar
    13     8     9   ar
    14    10    11   ar
    15    11    12   ar
    16    12    13   ar
    17    14    15    1
    18    14    19    1
    19    15    16    1
    20    16    17    2
    21    17    18    1
    22    17    20    1
    23    18    19    1
    24    20    21   ar
    25    20    25   ar
    26    21    22   ar
    27    22    23   ar
    28    23    24   ar
    29    24    25   ar
