@<TRIPOS>MOLECULE
33981_ChemDiv_8016-9791
 15 16 0 0 0
SMALL
GASTEIGER
Energy = 0

@<TRIPOS>ATOM
      1 N           1.7250    0.5040    0.0000 N.ar    1  LIG1       -0.2467
      2 C           1.7290   -0.5040    0.0000 C.ar    1  LIG1        0.3339
      3 N           0.8630   -1.0040    0.0000 N.ar    1  LIG1       -0.2791
      4 C          -0.0040   -0.5080    0.0000 C.ar    1  LIG1        0.0685
      5 C          -0.0130    0.4960    0.0000 C.ar    1  LIG1        0.0727
      6 C           0.8540    1.0040    0.0000 C.ar    1  LIG1        0.2656
      7 O           0.8420    2.0040    0.0000 O.2     1  LIG1       -0.2668
      8 C          -0.8710    0.9920    0.0000 C.ar    1  LIG1        0.0129
      9 C          -1.7380    0.4920    0.0000 C.ar    1  LIG1        0.0348
     10 C          -1.7380   -0.5080    0.0000 C.ar    1  LIG1        0.0082
     11 C          -0.8710   -1.0040    0.0000 C.ar    1  LIG1        0.0180
     12 BR         -2.5960    0.9920    0.0000 Br      1  LIG1       -0.0490
     13 C           0.8630   -2.0000    0.0000 C.3     1  LIG1        0.1351
     14 O           2.5920   -0.9960    0.0000 O.2     1  LIG1       -0.2462
     15 C           2.5880    1.0040    0.0000 C.3     1  LIG1        0.1382
@<TRIPOS>BOND
     1     1     2   ar
     2     1     6   ar
     3     1    15    1
     4     2     3   ar
     5     2    14    2
     6     3     4   ar
     7     3    13    1
     8     4     5   ar
     9     4    11   ar
    10     5     6   ar
    11     5     8   ar
    12     6     7    2
    13     8     9   ar
    14     9    10   ar
    15     9    12    1
    16    10    11   ar
