@<TRIPOS>MOLECULE
33993_ChemDiv_G006-0013
 24 28 0 0 0
SMALL
GASTEIGER
Energy = 0

@<TRIPOS>ATOM
      1 N           1.3500    2.9630    0.0000 N.ar    1  LIG1       -0.1075
      2 C           0.5000    3.4880    0.0000 C.ar    1  LIG1        0.2079
      3 N           0.7380    4.4500    0.0000 N.ar    1  LIG1       -0.1060
      4 N           1.7380    4.5290    0.0000 N.ar    1  LIG1       -0.0210
      5 N           2.1170    3.6130    0.0000 N.ar    1  LIG1       -0.0210
      6 C          -0.3750    3.0040    0.0000 C.ar    1  LIG1        0.0422
      7 C          -0.4000    2.0000    0.0000 C.ar    1  LIG1        0.0379
      8 C           0.4500    1.4880    0.0000 C.ar    1  LIG1        0.1696
      9 N           1.3290    1.9630    0.0000 N.ar    1  LIG1       -0.1286
     10 N           0.4250    0.4880    0.0000 N.pl3   1  LIG1       -0.2140
     11 C          -0.1000   -0.3750    0.0000 C.3     1  LIG1        0.1403
     12 C           0.3880   -1.2540    0.0000 C.ar    1  LIG1        0.0026
     13 C          -0.1250   -2.1040    0.0000 C.ar    1  LIG1        0.0376
     14 C           0.3540   -2.9790    0.0000 C.ar    1  LIG1        0.1762
     15 C           1.3500   -3.0040    0.0000 C.ar    1  LIG1        0.1764
     16 O           1.6380   -3.9630    0.0000 O.3     1  LIG1       -0.4346
     17 C           0.8170   -4.5290    0.0000 C.3     1  LIG1        0.4294
     18 O           0.0250   -3.9250    0.0000 O.3     1  LIG1       -0.4346
     19 C           1.8750   -2.1540    0.0000 C.ar    1  LIG1        0.0399
     20 C           1.3880   -1.2750    0.0000 C.ar    1  LIG1        0.0008
     21 C          -1.2710    1.5250    0.0000 C.ar    1  LIG1        0.0030
     22 C          -2.1210    2.0380    0.0000 C.ar    1  LIG1        0.0001
     23 C          -2.1080    3.0460    0.0000 C.ar    1  LIG1        0.0001
     24 C          -1.2330    3.5250    0.0000 C.ar    1  LIG1        0.0033
@<TRIPOS>BOND
     1     1     2   ar
     2     1     5   ar
     3     1     9   ar
     4     2     3   ar
     5     2     6   ar
     6     3     4   ar
     7     4     5   ar
     8     6     7   ar
     9     6    24   ar
    10     7     8   ar
    11     7    21   ar
    12     8     9   ar
    13     8    10    1
    14    10    11    1
    15    11    12    1
    16    12    13   ar
    17    12    20   ar
    18    13    14   ar
    19    14    15   ar
    20    14    18    1
    21    15    16    1
    22    15    19   ar
    23    16    17    1
    24    17    18    1
    25    19    20   ar
    26    21    22   ar
    27    22    23   ar
    28    23    24   ar
