@<TRIPOS>MOLECULE
33995_ChemDiv_G006-0025
 32 36 0 0 0
SMALL
GASTEIGER
Energy = 0

@<TRIPOS>ATOM
      1 N           1.9210    3.6920    0.0000 N.ar    1  LIG1       -0.1075
      2 N           1.9040    2.6880    0.0000 N.ar    1  LIG1       -0.1301
      3 C           1.0210    2.2130    0.0000 C.ar    1  LIG1        0.1538
      4 C           0.1710    2.7290    0.0000 C.ar    1  LIG1        0.0364
      5 C           0.1960    3.7380    0.0000 C.ar    1  LIG1        0.0421
      6 C           1.0710    4.2040    0.0000 C.ar    1  LIG1        0.2079
      7 N           1.3080    5.1790    0.0000 N.ar    1  LIG1       -0.1060
      8 N           2.3080    5.2540    0.0000 N.ar    1  LIG1       -0.0210
      9 N           2.6920    4.3290    0.0000 N.ar    1  LIG1       -0.0210
     10 C          -0.6710    4.2420    0.0000 C.ar    1  LIG1        0.0033
     11 C          -1.5460    3.7710    0.0000 C.ar    1  LIG1        0.0001
     12 C          -1.5580    2.7710    0.0000 C.ar    1  LIG1        0.0001
     13 C          -0.7080    2.2500    0.0000 C.ar    1  LIG1        0.0029
     14 N           0.9960    1.2130    0.0000 N.pl3   1  LIG1       -0.2809
     15 C           0.1080    0.7420    0.0000 C.3     1  LIG1        0.1555
     16 C           0.0670   -0.2670    0.0000 C.3     1  LIG1        0.1610
     17 N           0.9080   -0.7920    0.0000 N.4     1  LIG1        0.3835
     18 C           0.8710   -1.7920    0.0000 C.3     1  LIG1        0.1695
     19 C          -0.0210   -2.2670    0.0000 C.ar    1  LIG1        0.0715
     20 C          -0.0580   -3.2630    0.0000 C.ar    1  LIG1        0.1769
     21 C          -0.9330   -3.7290    0.0000 C.ar    1  LIG1        0.2059
     22 C          -1.7710   -3.1920    0.0000 C.ar    1  LIG1        0.1754
     23 C          -1.7380   -2.2040    0.0000 C.ar    1  LIG1        0.0401
     24 C          -0.8630   -1.7420    0.0000 C.ar    1  LIG1        0.0078
     25 O          -2.6580   -3.6670    0.0000 O.3     1  LIG1       -0.4683
     26 C          -2.6960   -4.6670    0.0000 C.3     1  LIG1        0.2526
     27 O          -0.9750   -4.7250    0.0000 O.3     1  LIG1       -0.4654
     28 C          -0.1210   -5.2540    0.0000 C.3     1  LIG1        0.2528
     29 O           0.7960   -3.7920    0.0000 O.3     1  LIG1       -0.4684
     30 C           1.6830   -3.3250    0.0000 C.3     1  LIG1        0.2526
     31 C           1.8040   -0.3250    0.0000 C.3     1  LIG1        0.1610
     32 C           1.8420    0.6750    0.0000 C.3     1  LIG1        0.1555
@<TRIPOS>BOND
     1     1     2   ar
     2     1     6   ar
     3     1     9   ar
     4     2     3   ar
     5     3     4   ar
     6     3    14    1
     7     4     5   ar
     8     4    13   ar
     9     5     6   ar
    10     5    10   ar
    11     6     7   ar
    12     7     8   ar
    13     8     9   ar
    14    10    11   ar
    15    11    12   ar
    16    12    13   ar
    17    14    15    1
    18    14    32    1
    19    15    16    1
    20    16    17    1
    21    17    18    1
    22    17    31    1
    23    18    19    1
    24    19    20   ar
    25    19    24   ar
    26    20    21   ar
    27    20    29    1
    28    21    22   ar
    29    21    27    1
    30    22    23   ar
    31    22    25    1
    32    23    24   ar
    33    25    26    1
    34    27    28    1
    35    29    30    1
    36    31    32    1
