@<TRIPOS>MOLECULE
33997_ChemDiv_G006-0026
 26 31 0 0 0
SMALL
GASTEIGER
Energy = 0

@<TRIPOS>ATOM
      1 N           1.3290    2.4880    0.0000 N.ar    1  LIG1       -0.1075
      2 C           0.4790    3.0170    0.0000 C.ar    1  LIG1        0.2079
      3 N           0.7170    3.9830    0.0000 N.ar    1  LIG1       -0.1060
      4 N           1.7080    4.0500    0.0000 N.ar    1  LIG1       -0.0210
      5 N           2.0960    3.1330    0.0000 N.ar    1  LIG1       -0.0210
      6 C          -0.3920    2.5330    0.0000 C.ar    1  LIG1        0.0422
      7 C          -0.4210    1.5330    0.0000 C.ar    1  LIG1        0.0379
      8 C           0.4290    1.0130    0.0000 C.ar    1  LIG1        0.1693
      9 N           1.3080    1.4880    0.0000 N.ar    1  LIG1       -0.1286
     10 N           0.4040    0.0210    0.0000 N.pl3   1  LIG1       -0.2206
     11 C           1.2710   -0.4710    0.0000 C.3     1  LIG1        0.0940
     12 C           1.2830   -1.4750    0.0000 C.3     1  LIG1        0.0184
     13 C           0.2830   -1.4380    0.0000 C.3     1  LIG1        0.0017
     14 C          -0.1170   -2.3380    0.0000 C.3     1  LIG1        0.0001
     15 C           0.6670   -3.0460    0.0000 C.3     1  LIG1        0.0000
     16 C           1.7040   -3.0630    0.0000 C.3     1  LIG1        0.0001
     17 C           2.0960   -2.1630    0.0000 C.3     1  LIG1        0.0017
     18 C           1.9460   -4.0500    0.0000 C.3     1  LIG1        0.0000
     19 C           1.1420   -3.2500    0.0000 C.3     1  LIG1        0.0001
     20 C           1.4790   -2.3960    0.0000 C.3     1  LIG1        0.0017
     21 C           0.1710   -3.2250    0.0000 C.3     1  LIG1        0.0000
     22 C           2.1380    0.0330    0.0000 C.3     1  LIG1        0.0234
     23 C          -1.2920    1.0500    0.0000 C.ar    1  LIG1        0.0030
     24 C          -2.1420    1.5710    0.0000 C.ar    1  LIG1        0.0001
     25 C          -2.1210    2.5710    0.0000 C.ar    1  LIG1        0.0001
     26 C          -1.2460    3.0500    0.0000 C.ar    1  LIG1        0.0033
@<TRIPOS>BOND
     1     1     2   ar
     2     1     5   ar
     3     1     9   ar
     4     2     3   ar
     5     2     6   ar
     6     3     4   ar
     7     4     5   ar
     8     6     7   ar
     9     6    26   ar
    10     7     8   ar
    11     7    23   ar
    12     8     9   ar
    13     8    10    1
    14    10    11    1
    15    11    12    1
    16    11    22    1
    17    12    13    1
    18    12    17    1
    19    12    20    1
    20    13    14    1
    21    14    15    1
    22    14    21    1
    23    15    16    1
    24    16    17    1
    25    16    18    1
    26    18    19    1
    27    19    20    1
    28    19    21    1
    29    23    24   ar
    30    24    25   ar
    31    25    26   ar
