@<TRIPOS>MOLECULE
33992_ChemDiv_8012-5630
 18 20 0 0 0
SMALL
GASTEIGER
Energy = 0

@<TRIPOS>ATOM
      1 C          -0.5250   -0.6210    0.0000 C.3     1  LIG1        0.0977
      2 N          -0.2960    0.3580    0.0000 N.am    1  LIG1       -0.2009
      3 C           0.6330    0.6250    0.0000 C.2     1  LIG1        0.2650
      4 O           0.8330    1.6250    0.0000 O.2     1  LIG1       -0.2684
      5 C           1.3710   -0.0290    0.0000 C.ar    1  LIG1        0.0550
      6 C           1.1790   -1.0130    0.0000 C.ar    1  LIG1        0.0046
      7 C           1.9460   -1.6210    0.0000 C.ar    1  LIG1        0.0001
      8 C           2.8880   -1.3500    0.0000 C.ar    1  LIG1        0.0000
      9 C           3.1000   -0.3790    0.0000 C.ar    1  LIG1        0.0001
     10 C           2.3330    0.2920    0.0000 C.ar    1  LIG1        0.0046
     11 C          -0.0170   -1.5080    0.0000 C.3     1  LIG1        0.0263
     12 C           0.4960   -0.6210    0.0000 C.3     1  LIG1        0.0263
     13 C          -1.3830   -0.1420    0.0000 C.ar    1  LIG1       -0.0044
     14 C          -2.2420   -0.6210    0.0000 C.ar    1  LIG1       -0.0027
     15 C          -3.1040   -0.1420    0.0000 C.ar    1  LIG1       -0.0003
     16 C          -3.1040    0.8830    0.0000 C.ar    1  LIG1       -0.0000
     17 C          -2.2420    1.3670    0.0000 C.ar    1  LIG1       -0.0003
     18 C          -1.3830    0.8830    0.0000 C.ar    1  LIG1       -0.0027
@<TRIPOS>BOND
     1     1     2    1
     2     1    11    1
     3     1    12    1
     4     1    13    1
     5     2     3   am
     6     3     4    2
     7     3     5    1
     8     5     6   ar
     9     5    10   ar
    10     6     7   ar
    11     7     8   ar
    12     8     9   ar
    13     9    10   ar
    14    11    12    1
    15    13    14   ar
    16    13    18   ar
    17    14    15   ar
    18    15    16   ar
    19    16    17   ar
    20    17    18   ar
