@<TRIPOS>MOLECULE
33990_ChemDiv_E536-0194
 18 19 0 0 0
SMALL
GASTEIGER
Energy = 0

@<TRIPOS>ATOM
      1 C          -2.1170    0.7250    0.0000 C.ar    1  LIG1        0.0430
      2 S          -1.3210    0.1250    0.0000 S.2     1  LIG1       -0.0845
      3 C          -0.5080    0.7080    0.0000 C.ar    1  LIG1        0.0658
      4 C          -0.8170    1.6580    0.0000 C.ar    1  LIG1       -0.0136
      5 C          -1.8000    1.6750    0.0000 C.ar    1  LIG1        0.0037
      6 C          -0.2170    2.4750    0.0000 C.3     1  LIG1        0.0314
      7 C           0.4460    0.3920    0.0000 C.3     1  LIG1        0.2342
      8 N           0.6630   -0.5880    0.0000 N.4     1  LIG1        0.4475
      9 C           1.6130   -0.8920    0.0000 C.3     1  LIG1        0.1440
     10 C           1.6630   -1.8880    0.0000 C.3     1  LIG1        0.0625
     11 C           2.4790   -2.4710    0.0000 C.3     1  LIG1        0.0061
     12 C           3.4420   -2.2040    0.0000 C.3     1  LIG1        0.0002
     13 C           3.8130   -1.2580    0.0000 C.3     1  LIG1        0.0002
     14 C           3.3290   -0.3920    0.0000 C.3     1  LIG1        0.0061
     15 C           2.3580   -0.2250    0.0000 C.3     1  LIG1        0.0625
     16 C          -3.0830    0.4250    0.0000 C.2     1  LIG1        0.0788
     17 O          -3.8170    1.0960    0.0000 O.co2   1  LIG1       -0.5441
     18 O          -3.3000   -0.5540    0.0000 O.co2   1  LIG1       -0.5441
@<TRIPOS>BOND
     1     1     2   ar
     2     1     5   ar
     3     1    16    1
     4     2     3   ar
     5     3     4   ar
     6     3     7    1
     7     4     5   ar
     8     4     6    1
     9     7     8    1
    10     8     9    1
    11     9    10    1
    12     9    15    1
    13    10    11    1
    14    11    12    1
    15    12    13    1
    16    13    14    1
    17    14    15    1
    18    16    17   ar
    19    16    18   ar
