@<TRIPOS>MOLECULE
33991_ChemDiv_G006-0006
 25 28 0 0 0
SMALL
GASTEIGER
Energy = 0

@<TRIPOS>ATOM
      1 N          -0.4080    1.9960    0.0000 N.ar    1  LIG1       -0.1075
      2 C          -1.2580    2.5250    0.0000 C.ar    1  LIG1        0.2079
      3 N          -1.0210    3.4960    0.0000 N.ar    1  LIG1       -0.1060
      4 N          -0.0210    3.5710    0.0000 N.ar    1  LIG1       -0.0210
      5 N           0.3580    2.6460    0.0000 N.ar    1  LIG1       -0.0210
      6 C          -2.1330    2.0380    0.0000 C.ar    1  LIG1        0.0422
      7 C          -2.1580    1.0460    0.0000 C.ar    1  LIG1        0.0379
      8 C          -1.3080    0.5250    0.0000 C.ar    1  LIG1        0.1693
      9 N          -0.4330    1.0000    0.0000 N.ar    1  LIG1       -0.1286
     10 N          -1.3330   -0.4750    0.0000 N.pl3   1  LIG1       -0.2205
     11 C          -0.4830   -1.0000    0.0000 C.3     1  LIG1        0.0975
     12 C           0.3960   -0.5170    0.0000 C.3     1  LIG1        0.0433
     13 C           1.2540   -1.0420    0.0000 C.3     1  LIG1        0.0985
     14 N           1.2420   -2.0420    0.0000 N.am    1  LIG1       -0.2459
     15 C           2.0920   -2.5670    0.0000 C.2     1  LIG1        0.4049
     16 O           2.0710   -3.5670    0.0000 O.2     1  LIG1       -0.2262
     17 O           2.9710   -2.0790    0.0000 O.3     1  LIG1       -0.4345
     18 C           2.9960   -1.0790    0.0000 C.3     1  LIG1        0.2102
     19 C           3.8710   -0.6000    0.0000 C.3     1  LIG1        0.0513
     20 C           0.3460   -2.5250    0.0000 C.3     1  LIG1        0.0985
     21 C          -0.5130   -2.0000    0.0000 C.3     1  LIG1        0.0433
     22 C          -3.0250    0.5630    0.0000 C.ar    1  LIG1        0.0030
     23 C          -3.8750    1.0750    0.0000 C.ar    1  LIG1        0.0001
     24 C          -3.8580    2.0790    0.0000 C.ar    1  LIG1        0.0001
     25 C          -2.9830    2.5580    0.0000 C.ar    1  LIG1        0.0033
@<TRIPOS>BOND
     1     1     2   ar
     2     1     5   ar
     3     1     9   ar
     4     2     3   ar
     5     2     6   ar
     6     3     4   ar
     7     4     5   ar
     8     6     7   ar
     9     6    25   ar
    10     7     8   ar
    11     7    22   ar
    12     8     9   ar
    13     8    10    1
    14    10    11    1
    15    11    12    1
    16    11    21    1
    17    12    13    1
    18    13    14    1
    19    14    15   am
    20    14    20    1
    21    15    16    2
    22    15    17    1
    23    17    18    1
    24    18    19    1
    25    20    21    1
    26    22    23   ar
    27    23    24   ar
    28    24    25   ar
