@<TRIPOS>MOLECULE
33999_ChemDiv_G006-0032
 22 25 0 0 0
SMALL
GASTEIGER
Energy = 0

@<TRIPOS>ATOM
      1 N           0.5000    2.2290    0.0000 N.ar    1  LIG1       -0.1075
      2 C          -0.3460    2.7630    0.0000 C.ar    1  LIG1        0.2079
      3 N          -0.1080    3.7290    0.0000 N.ar    1  LIG1       -0.1060
      4 N           0.8880    3.8080    0.0000 N.ar    1  LIG1       -0.0210
      5 N           1.2670    2.8790    0.0000 N.ar    1  LIG1       -0.0210
      6 C          -1.2290    2.2710    0.0000 C.ar    1  LIG1        0.0422
      7 C          -1.2540    1.2670    0.0000 C.ar    1  LIG1        0.0379
      8 C          -0.3960    0.7540    0.0000 C.ar    1  LIG1        0.1693
      9 N           0.4790    1.2290    0.0000 N.ar    1  LIG1       -0.1286
     10 N          -0.4290   -0.2500    0.0000 N.pl3   1  LIG1       -0.2185
     11 C           0.4250   -0.7670    0.0000 C.3     1  LIG1        0.1186
     12 C           0.3920   -1.7670    0.0000 C.3     1  LIG1        0.0497
     13 C           1.2420   -2.2920    0.0000 C.ar    1  LIG1       -0.0204
     14 C           1.2130   -3.2790    0.0000 C.ar    1  LIG1       -0.0042
     15 C           2.0630   -3.8040    0.0000 C.ar    1  LIG1       -0.0003
     16 C           2.9420   -3.3380    0.0000 C.ar    1  LIG1       -0.0000
     17 C           2.9750   -2.3420    0.0000 C.ar    1  LIG1       -0.0003
     18 C           2.1170   -1.8170    0.0000 C.ar    1  LIG1       -0.0042
     19 C          -2.1210    0.7920    0.0000 C.ar    1  LIG1        0.0030
     20 C          -2.9790    1.3040    0.0000 C.ar    1  LIG1        0.0001
     21 C          -2.9580    2.3080    0.0000 C.ar    1  LIG1        0.0001
     22 C          -2.0790    2.7920    0.0000 C.ar    1  LIG1        0.0033
@<TRIPOS>BOND
     1     1     2   ar
     2     1     5   ar
     3     1     9   ar
     4     2     3   ar
     5     2     6   ar
     6     3     4   ar
     7     4     5   ar
     8     6     7   ar
     9     6    22   ar
    10     7     8   ar
    11     7    19   ar
    12     8     9   ar
    13     8    10    1
    14    10    11    1
    15    11    12    1
    16    12    13    1
    17    13    14   ar
    18    13    18   ar
    19    14    15   ar
    20    15    16   ar
    21    16    17   ar
    22    17    18   ar
    23    19    20   ar
    24    20    21   ar
    25    21    22   ar
