@<TRIPOS>MOLECULE
34003_ChemDiv_8012-1031
 17 19 0 0 0
SMALL
GASTEIGER
Energy = 0

@<TRIPOS>ATOM
      1 C           0.0000    0.0420    0.0000 C.3     1  LIG1        0.1155
      2 N           0.8380    0.5040    0.0000 N.am    1  LIG1       -0.2421
      3 C           1.6670    0.0080    0.0000 C.2     1  LIG1        0.4049
      4 O           1.6670   -0.9330    0.0000 O.3     1  LIG1       -0.4399
      5 C           0.0130   -0.9330    0.0000 C.3     1  LIG1        0.1562
      6 C          -1.0210   -0.9330    0.0000 C.3     1  LIG1        0.0458
      7 C           0.0130   -1.9250    0.0000 C.3     1  LIG1        0.0458
      8 O           2.5000    0.4830    0.0000 O.2     1  LIG1       -0.2262
      9 C           0.8380    1.4580    0.0000 C.3     1  LIG1        0.1017
     10 C           0.0000    1.9290    0.0000 C.3     1  LIG1        0.0477
     11 C          -0.8380    1.4580    0.0000 C.ar    1  LIG1       -0.0228
     12 C          -0.8380    0.5040    0.0000 C.ar    1  LIG1       -0.0066
     13 C          -1.6710    0.0420    0.0000 C.ar    1  LIG1       -0.0029
     14 C          -2.5040    0.5040    0.0000 C.ar    1  LIG1       -0.0003
     15 C          -2.5040    1.4580    0.0000 C.ar    1  LIG1       -0.0003
     16 C          -1.6710    1.9290    0.0000 C.ar    1  LIG1       -0.0045
     17 C           0.0130    1.0080    0.0000 C.3     1  LIG1        0.0281
@<TRIPOS>BOND
     1     1     2    1
     2     1     5    1
     3     1    12    1
     4     1    17    1
     5     2     3   am
     6     2     9    1
     7     3     4    1
     8     3     8    2
     9     4     5    1
    10     5     6    1
    11     5     7    1
    12     9    10    1
    13    10    11    1
    14    11    12   ar
    15    11    16   ar
    16    12    13   ar
    17    13    14   ar
    18    14    15   ar
    19    15    16   ar
