@<TRIPOS>MOLECULE
34017_ChemDiv_G006-0035
 28 31 0 0 0
SMALL
GASTEIGER
Energy = 0

@<TRIPOS>ATOM
      1 N          -1.3080    2.2790    0.0000 N.ar    1  LIG1       -0.1075
      2 C          -2.1580    2.8040    0.0000 C.ar    1  LIG1        0.2079
      3 N          -1.9250    3.7710    0.0000 N.ar    1  LIG1       -0.1060
      4 N          -0.9250    3.8500    0.0000 N.ar    1  LIG1       -0.0210
      5 N          -0.5460    2.9210    0.0000 N.ar    1  LIG1       -0.0210
      6 C          -3.0330    2.3170    0.0000 C.ar    1  LIG1        0.0422
      7 C          -3.0580    1.3170    0.0000 C.ar    1  LIG1        0.0379
      8 C          -2.2080    0.8040    0.0000 C.ar    1  LIG1        0.1693
      9 N          -1.3330    1.2790    0.0000 N.ar    1  LIG1       -0.1286
     10 N          -2.2380   -0.1960    0.0000 N.pl3   1  LIG1       -0.2185
     11 C          -1.2380   -0.2330    0.0000 C.3     1  LIG1        0.1186
     12 C          -0.7580   -1.1080    0.0000 C.3     1  LIG1        0.0498
     13 C           0.2540   -1.1460    0.0000 C.ar    1  LIG1       -0.0172
     14 C           0.7210   -2.0210    0.0000 C.ar    1  LIG1        0.0358
     15 C           1.7210   -2.0580    0.0000 C.ar    1  LIG1        0.1719
     16 C           2.2580   -1.2040    0.0000 C.ar    1  LIG1        0.1722
     17 C           1.7830   -0.3210    0.0000 C.ar    1  LIG1        0.0397
     18 C           0.7790   -0.2920    0.0000 C.ar    1  LIG1       -0.0009
     19 O           3.2460   -1.2330    0.0000 O.3     1  LIG1       -0.4724
     20 C           3.7790   -0.3830    0.0000 C.3     1  LIG1        0.2057
     21 C           4.7790   -0.4170    0.0000 C.3     1  LIG1        0.0512
     22 O           2.1960   -2.9420    0.0000 O.3     1  LIG1       -0.4724
     23 C           3.1960   -2.9710    0.0000 C.3     1  LIG1        0.2057
     24 C           3.6710   -3.8460    0.0000 C.3     1  LIG1        0.0512
     25 C          -3.9330    0.8420    0.0000 C.ar    1  LIG1        0.0030
     26 C          -4.7830    1.3540    0.0000 C.ar    1  LIG1        0.0001
     27 C          -4.7670    2.3540    0.0000 C.ar    1  LIG1        0.0001
     28 C          -3.8920    2.8420    0.0000 C.ar    1  LIG1        0.0033
@<TRIPOS>BOND
     1     1     2   ar
     2     1     5   ar
     3     1     9   ar
     4     2     3   ar
     5     2     6   ar
     6     3     4   ar
     7     4     5   ar
     8     6     7   ar
     9     6    28   ar
    10     7     8   ar
    11     7    25   ar
    12     8     9   ar
    13     8    10    1
    14    10    11    1
    15    11    12    1
    16    12    13    1
    17    13    14   ar
    18    13    18   ar
    19    14    15   ar
    20    15    16   ar
    21    15    22    1
    22    16    17   ar
    23    16    19    1
    24    17    18   ar
    25    19    20    1
    26    20    21    1
    27    22    23    1
    28    23    24    1
    29    25    26   ar
    30    26    27   ar
    31    27    28   ar
