@<TRIPOS>MOLECULE
34019_ChemDiv_G006-0047
 26 30 0 0 0
SMALL
GASTEIGER
Energy = 0

@<TRIPOS>ATOM
      1 N           0.9580    2.9830    0.0000 N.ar    1  LIG1       -0.1075
      2 N           0.9330    1.9790    0.0000 N.ar    1  LIG1       -0.1301
      3 C           0.0580    1.5040    0.0000 C.ar    1  LIG1        0.1535
      4 C          -0.7920    2.0250    0.0000 C.ar    1  LIG1        0.0364
      5 C          -0.7670    3.0250    0.0000 C.ar    1  LIG1        0.0421
      6 C           0.1080    3.5040    0.0000 C.ar    1  LIG1        0.2079
      7 N           0.3460    4.4670    0.0000 N.ar    1  LIG1       -0.1060
      8 N           1.3460    4.5420    0.0000 N.ar    1  LIG1       -0.0210
      9 N           1.7210    3.6250    0.0000 N.ar    1  LIG1       -0.0210
     10 C          -1.6210    3.5460    0.0000 C.ar    1  LIG1        0.0033
     11 C          -2.5040    3.0630    0.0000 C.ar    1  LIG1        0.0001
     12 C          -2.5170    2.0540    0.0000 C.ar    1  LIG1        0.0001
     13 C          -1.6670    1.5420    0.0000 C.ar    1  LIG1        0.0029
     14 N           0.0290    0.5000    0.0000 N.pl3   1  LIG1       -0.2919
     15 C           0.8710   -0.0420    0.0000 C.3     1  LIG1        0.0922
     16 C           0.8460   -1.0290    0.0000 C.3     1  LIG1        0.0219
     17 C          -0.0420   -1.5000    0.0000 C.3     1  LIG1        0.0078
     18 C          -0.0670   -2.4920    0.0000 C.3     1  LIG1        0.0265
     19 C           0.7830   -3.0250    0.0000 C.ar    1  LIG1       -0.0222
     20 C           0.7540   -4.0170    0.0000 C.ar    1  LIG1       -0.0043
     21 C           1.6080   -4.5420    0.0000 C.ar    1  LIG1       -0.0003
     22 C           2.4920   -4.0670    0.0000 C.ar    1  LIG1       -0.0000
     23 C           2.5130   -3.0670    0.0000 C.ar    1  LIG1       -0.0003
     24 C           1.6670   -2.5420    0.0000 C.ar    1  LIG1       -0.0043
     25 C          -0.8920   -0.9790    0.0000 C.3     1  LIG1        0.0219
     26 C          -0.8540    0.0250    0.0000 C.3     1  LIG1        0.0922
@<TRIPOS>BOND
     1     1     2   ar
     2     1     6   ar
     3     1     9   ar
     4     2     3   ar
     5     3     4   ar
     6     3    14    1
     7     4     5   ar
     8     4    13   ar
     9     5     6   ar
    10     5    10   ar
    11     6     7   ar
    12     7     8   ar
    13     8     9   ar
    14    10    11   ar
    15    11    12   ar
    16    12    13   ar
    17    14    15    1
    18    14    26    1
    19    15    16    1
    20    16    17    1
    21    17    18    1
    22    17    25    1
    23    18    19    1
    24    19    20   ar
    25    19    24   ar
    26    20    21   ar
    27    21    22   ar
    28    22    23   ar
    29    23    24   ar
    30    25    26    1
