@<TRIPOS>MOLECULE
34018_ChemDiv_8012-5689
 15 15 0 0 0
SMALL
GASTEIGER
Energy = 0

@<TRIPOS>ATOM
      1 C          -0.5250    0.8790    0.0000 C.ar    1  LIG1        0.3338
      2 N          -1.5130    0.8790    0.0000 N.ar    1  LIG1       -0.2467
      3 C          -2.0080   -0.0040    0.0000 C.ar    1  LIG1        0.2655
      4 C          -1.4920   -0.8580    0.0000 C.ar    1  LIG1        0.0737
      5 C          -0.4960   -0.8580    0.0000 C.ar    1  LIG1        0.0466
      6 N           0.0210   -0.0040    0.0000 N.ar    1  LIG1       -0.2787
      7 C           1.0040   -0.0040    0.0000 C.3     1  LIG1        0.1726
      8 C           1.5170   -0.8580    0.0000 C.3     1  LIG1        0.1642
      9 N           2.5170   -0.8580    0.0000 N.4     1  LIG1        0.3882
     10 C           3.0130   -0.0040    0.0000 C.3     1  LIG1        0.2026
     11 C           3.0130   -1.7080    0.0000 C.3     1  LIG1        0.2026
     12 C           0.0210   -1.7420    0.0000 C.3     1  LIG1        0.0503
     13 O          -3.0170   -0.0040    0.0000 O.2     1  LIG1       -0.2668
     14 C          -2.0080    1.7460    0.0000 C.3     1  LIG1        0.1382
     15 O          -0.0250    1.7460    0.0000 O.2     1  LIG1       -0.2462
@<TRIPOS>BOND
     1     1     2   ar
     2     1     6   ar
     3     1    15    2
     4     2     3   ar
     5     2    14    1
     6     3     4   ar
     7     3    13    2
     8     4     5   ar
     9     5     6   ar
    10     5    12    1
    11     6     7    1
    12     7     8    1
    13     8     9    1
    14     9    10    1
    15     9    11    1
