@<TRIPOS>MOLECULE
34026_ChemDiv_8012-5752
 31 33 0 0 0
SMALL
GASTEIGER
Energy = 0

@<TRIPOS>ATOM
      1 N           1.3540    0.3330    0.0000 N.am    1  LIG1       -0.2229
      2 C           1.9080   -0.4540    0.0000 C.2     1  LIG1        0.2551
      3 C           2.8670   -0.1500    0.0000 C.ar    1  LIG1        0.0584
      4 C           2.8670    0.8500    0.0000 C.ar    1  LIG1        0.0584
      5 C           1.9080    1.1460    0.0000 C.2     1  LIG1        0.2551
      6 O           1.5960    2.0880    0.0000 O.2     1  LIG1       -0.2695
      7 C           3.7210    1.3580    0.0000 C.ar    1  LIG1        0.0047
      8 C           4.5790    0.8500    0.0000 C.ar    1  LIG1        0.0001
      9 C           4.5790   -0.1500    0.0000 C.ar    1  LIG1        0.0001
     10 C           3.7210   -0.6460    0.0000 C.ar    1  LIG1        0.0047
     11 O           1.5750   -1.4130    0.0000 O.2     1  LIG1       -0.2695
     12 C           0.3580    0.2750    0.0000 C.3     1  LIG1        0.1015
     13 C          -0.1630    1.1460    0.0000 C.3     1  LIG1        0.0220
     14 C          -1.1630    1.1130    0.0000 C.3     1  LIG1        0.0023
     15 C          -1.6880    1.9580    0.0000 C.3     1  LIG1        0.0097
     16 C          -2.6250    2.3170    0.0000 C.3     1  LIG1        0.0868
     17 C          -3.3960    1.7170    0.0000 C.2     1  LIG1        0.2414
     18 N          -3.2540    0.6960    0.0000 N.am    1  LIG1       -0.2051
     19 C          -2.2830    0.3420    0.0000 C.3     1  LIG1        0.1198
     20 C          -2.0960   -0.6460    0.0000 C.3     1  LIG1        0.0495
     21 C          -2.8960   -1.3000    0.0000 C.3     1  LIG1        0.0478
     22 C          -3.8630   -0.9540    0.0000 C.2     1  LIG1        0.0507
     23 O          -3.9920    0.0420    0.0000 O.co2   1  LIG1       -0.5492
     24 O          -4.5830   -1.5790    0.0000 O.co2   1  LIG1       -0.5492
     25 C          -1.1630   -0.9880    0.0000 C.ar    1  LIG1       -0.0204
     26 C          -0.9960   -1.9750    0.0000 C.ar    1  LIG1       -0.0042
     27 C          -0.0500   -2.3130    0.0000 C.ar    1  LIG1       -0.0003
     28 C           0.7040   -1.6580    0.0000 C.ar    1  LIG1       -0.0000
     29 C           0.5460   -0.6880    0.0000 C.ar    1  LIG1       -0.0003
     30 C          -0.4000   -0.3420    0.0000 C.ar    1  LIG1       -0.0042
     31 O          -4.3380    2.0710    0.0000 O.2     1  LIG1       -0.2733
@<TRIPOS>BOND
     1     1     2   am
     2     1     5   am
     3     1    12    1
     4     2     3    1
     5     2    11    2
     6     3     4   ar
     7     3    10   ar
     8     4     5    1
     9     4     7   ar
    10     5     6    2
    11     7     8   ar
    12     8     9   ar
    13     9    10   ar
    14    12    13    1
    15    13    14    1
    16    14    15    1
    17    15    16    1
    18    16    17    1
    19    17    18   am
    20    17    31    2
    21    18    19    1
    22    19    20    1
    23    20    21    1
    24    20    25    1
    25    21    22    1
    26    22    23   ar
    27    22    24   ar
    28    25    26   ar
    29    25    30   ar
    30    26    27   ar
    31    27    28   ar
    32    28    29   ar
    33    29    30   ar
