@<TRIPOS>MOLECULE
34027_ChemDiv_8010-6147
 23 28 0 0 0
SMALL
GASTEIGER
Energy = 0

@<TRIPOS>ATOM
      1 C          -0.9130   -0.6920    0.0000 C.ar    1  LIG1        0.4432
      2 N          -1.2080    0.2500    0.0000 N.ar    1  LIG1       -0.2253
      3 C          -0.3920    0.8170    0.0000 C.ar    1  LIG1        0.1584
      4 C           0.4170    0.2330    0.0000 C.ar    1  LIG1        0.2944
      5 N           0.0920   -0.6750    0.0000 N.ar    1  LIG1        0.1126
      6 C           1.3710    0.5170    0.0000 C.3     1  LIG1        0.0862
      7 C           2.1750    0.0380    0.0000 C.3     1  LIG1        0.0103
      8 C           3.0710    0.6380    0.0000 C.3     1  LIG1        0.0005
      9 C           2.9330    1.4500    0.0000 C.3     1  LIG1        0.0000
     10 C           2.1630    2.0330    0.0000 C.3     1  LIG1        0.0005
     11 C           1.2290    1.4000    0.0000 C.3     1  LIG1        0.0103
     12 C           2.9130    2.2750    0.0000 C.3     1  LIG1        0.0000
     13 C           3.2750    1.2880    0.0000 C.3     1  LIG1        0.0005
     14 C           2.1330    0.5210    0.0000 C.3     1  LIG1        0.0103
     15 C           4.1630    0.5170    0.0000 C.3     1  LIG1        0.0000
     16 C          -2.2000    0.2330    0.0000 C.ar    1  LIG1        0.0871
     17 C          -2.4960   -0.7130    0.0000 C.ar    1  LIG1        0.0829
     18 N          -1.7040   -1.2830    0.0000 N.ar    1  LIG1       -0.2514
     19 C          -1.7040   -2.2710    0.0000 C.3     1  LIG1        0.1381
     20 C          -3.4830   -0.9130    0.0000 C.ar    1  LIG1        0.0189
     21 C          -4.1670   -0.1880    0.0000 C.ar    1  LIG1        0.0016
     22 C          -3.8540    0.7920    0.0000 C.ar    1  LIG1        0.0016
     23 C          -2.8710    0.9880    0.0000 C.ar    1  LIG1        0.0192
@<TRIPOS>BOND
     1     1     2   ar
     2     1     5   ar
     3     1    18   ar
     4     2     3   ar
     5     2    16   ar
     6     3     4   ar
     7     4     5   ar
     8     4     6    1
     9     6     7    1
    10     6    11    1
    11     6    14    1
    12     7     8    1
    13     8     9    1
    14     8    15    1
    15     9    10    1
    16    10    11    1
    17    10    12    1
    18    12    13    1
    19    13    14    1
    20    13    15    1
    21    16    17   ar
    22    16    23   ar
    23    17    18   ar
    24    17    20   ar
    25    18    19    1
    26    20    21   ar
    27    21    22   ar
    28    22    23   ar
