@<TRIPOS>MOLECULE
34020_ChemDiv_8017-0573
 12 12 0 0 0
SMALL
GASTEIGER
Energy = 0

@<TRIPOS>ATOM
      1 C          -0.8580   -0.4920    0.0000 C.ar    1  LIG1        0.3498
      2 N           0.0170    0.0080    0.0000 N.ar    1  LIG1       -0.2768
      3 C           0.0080    1.0080    0.0000 C.ar    1  LIG1        0.0431
      4 C          -0.8460    1.5080    0.0000 C.ar    1  LIG1        0.0277
      5 C          -1.7210    1.0080    0.0000 C.ar    1  LIG1        0.0652
      6 N          -1.7210    0.0210    0.0000 N.ar    1  LIG1       -0.1966
      7 C          -2.6000    1.4960    0.0000 C.3     1  LIG1        0.0523
      8 C           0.8710    1.5080    0.0000 C.3     1  LIG1        0.0502
      9 C           0.8790   -0.5040    0.0000 C.3     1  LIG1        0.1905
     10 C           1.7540   -0.0170    0.0000 C.3     1  LIG1        0.3399
     11 N           2.5960   -0.5380    0.0000 N.4     1  LIG1        0.5992
     12 O          -0.8580   -1.5040    0.0000 O.2     1  LIG1       -0.2445
@<TRIPOS>BOND
     1     1     2   ar
     2     1     6   ar
     3     1    12    2
     4     2     3   ar
     5     2     9    1
     6     3     4   ar
     7     3     8    1
     8     4     5   ar
     9     5     6   ar
    10     5     7    1
    11     9    10    1
    12    10    11    1
