@<TRIPOS>MOLECULE
34022_ChemDiv_8012-5743
 25 29 0 0 0
SMALL
GASTEIGER
Energy = 0

@<TRIPOS>ATOM
      1 C          -2.2290    0.7790    0.0000 C.3     1  LIG1        0.0989
      2 N          -1.3420    0.2830    0.0000 N.am    1  LIG1       -0.1865
      3 C          -0.5040    0.8460    0.0000 C.2     1  LIG1        0.3394
      4 N           0.3750    0.3250    0.0000 N.am    1  LIG1       -0.1890
      5 C           1.2250    0.8210    0.0000 C.3     1  LIG1        0.0969
      6 C           2.0830    0.3330    0.0000 C.3     1  LIG1        0.0185
      7 C           3.1130    0.6380    0.0000 C.3     1  LIG1        0.0017
      8 C           3.5040   -0.2330    0.0000 C.3     1  LIG1        0.0001
      9 C           4.3630   -0.4830    0.0000 C.3     1  LIG1        0.0000
     10 C           3.4130   -0.8630    0.0000 C.3     1  LIG1        0.0001
     11 C           2.9750    0.0040    0.0000 C.3     1  LIG1        0.0017
     12 C           2.7500   -1.6630    0.0000 C.3     1  LIG1        0.0000
     13 C           1.8670   -1.4170    0.0000 C.3     1  LIG1        0.0001
     14 C           1.4630   -0.3920    0.0000 C.3     1  LIG1        0.0017
     15 C           2.8420   -1.0420    0.0000 C.3     1  LIG1        0.0000
     16 C           1.2460    1.8130    0.0000 C.3     1  LIG1        0.0235
     17 O          -0.5040    1.8040    0.0000 O.2     1  LIG1       -0.2492
     18 C          -2.9750    1.4500    0.0000 C.3     1  LIG1        0.0263
     19 C          -2.0130    1.7380    0.0000 C.3     1  LIG1        0.0263
     20 C          -2.7920   -0.0460    0.0000 C.ar    1  LIG1       -0.0044
     21 C          -2.3460   -0.9580    0.0000 C.ar    1  LIG1       -0.0027
     22 C          -2.9080   -1.8080    0.0000 C.ar    1  LIG1       -0.0003
     23 C          -3.9000   -1.7330    0.0000 C.ar    1  LIG1       -0.0000
     24 C          -4.3670   -0.8330    0.0000 C.ar    1  LIG1       -0.0003
     25 C          -3.8170   -0.0040    0.0000 C.ar    1  LIG1       -0.0027
@<TRIPOS>BOND
     1     1     2    1
     2     1    18    1
     3     1    19    1
     4     1    20    1
     5     2     3   am
     6     3     4   am
     7     3    17    2
     8     4     5    1
     9     5     6    1
    10     5    16    1
    11     6     7    1
    12     6    11    1
    13     6    14    1
    14     7     8    1
    15     8     9    1
    16     8    15    1
    17     9    10    1
    18    10    11    1
    19    10    12    1
    20    12    13    1
    21    13    14    1
    22    13    15    1
    23    18    19    1
    24    20    21   ar
    25    20    25   ar
    26    21    22   ar
    27    22    23   ar
    28    23    24   ar
    29    24    25   ar
