@<TRIPOS>MOLECULE
34024_ChemDiv_8012-5746
 26 29 0 0 0
SMALL
GASTEIGER
Energy = 0

@<TRIPOS>ATOM
      1 C          -2.4540    1.2750    0.0000 C.3     1  LIG1        0.0989
      2 N          -1.5830    0.7630    0.0000 N.am    1  LIG1       -0.1877
      3 C          -0.7130    1.2540    0.0000 C.2     1  LIG1        0.3235
      4 N           0.1330    0.7460    0.0000 N.am    1  LIG1       -0.2594
      5 C           1.0040    1.2250    0.0000 C.3     1  LIG1        0.1164
      6 C           1.8540    0.7080    0.0000 C.3     1  LIG1        0.1125
      7 N           1.8500   -0.2830    0.0000 N.pl3   1  LIG1       -0.3017
      8 C           2.7210   -0.7750    0.0000 C.ar    1  LIG1        0.0824
      9 C           3.5830   -0.2750    0.0000 C.ar    1  LIG1        0.1519
     10 O           3.5540    0.7170    0.0000 O.3     1  LIG1       -0.4702
     11 C           4.4000    1.2330    0.0000 C.3     1  LIG1        0.2525
     12 C           4.4710   -0.7750    0.0000 C.ar    1  LIG1        0.0382
     13 C           4.4790   -1.7630    0.0000 C.ar    1  LIG1        0.0032
     14 C           3.6000   -2.2710    0.0000 C.ar    1  LIG1        0.0015
     15 C           2.7250   -1.7630    0.0000 C.ar    1  LIG1        0.0176
     16 C           0.9460   -0.7880    0.0000 C.3     1  LIG1        0.1125
     17 C           0.1210   -0.2540    0.0000 C.3     1  LIG1        0.1164
     18 O          -0.7130    2.2460    0.0000 O.2     1  LIG1       -0.2508
     19 C          -2.4540    2.2750    0.0000 C.3     1  LIG1        0.0263
     20 C          -3.3250    1.7830    0.0000 C.3     1  LIG1        0.0263
     21 C          -2.9710    0.4170    0.0000 C.ar    1  LIG1       -0.0044
     22 C          -2.4710   -0.4540    0.0000 C.ar    1  LIG1       -0.0027
     23 C          -2.9710   -1.3000    0.0000 C.ar    1  LIG1       -0.0003
     24 C          -3.9830   -1.3170    0.0000 C.ar    1  LIG1       -0.0000
     25 C          -4.4830   -0.4380    0.0000 C.ar    1  LIG1       -0.0003
     26 C          -3.9670    0.4170    0.0000 C.ar    1  LIG1       -0.0027
@<TRIPOS>BOND
     1     1     2    1
     2     1    19    1
     3     1    20    1
     4     1    21    1
     5     2     3   am
     6     3     4   am
     7     3    18    2
     8     4     5    1
     9     4    17    1
    10     5     6    1
    11     6     7    1
    12     7     8    1
    13     7    16    1
    14     8     9   ar
    15     8    15   ar
    16     9    10    1
    17     9    12   ar
    18    10    11    1
    19    12    13   ar
    20    13    14   ar
    21    14    15   ar
    22    16    17    1
    23    19    20    1
    24    21    22   ar
    25    21    26   ar
    26    22    23   ar
    27    23    24   ar
    28    24    25   ar
    29    25    26   ar
