@<TRIPOS>MOLECULE
34041_ChemDiv_8011-6899
 24 27 0 0 0
SMALL
GASTEIGER
Energy = 0

@<TRIPOS>ATOM
      1 N          -1.1830   -0.0080    0.0000 N.ar    1  LIG1       -0.2536
      2 C          -1.6710   -0.8500    0.0000 C.ar    1  LIG1        0.1878
      3 N          -2.6330   -0.8500    0.0000 N.ar    1  LIG1       -0.2214
      4 C          -3.1210   -0.0080    0.0000 C.ar    1  LIG1        0.0880
      5 C          -2.6330    0.8250    0.0000 C.ar    1  LIG1        0.0742
      6 C          -1.6710    0.8250    0.0000 C.ar    1  LIG1        0.2676
      7 O          -1.1920    1.6790    0.0000 O.2     1  LIG1       -0.2665
      8 C          -3.1170    1.7040    0.0000 C.ar    1  LIG1        0.0063
      9 C          -4.1290    1.7040    0.0000 C.ar    1  LIG1        0.0003
     10 C          -4.6290    0.8540    0.0000 C.ar    1  LIG1        0.0015
     11 C          -4.1290   -0.0080    0.0000 C.ar    1  LIG1        0.0193
     12 S          -1.1920   -1.7000    0.0000 S.2     1  LIG1       -0.0105
     13 C          -0.2210   -0.0080    0.0000 C.ar    1  LIG1        0.0687
     14 C           0.2710   -0.8500    0.0000 C.ar    1  LIG1        0.0178
     15 C           1.2330   -0.8500    0.0000 C.ar    1  LIG1        0.0062
     16 C           1.7210   -0.0080    0.0000 C.ar    1  LIG1        0.0552
     17 C           2.6790   -0.0080    0.0000 C.ar    1  LIG1        0.2505
     18 O           3.1710   -0.8500    0.0000 O.2     1  LIG1       -0.4104
     19 C           4.1380   -0.8500    0.0000 C.ar    1  LIG1        0.2886
     20 N           4.6250   -0.0080    0.0000 N.ar    1  LIG1       -0.0998
     21 N           3.1710    0.8250    0.0000 N.ar    1  LIG1       -0.1064
     22 S           4.6000   -1.6790    0.0000 S.2     1  LIG1        0.0128
     23 C           1.2330    0.8250    0.0000 C.ar    1  LIG1        0.0062
     24 C           0.2710    0.8250    0.0000 C.ar    1  LIG1        0.0178
@<TRIPOS>BOND
     1     1     2   ar
     2     1     6   ar
     3     1    13    1
     4     2     3   ar
     5     2    12    2
     6     3     4   ar
     7     4     5   ar
     8     4    11   ar
     9     5     6   ar
    10     5     8   ar
    11     6     7    2
    12     8     9   ar
    13     9    10   ar
    14    10    11   ar
    15    13    14   ar
    16    13    24   ar
    17    14    15   ar
    18    15    16   ar
    19    16    17    1
    20    16    23   ar
    21    17    18   ar
    22    17    21   ar
    23    18    19   ar
    24    19    20   ar
    25    19    22    2
    26    20    21   ar
    27    23    24   ar
