@<TRIPOS>MOLECULE
34055_ChemDiv_8010-7655
 22 22 0 0 0
SMALL
GASTEIGER
Energy = 0

@<TRIPOS>ATOM
      1 C          -0.9540   -0.5250    0.0000 C.3     1  LIG1        0.2694
      2 C           0.2580   -0.5250    0.0000 C.3     1  LIG1        0.1461
      3 C           0.9000    0.2960    0.0000 C.3     1  LIG1        0.2216
      4 O           0.9000    1.1080    0.0000 O.3     1  LIG1       -0.4462
      5 C           1.7380    1.5830    0.0000 C.2     1  LIG1        0.3176
      6 O           2.6420    1.0920    0.0000 O.2     1  LIG1       -0.2501
      7 C           1.7380    2.4670    0.0000 C.3     1  LIG1        0.1212
      8 C           0.2580    1.1210    0.0000 C.3     1  LIG1        0.0558
      9 C          -0.9540    1.1210    0.0000 C.3     1  LIG1        0.0630
     10 C          -1.5670    0.2960    0.0000 C.3     1  LIG1        0.1059
     11 N          -1.5630    1.7290    0.0000 N.4     1  LIG1        0.3093
     12 C          -1.5630    2.6670    0.0000 C.3     1  LIG1        0.1708
     13 C          -0.6460    1.7290    0.0000 C.3     1  LIG1        0.1708
     14 C          -2.5130    1.7290    0.0000 C.3     1  LIG1        0.1708
     15 N           0.2540   -1.8210    0.0000 N.4     1  LIG1        0.3119
     16 C          -0.5830   -1.8210    0.0000 C.3     1  LIG1        0.1710
     17 C           1.2580   -1.8210    0.0000 C.3     1  LIG1        0.1710
     18 C           0.2540   -2.6630    0.0000 C.3     1  LIG1        0.1710
     19 O          -0.9380   -1.2460    0.0000 O.3     1  LIG1       -0.4401
     20 C          -1.8210   -1.7000    0.0000 C.2     1  LIG1        0.3178
     21 O          -2.6460   -1.2330    0.0000 O.2     1  LIG1       -0.2501
     22 C          -1.8210   -2.5710    0.0000 C.3     1  LIG1        0.1212
@<TRIPOS>BOND
     1     1     2    1
     2     1    10    1
     3     1    19    1
     4     2     3    1
     5     2    15    1
     6     3     4    1
     7     3     8    1
     8     4     5    1
     9     5     6    2
    10     5     7    1
    11     8     9    1
    12     9    10    1
    13    10    11    1
    14    11    12    1
    15    11    13    1
    16    11    14    1
    17    15    16    1
    18    15    17    1
    19    15    18    1
    20    19    20    1
    21    20    21    2
    22    20    22    1
