@<TRIPOS>MOLECULE
34052_ChemDiv_8012-5936
 32 35 0 0 0
SMALL
GASTEIGER
Energy = 0

@<TRIPOS>ATOM
      1 N           2.8500    0.4830    0.0000 N.ar    1  LIG1       -0.1897
      2 C           3.6580    0.0080    0.0000 C.ar    1  LIG1        0.2756
      3 N           4.5040    0.4830    0.0000 N.ar    1  LIG1       -0.0889
      4 N           4.5040    1.4380    0.0000 N.ar    1  LIG1       -0.0212
      5 N           2.8500    1.4380    0.0000 N.ar    1  LIG1       -0.0414
      6 N           3.6580   -0.9580    0.0000 N.pl3   1  LIG1       -0.0849
      7 C           2.0790    0.0170    0.0000 C.3     1  LIG1        0.2168
      8 C           1.2460    0.4960    0.0000 C.2     1  LIG1        0.2513
      9 N           0.4130    0.0170    0.0000 N.am    1  LIG1       -0.2660
     10 C          -0.4170    0.5080    0.0000 C.3     1  LIG1        0.1311
     11 C          -1.2500    0.0170    0.0000 C.2     1  LIG1        0.2616
     12 N          -2.0790    0.4830    0.0000 N.am    1  LIG1       -0.1782
     13 C          -2.8420    0.0500    0.0000 C.ar    1  LIG1        0.0694
     14 C          -3.6630    0.5210    0.0000 C.ar    1  LIG1       -0.0065
     15 C          -3.6630    1.4580    0.0000 C.3     1  LIG1        0.0324
     16 C          -4.5080    0.0500    0.0000 C.ar    1  LIG1       -0.0030
     17 C          -4.5080   -0.9040    0.0000 C.ar    1  LIG1       -0.0002
     18 C          -3.6630   -1.4130    0.0000 C.ar    1  LIG1        0.0013
     19 C          -2.8420   -0.9040    0.0000 C.ar    1  LIG1        0.0163
     20 O          -1.2500   -0.9330    0.0000 O.2     1  LIG1       -0.2713
     21 C           0.4330    0.9960    0.0000 C.3     1  LIG1        0.0272
     22 C           0.4330    1.9420    0.0000 C.3     1  LIG1        0.0021
     23 C          -0.4170    2.4330    0.0000 C.3     1  LIG1        0.0001
     24 C          -1.2290    1.9420    0.0000 C.3     1  LIG1        0.0021
     25 C          -1.2290    0.9960    0.0000 C.3     1  LIG1        0.0272
     26 C           0.4130   -0.9580    0.0000 C.3     1  LIG1        0.1585
     27 C           1.3080   -1.4540    0.0000 C.ar    1  LIG1        0.1430
     28 O           2.1380   -0.9580    0.0000 O.2     1  LIG1       -0.4530
     29 C           3.0000   -1.4540    0.0000 C.ar    1  LIG1        0.1792
     30 C           3.0000   -2.4290    0.0000 C.ar    1  LIG1        0.0435
     31 C           1.3080   -2.4290    0.0000 C.ar    1  LIG1        0.0379
     32 O           1.2460    1.4500    0.0000 O.2     1  LIG1       -0.2727
@<TRIPOS>BOND
     1     1     2   ar
     2     1     5   ar
     3     1     7    1
     4     2     3   ar
     5     2     6    1
     6     3     4   ar
     7     4     5   ar
     8     7     8    1
     9     8     9   am
    10     8    32    2
    11     9    10    1
    12     9    26    1
    13    10    11    1
    14    10    21    1
    15    10    25    1
    16    11    12   am
    17    11    20    2
    18    12    13    1
    19    13    14   ar
    20    13    19   ar
    21    14    15    1
    22    14    16   ar
    23    16    17   ar
    24    17    18   ar
    25    18    19   ar
    26    21    22    1
    27    22    23    1
    28    23    24    1
    29    24    25    1
    30    26    27    1
    31    27    28   ar
    32    27    31   ar
    33    28    29   ar
    34    29    30   ar
    35    30    31   ar
