@<TRIPOS>MOLECULE
34053_ChemDiv_8010-6914
 15 17 0 0 0
SMALL
GASTEIGER
Energy = 0

@<TRIPOS>ATOM
      1 C           0.4920   -0.0130    0.0000 C.ar    1  LIG1        0.0404
      2 C          -0.4960   -0.0130    0.0000 C.ar    1  LIG1        0.0032
      3 C          -0.9960    0.8580    0.0000 C.ar    1  LIG1        0.0001
      4 C          -0.4960    1.7420    0.0000 C.ar    1  LIG1        0.0005
      5 C           0.5000    1.7420    0.0000 C.ar    1  LIG1        0.0062
      6 C           0.9920    0.8580    0.0000 C.ar    1  LIG1        0.0280
      7 S           2.0080    0.8580    0.0000 S.3     1  LIG1       -0.1131
      8 C           2.4920   -0.0130    0.0000 C.3     1  LIG1        0.0703
      9 C           1.9880   -0.8710    0.0000 C.3     1  LIG1        0.0811
     10 C           0.9920   -0.8710    0.0000 C.2     1  LIG1        0.1744
     11 O           0.5080   -1.7380    0.0000 O.2     1  LIG1       -0.2913
     12 C          -1.9960    0.8580    0.0000 C.ar    1  LIG1        0.0000
     13 C          -2.4960   -0.0130    0.0000 C.ar    1  LIG1        0.0000
     14 C          -1.9960   -0.8710    0.0000 C.ar    1  LIG1        0.0000
     15 C          -0.9960   -0.8710    0.0000 C.ar    1  LIG1        0.0001
@<TRIPOS>BOND
     1     1     2   ar
     2     1     6   ar
     3     1    10    1
     4     2     3   ar
     5     2    15   ar
     6     3     4   ar
     7     3    12   ar
     8     4     5   ar
     9     5     6   ar
    10     6     7    1
    11     7     8    1
    12     8     9    1
    13     9    10    1
    14    10    11    2
    15    12    13   ar
    16    13    14   ar
    17    14    15   ar
