@<TRIPOS>MOLECULE
34054_ChemDiv_8012-9516
 34 37 0 0 0
SMALL
GASTEIGER
Energy = 0

@<TRIPOS>ATOM
      1 N           3.3500    1.6960    0.0000 N.ar    1  LIG1       -0.1927
      2 C           3.3500    0.7130    0.0000 C.ar    1  LIG1        0.1729
      3 C           2.5500    0.2290    0.0000 C.3     1  LIG1        0.1527
      4 C           1.6920    0.7250    0.0000 C.2     1  LIG1        0.2339
      5 N           0.8460    0.2290    0.0000 N.am    1  LIG1       -0.2702
      6 C          -0.0210    0.7330    0.0000 C.3     1  LIG1        0.1310
      7 C          -0.8710    0.2290    0.0000 C.2     1  LIG1        0.2616
      8 N          -1.7290    0.7130    0.0000 N.am    1  LIG1       -0.1779
      9 C          -2.5040    0.2670    0.0000 C.ar    1  LIG1        0.0736
     10 C          -2.5040   -0.7040    0.0000 C.ar    1  LIG1        0.0197
     11 C          -3.3420   -1.2210    0.0000 C.ar    1  LIG1        0.0382
     12 C          -4.2040   -0.7040    0.0000 C.ar    1  LIG1        0.1388
     13 C          -4.2040    0.2670    0.0000 C.ar    1  LIG1        0.0382
     14 C          -3.3420    0.7580    0.0000 C.ar    1  LIG1        0.0197
     15 O          -5.0500   -1.2000    0.0000 O.3     1  LIG1       -0.4714
     16 C          -5.9170   -0.6710    0.0000 C.3     1  LIG1        0.2525
     17 O          -0.8710   -0.7420    0.0000 O.2     1  LIG1       -0.2713
     18 C           0.8580    1.2380    0.0000 C.3     1  LIG1        0.0272
     19 C           0.8580    2.2170    0.0000 C.3     1  LIG1        0.0021
     20 C          -0.0210    2.7080    0.0000 C.3     1  LIG1        0.0001
     21 C          -0.8460    2.2170    0.0000 C.3     1  LIG1        0.0021
     22 C          -0.8460    1.2380    0.0000 C.3     1  LIG1        0.0272
     23 C           0.8460   -0.7630    0.0000 C.3     1  LIG1        0.1205
     24 C           1.7170   -1.2420    0.0000 C.ar    1  LIG1       -0.0023
     25 C           1.7170   -2.2460    0.0000 C.ar    1  LIG1       -0.0026
     26 C           2.5750   -2.7040    0.0000 C.ar    1  LIG1       -0.0003
     27 C           3.4330   -2.2460    0.0000 C.ar    1  LIG1       -0.0000
     28 C           3.4330   -1.2420    0.0000 C.ar    1  LIG1       -0.0003
     29 C           2.5750   -0.7830    0.0000 C.ar    1  LIG1       -0.0026
     30 O           1.6920    1.6960    0.0000 O.2     1  LIG1       -0.2744
     31 N           4.1750    0.2210    0.0000 N.ar    1  LIG1       -0.1297
     32 N           5.0330    0.7130    0.0000 N.ar    1  LIG1       -0.1081
     33 C           5.0330    1.6960    0.0000 C.ar    1  LIG1        0.2763
     34 N           5.9130    2.1920    0.0000 N.pl3   1  LIG1       -0.0847
@<TRIPOS>BOND
     1     1     2   ar
     2     1    33   ar
     3     2     3    1
     4     2    31   ar
     5     3     4    1
     6     4     5   am
     7     4    30    2
     8     5     6    1
     9     5    23    1
    10     6     7    1
    11     6    18    1
    12     6    22    1
    13     7     8   am
    14     7    17    2
    15     8     9    1
    16     9    10   ar
    17     9    14   ar
    18    10    11   ar
    19    11    12   ar
    20    12    13   ar
    21    12    15    1
    22    13    14   ar
    23    15    16    1
    24    18    19    1
    25    19    20    1
    26    20    21    1
    27    21    22    1
    28    23    24    1
    29    24    25   ar
    30    24    29   ar
    31    25    26   ar
    32    26    27   ar
    33    27    28   ar
    34    28    29   ar
    35    31    32   ar
    36    32    33   ar
    37    33    34    1
