@<TRIPOS>MOLECULE
34057_ChemDiv_8010-7765
 28 30 0 0 0
SMALL
GASTEIGER
Energy = 0

@<TRIPOS>ATOM
      1 C           0.0880   -0.8330    0.0000 C.ar    1  LIG1        0.2127
      2 N          -0.8460   -0.8330    0.0000 N.am    1  LIG1       -0.1808
      3 C          -1.3380   -1.6960    0.0000 C.2     1  LIG1        0.2600
      4 O          -0.8460   -2.5750    0.0000 O.2     1  LIG1       -0.2691
      5 C          -2.3500   -1.6960    0.0000 C.ar    1  LIG1        0.0543
      6 C          -2.8290   -0.7920    0.0000 C.ar    1  LIG1        0.0045
      7 C          -3.8330   -0.7710    0.0000 C.ar    1  LIG1        0.0001
      8 C          -4.3580   -1.6540    0.0000 C.ar    1  LIG1        0.0000
      9 C          -3.8630   -2.4630    0.0000 C.ar    1  LIG1        0.0001
     10 C          -2.8710   -2.5170    0.0000 C.ar    1  LIG1        0.0045
     11 C          -1.2880    0.0500    0.0000 C.2     1  LIG1        0.2600
     12 O          -2.3080    0.1170    0.0000 O.2     1  LIG1       -0.2691
     13 C          -0.7330    0.8920    0.0000 C.ar    1  LIG1        0.0543
     14 C          -1.1500    1.7790    0.0000 C.ar    1  LIG1        0.0045
     15 C          -0.5540    2.5790    0.0000 C.ar    1  LIG1        0.0001
     16 C           0.3960    2.5380    0.0000 C.ar    1  LIG1        0.0000
     17 C           0.8500    1.6130    0.0000 C.ar    1  LIG1        0.0001
     18 C           0.2920    0.7960    0.0000 C.ar    1  LIG1        0.0045
     19 C           1.4710   -0.0250    0.0000 C.ar    1  LIG1        0.2328
     20 C           1.9250    0.7630    0.0000 C.2     1  LIG1        0.3653
     21 O           2.8960    0.7630    0.0000 O.3     1  LIG1       -0.4480
     22 C           3.3500   -0.0790    0.0000 C.3     1  LIG1        0.1695
     23 C           4.3540   -0.0790    0.0000 C.3     1  LIG1        0.0473
     24 C           2.8170   -0.9330    0.0000 C.3     1  LIG1        0.0473
     25 O           1.4580    1.5710    0.0000 O.2     1  LIG1       -0.2430
     26 N           1.9460   -0.8330    0.0000 N.ar    1  LIG1       -0.0402
     27 O           1.4880   -1.6250    0.0000 O.2     1  LIG1       -0.2400
     28 N           0.5630   -1.6250    0.0000 N.ar    1  LIG1       -0.0321
@<TRIPOS>BOND
     1     1     2    1
     2     1    19   ar
     3     1    28   ar
     4     2     3   am
     5     2    11   am
     6     3     4    2
     7     3     5    1
     8     5     6   ar
     9     5    10   ar
    10     6     7   ar
    11     7     8   ar
    12     8     9   ar
    13     9    10   ar
    14    11    12    2
    15    11    13    1
    16    13    14   ar
    17    13    18   ar
    18    14    15   ar
    19    15    16   ar
    20    16    17   ar
    21    17    18   ar
    22    19    20    1
    23    19    26   ar
    24    20    21    1
    25    20    25    2
    26    21    22    1
    27    22    23    1
    28    22    24    1
    29    26    27   ar
    30    27    28   ar
