@<TRIPOS>MOLECULE
34051_ChemDiv_8010-6399
 28 31 0 0 0
SMALL
GASTEIGER
Energy = 0

@<TRIPOS>ATOM
      1 P          -0.7540    0.0040    0.0000 P.3     1  LIG1        0.1954
      2 N           0.2580    0.0250    0.0000 N.3     1  LIG1       -0.2206
      3 C           0.7580    0.8880    0.0000 C.3     1  LIG1        0.1117
      4 C           1.7670    1.0000    0.0000 C.ar    1  LIG1        0.0238
      5 S           2.3290    1.8080    0.0000 S.2     1  LIG1       -0.0894
      6 C           3.2960    1.5250    0.0000 C.ar    1  LIG1        0.0352
      7 C           3.2960    0.5500    0.0000 C.ar    1  LIG1        0.0072
      8 C           2.3580    0.2250    0.0000 C.ar    1  LIG1        0.0041
      9 C           0.7670   -0.8170    0.0000 C.3     1  LIG1        0.1083
     10 C           1.7540   -0.9170    0.0000 C.3     1  LIG1        0.1316
     11 O           2.4130   -0.1750    0.0000 O.3     1  LIG1       -0.3548
     12 C           3.3710   -0.5460    0.0000 C.3     1  LIG1        0.1422
     13 C           3.2830   -1.5500    0.0000 C.3     1  LIG1        0.0346
     14 C           2.2960   -1.7710    0.0000 C.3     1  LIG1        0.0336
     15 C          -0.7540    1.0080    0.0000 C.3     1  LIG1        0.1050
     16 C          -1.6250    1.5130    0.0000 C.ar    1  LIG1       -0.0132
     17 C          -1.6420    2.5130    0.0000 C.ar    1  LIG1       -0.0038
     18 C          -2.5040    3.0080    0.0000 C.ar    1  LIG1       -0.0003
     19 C          -3.3750    2.5130    0.0000 C.ar    1  LIG1       -0.0000
     20 C          -3.3630    1.5130    0.0000 C.ar    1  LIG1       -0.0003
     21 C          -2.4920    1.0170    0.0000 C.ar    1  LIG1       -0.0038
     22 O          -1.7710    0.0040    0.0000 O.2     1  LIG1       -0.2982
     23 C          -0.7500   -1.0130    0.0000 C.ar    1  LIG1        0.0433
     24 C          -1.6080   -1.5080    0.0000 C.ar    1  LIG1        0.0041
     25 C          -1.5920   -2.5080    0.0000 C.ar    1  LIG1        0.0002
     26 C          -0.7330   -3.0040    0.0000 C.ar    1  LIG1        0.0000
     27 C           0.1250   -2.5080    0.0000 C.ar    1  LIG1        0.0002
     28 C           0.1130   -1.5080    0.0000 C.ar    1  LIG1        0.0041
@<TRIPOS>BOND
     1     1     2    1
     2     1    15    1
     3     1    22    2
     4     1    23    1
     5     2     3    1
     6     2     9    1
     7     3     4    1
     8     4     5   ar
     9     4     8   ar
    10     5     6   ar
    11     6     7   ar
    12     7     8   ar
    13     9    10    1
    14    10    11    1
    15    10    14    1
    16    11    12    1
    17    12    13    1
    18    13    14    1
    19    15    16    1
    20    16    17   ar
    21    16    21   ar
    22    17    18   ar
    23    18    19   ar
    24    19    20   ar
    25    20    21   ar
    26    23    24   ar
    27    23    28   ar
    28    24    25   ar
    29    25    26   ar
    30    26    27   ar
    31    27    28   ar
