@<TRIPOS>MOLECULE
34068_ChemDiv_8012-2517
 24 26 0 0 0
SMALL
GASTEIGER
Energy = 0

@<TRIPOS>ATOM
      1 C          -2.6080    0.5000    0.0000 C.ar    1  LIG1        0.0664
      2 C          -1.7460    1.0130    0.0000 C.2     1  LIG1        0.2698
      3 N          -0.8750    0.5170    0.0000 N.am    1  LIG1       -0.1754
      4 C          -0.0040    1.0130    0.0000 C.ar    1  LIG1        0.0735
      5 C           0.8670    0.5170    0.0000 C.ar    1  LIG1        0.0172
      6 C           1.7380    1.0290    0.0000 C.ar    1  LIG1        0.0349
      7 C           2.5880    0.5330    0.0000 C.3     1  LIG1        0.2600
      8 O           3.4540    1.0290    0.0000 O.3     1  LIG1       -0.3270
      9 C           4.3290    0.5170    0.0000 C.3     1  LIG1        0.1477
     10 C           4.3290   -0.4750    0.0000 C.3     1  LIG1        0.0643
     11 C           3.4540   -0.9750    0.0000 C.3     1  LIG1        0.1477
     12 O           2.5880   -0.4750    0.0000 O.3     1  LIG1       -0.3270
     13 C           1.7380    2.0040    0.0000 C.ar    1  LIG1        0.0006
     14 C           0.8670    2.5040    0.0000 C.ar    1  LIG1        0.0012
     15 C          -0.0040    2.0040    0.0000 C.ar    1  LIG1        0.0166
     16 O          -1.7460    2.0040    0.0000 O.2     1  LIG1       -0.2680
     17 C          -3.4630    0.9960    0.0000 C.ar    1  LIG1        0.0621
     18 C          -4.3330    0.5000    0.0000 C.ar    1  LIG1        0.0120
     19 C          -4.3330   -0.5080    0.0000 C.ar    1  LIG1        0.0070
     20 C          -3.4630   -1.0080    0.0000 C.ar    1  LIG1        0.0254
     21 C          -2.6080   -0.5080    0.0000 C.ar    1  LIG1        0.0116
     22 S          -3.4630   -2.0000    0.0000 S.3     1  LIG1       -0.1127
     23 C          -4.3330   -2.5000    0.0000 C.3     1  LIG1        0.0742
     24 CL         -3.4630    2.0040    0.0000 Cl      1  LIG1       -0.0821
@<TRIPOS>BOND
     1     1     2    1
     2     1    17   ar
     3     1    21   ar
     4     2     3   am
     5     2    16    2
     6     3     4    1
     7     4     5   ar
     8     4    15   ar
     9     5     6   ar
    10     6     7    1
    11     6    13   ar
    12     7     8    1
    13     7    12    1
    14     8     9    1
    15     9    10    1
    16    10    11    1
    17    11    12    1
    18    13    14   ar
    19    14    15   ar
    20    17    18   ar
    21    17    24    1
    22    18    19   ar
    23    19    20   ar
    24    20    21   ar
    25    20    22    1
    26    22    23    1
