@<TRIPOS>MOLECULE
34063_ChemDiv_8010-8381
 26 29 0 0 0
SMALL
GASTEIGER
Energy = 0

@<TRIPOS>ATOM
      1 C          -2.5250   -0.2790    0.0000 C.ar    1  LIG1       -0.0191
      2 C          -1.6670   -0.7750    0.0000 C.ar    1  LIG1        0.0128
      3 C          -0.7920   -0.2790    0.0000 C.2     1  LIG1        0.0968
      4 N          -0.7920    0.7130    0.0000 N.2     1  LIG1       -0.2745
      5 C          -1.6670    1.2130    0.0000 C.3     1  LIG1        0.0885
      6 C          -2.5250    0.7130    0.0000 C.3     1  LIG1        0.0488
      7 C          -0.9710    2.1670    0.0000 C.3     1  LIG1        0.0247
      8 C          -2.1130    2.2630    0.0000 C.3     1  LIG1        0.0247
      9 C           0.0580   -0.7580    0.0000 C.3     1  LIG1        0.2504
     10 O           0.9040   -0.2630    0.0000 O.3     1  LIG1       -0.4689
     11 C           1.7290   -0.7330    0.0000 C.ar    1  LIG1        0.1422
     12 C           2.5830   -0.2290    0.0000 C.ar    1  LIG1        0.0738
     13 C           3.4330   -0.7130    0.0000 C.ar    1  LIG1        0.1418
     14 O           4.2790   -0.2080    0.0000 O.3     1  LIG1       -0.4713
     15 C           5.1380   -0.6790    0.0000 C.3     1  LIG1        0.2525
     16 C           3.4750   -1.6880    0.0000 C.ar    1  LIG1        0.0371
     17 C           2.6080   -2.1630    0.0000 C.ar    1  LIG1        0.0062
     18 C           1.7580   -1.7040    0.0000 C.ar    1  LIG1        0.0371
     19 C          -1.6670   -1.7630    0.0000 C.ar    1  LIG1        0.0010
     20 C          -2.5250   -2.2580    0.0000 C.ar    1  LIG1        0.0000
     21 C          -3.3960   -1.7630    0.0000 C.ar    1  LIG1       -0.0003
     22 C          -3.3960   -0.7750    0.0000 C.ar    1  LIG1       -0.0039
     23 C          -4.2670   -0.2790    0.0000 C.ar    1  LIG1       -0.0003
     24 C          -5.1420   -0.7750    0.0000 C.ar    1  LIG1       -0.0000
     25 C          -5.1420   -1.7630    0.0000 C.ar    1  LIG1       -0.0000
     26 C          -4.2670   -2.2580    0.0000 C.ar    1  LIG1       -0.0000
@<TRIPOS>BOND
     1     1     2   ar
     2     1     6    1
     3     1    22   ar
     4     2     3    1
     5     2    19   ar
     6     3     4    2
     7     3     9    1
     8     4     5    1
     9     5     6    1
    10     5     7    1
    11     5     8    1
    12     9    10    1
    13    10    11    1
    14    11    12   ar
    15    11    18   ar
    16    12    13   ar
    17    13    14    1
    18    13    16   ar
    19    14    15    1
    20    16    17   ar
    21    17    18   ar
    22    19    20   ar
    23    20    21   ar
    24    21    22   ar
    25    21    26   ar
    26    22    23   ar
    27    23    24   ar
    28    24    25   ar
    29    25    26   ar
