@<TRIPOS>MOLECULE
34081_ChemDiv_8017-2768
 19 21 0 0 0
SMALL
GASTEIGER
Energy = 0

@<TRIPOS>ATOM
      1 C          -0.5330   -0.8250    0.0000 C.3     1  LIG1        0.2162
      2 C           0.0420   -1.6040    0.0000 C.2     1  LIG1        0.2771
      3 N          -0.5330   -2.3920    0.0000 N.am    1  LIG1       -0.1771
      4 C          -1.4580   -2.0920    0.0000 C.ar    1  LIG1        0.0722
      5 C          -1.4580   -1.1250    0.0000 C.ar    1  LIG1        0.0288
      6 C          -2.2960   -0.6380    0.0000 C.ar    1  LIG1       -0.0002
      7 C          -3.1380   -1.1250    0.0000 C.ar    1  LIG1       -0.0001
      8 C          -3.1380   -2.0920    0.0000 C.ar    1  LIG1        0.0013
      9 C          -2.2960   -2.5790    0.0000 C.ar    1  LIG1        0.0164
     10 O           1.0080   -1.6040    0.0000 O.2     1  LIG1       -0.2700
     11 C           0.4540   -0.5130    0.0000 C.3     1  LIG1        0.0490
     12 C           0.4540    0.5210    0.0000 C.3     1  LIG1        0.0647
     13 C           1.3460    1.0380    0.0000 C.3     1  LIG1        0.2352
     14 O           2.2420    0.5210    0.0000 O.3     1  LIG1       -0.3304
     15 C           3.1330    1.0380    0.0000 C.3     1  LIG1        0.1474
     16 C           3.1330    2.0710    0.0000 C.3     1  LIG1        0.0643
     17 C           2.2420    2.5830    0.0000 C.3     1  LIG1        0.1474
     18 O           1.3460    2.0710    0.0000 O.3     1  LIG1       -0.3304
     19 O          -1.1330    0.0130    0.0000 O.3     1  LIG1       -0.2117
@<TRIPOS>BOND
     1     1     2    1
     2     1     5    1
     3     1    11    1
     4     1    19    1
     5     2     3   am
     6     2    10    2
     7     3     4    1
     8     4     5   ar
     9     4     9   ar
    10     5     6   ar
    11     6     7   ar
    12     7     8   ar
    13     8     9   ar
    14    11    12    1
    15    12    13    1
    16    13    14    1
    17    13    18    1
    18    14    15    1
    19    15    16    1
    20    16    17    1
    21    17    18    1
