@<TRIPOS>MOLECULE
34086_ChemDiv_8013-2675
 24 26 0 0 0
SMALL
GASTEIGER
Energy = 0

@<TRIPOS>ATOM
      1 S           0.8460   -0.0380    0.0000 S.O2    1  LIG1        0.0781
      2 N          -0.1040    0.2670    0.0000 N.am    1  LIG1       -0.1596
      3 C          -0.4080    1.2130    0.0000 C.2     1  LIG1        0.2445
      4 C          -1.4040    1.2130    0.0000 C.3     1  LIG1        0.0930
      5 C          -1.7130    0.2670    0.0000 C.3     1  LIG1        0.0532
      6 C          -0.9080   -0.3170    0.0000 C.3     1  LIG1        0.1235
      7 C          -2.6580   -0.0380    0.0000 C.ar    1  LIG1       -0.0203
      8 C          -2.8710   -1.0130    0.0000 C.ar    1  LIG1       -0.0042
      9 C          -3.8170   -1.3210    0.0000 C.ar    1  LIG1       -0.0003
     10 C          -4.5500   -0.6540    0.0000 C.ar    1  LIG1       -0.0000
     11 C          -4.3460    0.3210    0.0000 C.ar    1  LIG1       -0.0003
     12 C          -3.4000    0.6250    0.0000 C.ar    1  LIG1       -0.0042
     13 O           0.1750    2.0170    0.0000 O.2     1  LIG1       -0.2733
     14 C           1.7710   -0.4080    0.0000 C.ar    1  LIG1        0.1175
     15 C           2.5540    0.2040    0.0000 C.ar    1  LIG1       -0.0036
     16 C           3.4790   -0.1670    0.0000 C.ar    1  LIG1       -0.0072
     17 C           3.6210   -1.1540    0.0000 C.ar    1  LIG1       -0.0224
     18 C           2.8380   -1.7710    0.0000 C.ar    1  LIG1       -0.0072
     19 C           1.9130   -1.3960    0.0000 C.ar    1  LIG1       -0.0036
     20 C           1.1290   -2.0130    0.0000 C.3     1  LIG1        0.0324
     21 C           4.5460   -1.5330    0.0000 C.3     1  LIG1        0.0310
     22 C           2.4130    1.1880    0.0000 C.3     1  LIG1        0.0324
     23 O           1.1580    1.0330    0.0000 O.2     1  LIG1       -0.1497
     24 O           0.5380   -0.9830    0.0000 O.2     1  LIG1       -0.1497
@<TRIPOS>BOND
     1     1     2    1
     2     1    14    1
     3     1    23    2
     4     1    24    2
     5     2     3   am
     6     2     6    1
     7     3     4    1
     8     3    13    2
     9     4     5    1
    10     5     6    1
    11     5     7    1
    12     7     8   ar
    13     7    12   ar
    14     8     9   ar
    15     9    10   ar
    16    10    11   ar
    17    11    12   ar
    18    14    15   ar
    19    14    19   ar
    20    15    16   ar
    21    15    22    1
    22    16    17   ar
    23    17    18   ar
    24    17    21    1
    25    18    19   ar
    26    19    20    1
