@<TRIPOS>MOLECULE
34088_ChemDiv_8014-9913
 16 17 0 0 0
SMALL
GASTEIGER
Energy = 0

@<TRIPOS>ATOM
      1 S          -2.7080    0.0040    0.0000 S.O2    1  LIG1        0.0935
      2 C          -1.7130    0.0040    0.0000 C.ar    1  LIG1        0.1250
      3 C          -1.2290    0.8790    0.0000 C.ar    1  LIG1        0.0197
      4 C          -0.2210    0.8790    0.0000 C.ar    1  LIG1       -0.0028
      5 C           0.2750    0.0040    0.0000 C.ar    1  LIG1       -0.0202
      6 C           1.2790    0.0040    0.0000 C.3     1  LIG1        0.0532
      7 C           1.8710   -0.8080    0.0000 C.3     1  LIG1        0.0929
      8 C           2.8250   -0.4920    0.0000 C.2     1  LIG1        0.2418
      9 N           2.8250    0.5080    0.0000 N.am    1  LIG1       -0.2051
     10 C           1.8710    0.8210    0.0000 C.3     1  LIG1        0.1199
     11 O           3.7000   -0.9960    0.0000 O.2     1  LIG1       -0.2733
     12 C          -0.2210   -0.8540    0.0000 C.ar    1  LIG1       -0.0028
     13 C          -1.2210   -0.8540    0.0000 C.ar    1  LIG1        0.0197
     14 O          -2.7080    1.0000    0.0000 O.2     1  LIG1       -0.1503
     15 O          -2.7080   -0.9880    0.0000 O.2     1  LIG1       -0.1503
     16 N          -3.7040    0.0040    0.0000 N.3     1  LIG1        0.0392
@<TRIPOS>BOND
     1     1     2    1
     2     1    14    2
     3     1    15    2
     4     1    16    1
     5     2     3   ar
     6     2    13   ar
     7     3     4   ar
     8     4     5   ar
     9     5     6    1
    10     5    12   ar
    11     6     7    1
    12     6    10    1
    13     7     8    1
    14     8     9   am
    15     8    11    2
    16     9    10    1
    17    12    13   ar
