@<TRIPOS>MOLECULE
34082_ChemDiv_8013-2659
 34 39 0 0 0
SMALL
GASTEIGER
Energy = 0

@<TRIPOS>ATOM
      1 N          -3.2330   -0.7580    0.0000 N.am    1  LIG1       -0.2368
      2 C          -2.2380   -0.7040    0.0000 C.2     1  LIG1        0.2494
      3 C          -1.8250    0.1830    0.0000 C.3     1  LIG1        0.1596
      4 N          -0.7580    0.2330    0.0000 N.3     1  LIG1       -0.2549
      5 C          -0.2670   -0.6500    0.0000 C.3     1  LIG1        0.1362
      6 C           0.7290   -0.6500    0.0000 C.3     1  LIG1        0.1568
      7 N           1.2170    0.2330    0.0000 N.4     1  LIG1        0.3829
      8 C           2.2330    0.1830    0.0000 C.3     1  LIG1        0.1664
      9 C           2.7790    1.0710    0.0000 C.ar    1  LIG1        0.0376
     10 C           3.8080    1.0710    0.0000 C.ar    1  LIG1        0.0416
     11 C           4.3040    1.9670    0.0000 C.ar    1  LIG1        0.1763
     12 C           3.8080    2.8580    0.0000 C.ar    1  LIG1        0.1764
     13 O           4.5000    3.5710    0.0000 O.3     1  LIG1       -0.4346
     14 C           5.4500    3.1250    0.0000 C.3     1  LIG1        0.4294
     15 O           5.2920    2.1630    0.0000 O.3     1  LIG1       -0.4346
     16 C           2.8210    2.8580    0.0000 C.ar    1  LIG1        0.0401
     17 C           2.3290    1.9670    0.0000 C.ar    1  LIG1        0.0048
     18 C           0.7290    1.1250    0.0000 C.3     1  LIG1        0.1568
     19 C          -0.3420    1.1250    0.0000 C.3     1  LIG1        0.1362
     20 O          -1.7290   -1.5500    0.0000 O.2     1  LIG1       -0.2727
     21 C          -3.7040    0.1330    0.0000 C.ar    1  LIG1        0.0541
     22 C          -4.6420    0.3790    0.0000 C.ar    1  LIG1       -0.0078
     23 C          -5.3790   -0.2130    0.0000 C.3     1  LIG1        0.0323
     24 C          -5.4540   -1.1540    0.0000 C.3     1  LIG1        0.0323
     25 C          -4.6880   -1.8420    0.0000 C.ar    1  LIG1       -0.0078
     26 C          -3.7330   -1.6460    0.0000 C.ar    1  LIG1        0.0541
     27 C          -3.1040   -2.4380    0.0000 C.ar    1  LIG1        0.0149
     28 C          -3.4080   -3.3250    0.0000 C.ar    1  LIG1        0.0013
     29 C          -4.3960   -3.5670    0.0000 C.ar    1  LIG1       -0.0002
     30 C          -5.0330   -2.8290    0.0000 C.ar    1  LIG1       -0.0030
     31 C          -4.8920    1.3210    0.0000 C.ar    1  LIG1       -0.0030
     32 C          -4.1960    2.0130    0.0000 C.ar    1  LIG1       -0.0002
     33 C          -3.3000    1.7630    0.0000 C.ar    1  LIG1        0.0013
     34 C          -3.0080    0.8290    0.0000 C.ar    1  LIG1        0.0149
@<TRIPOS>BOND
     1     1     2   am
     2     1    21    1
     3     1    26    1
     4     2     3    1
     5     2    20    2
     6     3     4    1
     7     4     5    1
     8     4    19    1
     9     5     6    1
    10     6     7    1
    11     7     8    1
    12     7    18    1
    13     8     9    1
    14     9    10   ar
    15     9    17   ar
    16    10    11   ar
    17    11    12   ar
    18    11    15    1
    19    12    13    1
    20    12    16   ar
    21    13    14    1
    22    14    15    1
    23    16    17   ar
    24    18    19    1
    25    21    22   ar
    26    21    34   ar
    27    22    23    1
    28    22    31   ar
    29    23    24    1
    30    24    25    1
    31    25    26   ar
    32    25    30   ar
    33    26    27   ar
    34    27    28   ar
    35    28    29   ar
    36    29    30   ar
    37    31    32   ar
    38    32    33   ar
    39    33    34   ar
