@<TRIPOS>MOLECULE
34095_ChemDiv_8012-6006
 27 31 0 0 0
SMALL
GASTEIGER
Energy = 0

@<TRIPOS>ATOM
      1 S          -1.7420    0.1630    0.0000 S.O2    1  LIG1        0.0637
      2 N          -1.0330    0.8790    0.0000 N.3     1  LIG1       -0.1481
      3 C          -0.0750    0.6040    0.0000 C.3     1  LIG1        0.1571
      4 C           0.2880   -0.3580    0.0000 C.2     1  LIG1        0.2574
      5 N           1.3000   -0.5500    0.0000 N.am    1  LIG1       -0.2077
      6 C           1.9460    0.1920    0.0000 C.3     1  LIG1        0.0787
      7 C           1.1500    0.9460    0.0000 C.3     1  LIG1        0.0200
      8 C           1.4630    1.8130    0.0000 C.3     1  LIG1        0.0017
      9 C           2.1790    1.6330    0.0000 C.3     1  LIG1        0.0001
     10 C           3.1540    0.6710    0.0000 C.3     1  LIG1        0.0017
     11 C           2.6040   -0.1920    0.0000 C.3     1  LIG1        0.0200
     12 C           4.1630    1.2880    0.0000 C.3     1  LIG1        0.0001
     13 C           3.0710    1.3750    0.0000 C.3     1  LIG1        0.0017
     14 C           2.7880    0.5920    0.0000 C.3     1  LIG1        0.0200
     15 C           2.3040    2.1290    0.0000 C.3     1  LIG1        0.0001
     16 O          -0.3710   -1.1540    0.0000 O.2     1  LIG1       -0.2718
     17 C           0.4750    1.4250    0.0000 C.3     1  LIG1        0.0286
     18 C          -0.0960    2.2000    0.0000 C.3     1  LIG1        0.0211
     19 C          -1.0580    1.8670    0.0000 C.3     1  LIG1        0.0964
     20 O          -2.4580    0.9080    0.0000 O.2     1  LIG1       -0.1528
     21 O          -1.0580   -0.5500    0.0000 O.2     1  LIG1       -0.1528
     22 C          -2.4880   -0.5250    0.0000 C.ar    1  LIG1        0.1222
     23 C          -2.2130   -1.4830    0.0000 C.ar    1  LIG1        0.0199
     24 C          -2.9290   -2.1960    0.0000 C.ar    1  LIG1        0.0014
     25 C          -3.8920   -1.9500    0.0000 C.ar    1  LIG1        0.0001
     26 C          -4.1670   -0.9880    0.0000 C.ar    1  LIG1        0.0014
     27 C          -3.4460   -0.2750    0.0000 C.ar    1  LIG1        0.0199
@<TRIPOS>BOND
     1     1     2    1
     2     1    20    2
     3     1    21    2
     4     1    22    1
     5     2     3    1
     6     2    19    1
     7     3     4    1
     8     3    17    1
     9     4     5   am
    10     4    16    2
    11     5     6    1
    12     6     7    1
    13     6    11    1
    14     6    14    1
    15     7     8    1
    16     8     9    1
    17     8    15    1
    18     9    10    1
    19    10    11    1
    20    10    12    1
    21    12    13    1
    22    13    14    1
    23    13    15    1
    24    17    18    1
    25    18    19    1
    26    22    23   ar
    27    22    27   ar
    28    23    24   ar
    29    24    25   ar
    30    25    26   ar
    31    26    27   ar
