@<TRIPOS>MOLECULE
34090_ChemDiv_8014-9945
 22 24 0 0 0
SMALL
GASTEIGER
Energy = 0

@<TRIPOS>ATOM
      1 S          -1.7170   -0.7880    0.0000 S.O2    1  LIG1        0.0768
      2 N          -2.7130   -0.7880    0.0000 N.3     1  LIG1       -0.0793
      3 C          -3.2080    0.0750    0.0000 C.3     1  LIG1        0.0977
      4 C          -2.7130    0.9330    0.0000 C.3     1  LIG1        0.0193
      5 C          -3.2080    1.8000    0.0000 C.3     1  LIG1        0.0015
      6 C          -4.2040    1.8000    0.0000 C.3     1  LIG1        0.0001
      7 C          -4.7040    0.9330    0.0000 C.3     1  LIG1        0.0015
      8 C          -4.2040    0.0750    0.0000 C.3     1  LIG1        0.0193
      9 C          -0.7210   -0.7880    0.0000 C.ar    1  LIG1        0.1235
     10 C          -0.2330    0.0830    0.0000 C.ar    1  LIG1        0.0196
     11 C           0.7750    0.0880    0.0000 C.ar    1  LIG1       -0.0028
     12 C           1.2710   -0.7880    0.0000 C.ar    1  LIG1       -0.0202
     13 C           2.2790   -0.7880    0.0000 C.3     1  LIG1        0.0532
     14 C           2.8710   -1.6040    0.0000 C.3     1  LIG1        0.0929
     15 C           3.8250   -1.2920    0.0000 C.2     1  LIG1        0.2418
     16 N           3.8250   -0.2880    0.0000 N.am    1  LIG1       -0.2051
     17 C           2.8710    0.0250    0.0000 C.3     1  LIG1        0.1199
     18 O           4.7000   -1.7960    0.0000 O.2     1  LIG1       -0.2733
     19 C           0.7750   -1.6500    0.0000 C.ar    1  LIG1       -0.0028
     20 C          -0.2210   -1.6500    0.0000 C.ar    1  LIG1        0.0196
     21 O          -1.7170   -1.7830    0.0000 O.2     1  LIG1       -0.1516
     22 O          -1.7170    0.2080    0.0000 O.2     1  LIG1       -0.1516
@<TRIPOS>BOND
     1     1     2    1
     2     1     9    1
     3     1    21    2
     4     1    22    2
     5     2     3    1
     6     3     4    1
     7     3     8    1
     8     4     5    1
     9     5     6    1
    10     6     7    1
    11     7     8    1
    12     9    10   ar
    13     9    20   ar
    14    10    11   ar
    15    11    12   ar
    16    12    13    1
    17    12    19   ar
    18    13    14    1
    19    13    17    1
    20    14    15    1
    21    15    16   am
    22    15    18    2
    23    16    17    1
    24    19    20   ar
