@<TRIPOS>MOLECULE
34092_ChemDiv_8015-0343
 21 23 0 0 0
SMALL
GASTEIGER
Energy = 0

@<TRIPOS>ATOM
      1 N           0.3710    0.3460    0.0000 N.am    1  LIG1       -0.1596
      2 S           1.2380   -0.1540    0.0000 S.O2    1  LIG1        0.0787
      3 O           1.7380    0.7080    0.0000 O.2     1  LIG1       -0.1497
      4 O           0.7380   -1.0250    0.0000 O.2     1  LIG1       -0.1497
      5 C           2.1040   -0.6580    0.0000 C.ar    1  LIG1        0.1255
      6 C           2.1040   -1.6580    0.0000 C.ar    1  LIG1        0.0202
      7 C           2.9710   -2.1540    0.0000 C.ar    1  LIG1        0.0014
      8 C           3.8380   -1.6580    0.0000 C.ar    1  LIG1        0.0001
      9 C           3.8380   -0.6580    0.0000 C.ar    1  LIG1        0.0014
     10 C           2.9710   -0.1540    0.0000 C.ar    1  LIG1        0.0202
     11 C           0.0630    1.2960    0.0000 C.2     1  LIG1        0.2445
     12 C          -0.9330    1.2960    0.0000 C.3     1  LIG1        0.0930
     13 C          -1.2460    0.3460    0.0000 C.3     1  LIG1        0.0532
     14 C          -0.4380   -0.2460    0.0000 C.3     1  LIG1        0.1235
     15 C          -2.1080   -0.1540    0.0000 C.ar    1  LIG1       -0.0203
     16 C          -2.9790    0.3460    0.0000 C.ar    1  LIG1       -0.0042
     17 C          -3.8420   -0.1540    0.0000 C.ar    1  LIG1       -0.0003
     18 C          -3.8420   -1.1540    0.0000 C.ar    1  LIG1       -0.0000
     19 C          -2.9790   -1.6580    0.0000 C.ar    1  LIG1       -0.0003
     20 C          -2.1080   -1.1540    0.0000 C.ar    1  LIG1       -0.0042
     21 O           0.5630    2.1580    0.0000 O.2     1  LIG1       -0.2733
@<TRIPOS>BOND
     1     1     2    1
     2     1    11   am
     3     1    14    1
     4     2     3    2
     5     2     4    2
     6     2     5    1
     7     5     6   ar
     8     5    10   ar
     9     6     7   ar
    10     7     8   ar
    11     8     9   ar
    12     9    10   ar
    13    11    12    1
    14    11    21    2
    15    12    13    1
    16    13    14    1
    17    13    15    1
    18    15    16   ar
    19    15    20   ar
    20    16    17   ar
    21    17    18   ar
    22    18    19   ar
    23    19    20   ar
