@<TRIPOS>MOLECULE
34094_ChemDiv_8015-0743
 25 27 0 0 0
SMALL
GASTEIGER
Energy = 0

@<TRIPOS>ATOM
      1 S          -0.2170   -0.3580    0.0000 S.O2    1  LIG1        0.0771
      2 N          -1.2130   -0.3580    0.0000 N.3     1  LIG1       -0.0729
      3 C          -1.7130    0.5040    0.0000 C.3     1  LIG1        0.1418
      4 C          -2.7080    0.5040    0.0000 C.ar    1  LIG1       -0.0027
      5 C          -3.2080   -0.3580    0.0000 C.ar    1  LIG1        0.0003
      6 C          -4.2040   -0.3580    0.0000 C.ar    1  LIG1        0.0366
      7 C          -4.7040    0.5040    0.0000 C.ar    1  LIG1        0.1387
      8 C          -4.2040    1.3670    0.0000 C.ar    1  LIG1        0.0366
      9 C          -3.2080    1.3670    0.0000 C.ar    1  LIG1        0.0003
     10 O          -5.7040    0.5040    0.0000 O.3     1  LIG1       -0.4714
     11 C          -6.2000    1.3670    0.0000 C.3     1  LIG1        0.2525
     12 C           0.7830   -0.3580    0.0000 C.ar    1  LIG1        0.1235
     13 C           1.2630    0.5170    0.0000 C.ar    1  LIG1        0.0196
     14 C           2.2710    0.5170    0.0000 C.ar    1  LIG1       -0.0028
     15 C           2.7670   -0.3580    0.0000 C.ar    1  LIG1       -0.0202
     16 C           3.7790   -0.3580    0.0000 C.3     1  LIG1        0.0532
     17 C           4.3670   -1.1710    0.0000 C.3     1  LIG1        0.0929
     18 C           5.3290   -0.8580    0.0000 C.2     1  LIG1        0.2418
     19 N           5.3290    0.1420    0.0000 N.am    1  LIG1       -0.2051
     20 C           4.3670    0.4540    0.0000 C.3     1  LIG1        0.1199
     21 O           6.2000   -1.3630    0.0000 O.2     1  LIG1       -0.2733
     22 C           2.2710   -1.2210    0.0000 C.ar    1  LIG1       -0.0028
     23 C           1.2750   -1.2210    0.0000 C.ar    1  LIG1        0.0196
     24 O          -0.2170    0.6380    0.0000 O.2     1  LIG1       -0.1516
     25 O          -0.2170   -1.3540    0.0000 O.2     1  LIG1       -0.1516
@<TRIPOS>BOND
     1     1     2    1
     2     1    12    1
     3     1    24    2
     4     1    25    2
     5     2     3    1
     6     3     4    1
     7     4     5   ar
     8     4     9   ar
     9     5     6   ar
    10     6     7   ar
    11     7     8   ar
    12     7    10    1
    13     8     9   ar
    14    10    11    1
    15    12    13   ar
    16    12    23   ar
    17    13    14   ar
    18    14    15   ar
    19    15    16    1
    20    15    22   ar
    21    16    17    1
    22    16    20    1
    23    17    18    1
    24    18    19   am
    25    18    21    2
    26    19    20    1
    27    22    23   ar
