@<TRIPOS>MOLECULE
34100_ChemDiv_8012-9733
 22 26 0 0 0
SMALL
GASTEIGER
Energy = 0

@<TRIPOS>ATOM
      1 N           0.2580   -0.4000    0.0000 N.ar    1  LIG1       -0.2715
      2 C          -0.2130   -1.2540    0.0000 C.ar    1  LIG1        0.1703
      3 N           0.2750   -2.0330    0.0000 N.ar    1  LIG1       -0.1283
      4 N           1.6710   -1.2210    0.0000 N.ar    1  LIG1       -0.1252
      5 C           1.2080   -0.4000    0.0000 C.ar    1  LIG1        0.2051
      6 C           1.6830    0.4130    0.0000 C.ar    1  LIG1        0.1815
      7 O           2.6170    0.4130    0.0000 O.2     1  LIG1       -0.4473
      8 C           3.0630    1.2250    0.0000 C.ar    1  LIG1        0.1798
      9 C           2.5580    2.0670    0.0000 C.ar    1  LIG1        0.0439
     10 C           1.2170    1.2250    0.0000 C.ar    1  LIG1        0.0439
     11 C          -1.1790   -1.2540    0.0000 C.ar    1  LIG1        0.0363
     12 C          -1.6500   -0.4330    0.0000 C.ar    1  LIG1        0.0044
     13 C          -1.2210    0.4290    0.0000 C.ar    1  LIG1        0.0163
     14 C          -0.2580    0.4290    0.0000 C.ar    1  LIG1        0.0668
     15 C           0.2330    1.2710    0.0000 C.ar    1  LIG1        0.0176
     16 C          -0.3000    2.0630    0.0000 C.ar    1  LIG1        0.0015
     17 C          -1.2380    2.0630    0.0000 C.ar    1  LIG1        0.0001
     18 C          -1.7040    1.2250    0.0000 C.ar    1  LIG1        0.0014
     19 C          -2.5880   -0.4330    0.0000 C.ar    1  LIG1        0.0001
     20 C          -3.0670   -1.2830    0.0000 C.ar    1  LIG1        0.0000
     21 C          -2.6130   -2.0630    0.0000 C.ar    1  LIG1        0.0001
     22 C          -1.6250   -2.0630    0.0000 C.ar    1  LIG1        0.0031
@<TRIPOS>BOND
     1     1     2   ar
     2     1     5   ar
     3     1    14   ar
     4     2     3   ar
     5     2    11   ar
     6     3     4   ar
     7     4     5   ar
     8     5     6    1
     9     6     7   ar
    10     6    10   ar
    11     7     8   ar
    12     8     9   ar
    13     9    10   ar
    14    11    12   ar
    15    11    22   ar
    16    12    13   ar
    17    12    19   ar
    18    13    14   ar
    19    13    18   ar
    20    14    15   ar
    21    15    16   ar
    22    16    17   ar
    23    17    18   ar
    24    19    20   ar
    25    20    21   ar
    26    21    22   ar
