@<TRIPOS>MOLECULE
34118_ChemDiv_8015-2405
 20 21 0 0 0
SMALL
GASTEIGER
Energy = 0

@<TRIPOS>ATOM
      1 S           1.9500    0.0000    0.0000 S.O2    1  LIG1        0.0633
      2 C           0.9500    0.0000    0.0000 C.ar    1  LIG1        0.1222
      3 C           0.4500   -0.8670    0.0000 C.ar    1  LIG1        0.0196
      4 C          -0.5500   -0.8670    0.0000 C.ar    1  LIG1       -0.0028
      5 C          -1.0460    0.0000    0.0000 C.ar    1  LIG1       -0.0202
      6 C          -2.0460    0.0000    0.0000 C.3     1  LIG1        0.0532
      7 C          -2.6380    0.8130    0.0000 C.3     1  LIG1        0.0929
      8 C          -3.5880    0.5000    0.0000 C.2     1  LIG1        0.2418
      9 N          -3.5880   -0.5000    0.0000 N.am    1  LIG1       -0.2051
     10 C          -2.6380   -0.8080    0.0000 C.3     1  LIG1        0.1199
     11 O          -4.4540    1.0000    0.0000 O.2     1  LIG1       -0.2733
     12 C          -0.5500    0.8670    0.0000 C.ar    1  LIG1       -0.0028
     13 C           0.4500    0.8670    0.0000 C.ar    1  LIG1        0.0196
     14 N           2.9500    0.0000    0.0000 N.3     1  LIG1       -0.1555
     15 C           3.4500    0.8670    0.0000 C.3     1  LIG1        0.0958
     16 C           4.4500    0.8670    0.0000 C.3     1  LIG1        0.0206
     17 C           3.4500   -0.8630    0.0000 C.3     1  LIG1        0.0958
     18 C           4.4500   -0.8630    0.0000 C.3     1  LIG1        0.0206
     19 O           1.9500   -0.9960    0.0000 O.2     1  LIG1       -0.1528
     20 O           1.9500    1.0000    0.0000 O.2     1  LIG1       -0.1528
@<TRIPOS>BOND
     1     1     2    1
     2     1    14    1
     3     1    19    2
     4     1    20    2
     5     2     3   ar
     6     2    13   ar
     7     3     4   ar
     8     4     5   ar
     9     5     6    1
    10     5    12   ar
    11     6     7    1
    12     6    10    1
    13     7     8    1
    14     8     9   am
    15     8    11    2
    16     9    10    1
    17    12    13   ar
    18    14    15    1
    19    14    17    1
    20    15    16    1
    21    17    18    1
