@<TRIPOS>MOLECULE
34110_ChemDiv_8012-9971
 20 23 0 0 0
SMALL
GASTEIGER
Energy = 0

@<TRIPOS>ATOM
      1 C           0.0000    0.2380    0.0000 C.ar    1  LIG1       -0.0165
      2 C           0.0000   -0.7670    0.0000 C.ar    1  LIG1        0.0511
      3 C           0.8630   -1.2420    0.0000 C.2     1  LIG1        0.2644
      4 N           1.7250   -0.7670    0.0000 N.am    1  LIG1       -0.2048
      5 C           1.7250    0.2380    0.0000 C.3     1  LIG1        0.0826
      6 C           0.8630    0.7710    0.0000 C.3     1  LIG1        0.0409
      7 C           0.8630    1.7750    0.0000 C.3     1  LIG1        0.0060
      8 C           1.7250    2.2540    0.0000 C.3     1  LIG1        0.0004
      9 C           2.5880    1.7750    0.0000 C.3     1  LIG1        0.0017
     10 C           2.5880    0.7710    0.0000 C.3     1  LIG1        0.0204
     11 C           2.5880   -0.2380    0.0000 C.3     1  LIG1        0.0221
     12 O           0.8630   -2.2500    0.0000 O.2     1  LIG1       -0.2684
     13 C          -0.8630   -1.2420    0.0000 C.ar    1  LIG1        0.0042
     14 C          -1.7250   -0.7670    0.0000 C.ar    1  LIG1        0.0001
     15 C          -1.7250    0.2380    0.0000 C.ar    1  LIG1       -0.0003
     16 C          -0.8630    0.7710    0.0000 C.ar    1  LIG1       -0.0038
     17 C          -0.8630    1.7750    0.0000 C.ar    1  LIG1       -0.0003
     18 C          -1.7250    2.2540    0.0000 C.ar    1  LIG1       -0.0000
     19 C          -2.5920    1.7750    0.0000 C.ar    1  LIG1       -0.0000
     20 C          -2.5920    0.7710    0.0000 C.ar    1  LIG1       -0.0000
@<TRIPOS>BOND
     1     1     2   ar
     2     1     6    1
     3     1    16   ar
     4     2     3    1
     5     2    13   ar
     6     3     4   am
     7     3    12    2
     8     4     5    1
     9     5     6    1
    10     5    10    1
    11     5    11    1
    12     6     7    1
    13     7     8    1
    14     8     9    1
    15     9    10    1
    16    13    14   ar
    17    14    15   ar
    18    15    16   ar
    19    15    20   ar
    20    16    17   ar
    21    17    18   ar
    22    18    19   ar
    23    19    20   ar
