@<TRIPOS>MOLECULE
34116_ChemDiv_8015-2399
 29 32 0 0 0
SMALL
GASTEIGER
Energy = 0

@<TRIPOS>ATOM
      1 S           0.9500   -1.2290    0.0000 S.O2    1  LIG1        0.0774
      2 N           1.9500   -1.2290    0.0000 N.3     1  LIG1       -0.0703
      3 C           2.4460   -0.3670    0.0000 C.3     1  LIG1        0.1421
      4 C           1.9500    0.5000    0.0000 C.ar    1  LIG1       -0.0005
      5 C           2.4460    1.3670    0.0000 C.ar    1  LIG1       -0.0025
      6 C           1.9500    2.2380    0.0000 C.ar    1  LIG1       -0.0003
      7 C           0.9500    2.2290    0.0000 C.ar    1  LIG1       -0.0000
      8 C           0.4500    1.3670    0.0000 C.ar    1  LIG1       -0.0003
      9 C           0.9500    0.5000    0.0000 C.ar    1  LIG1       -0.0025
     10 C           3.4500   -0.3670    0.0000 C.ar    1  LIG1       -0.0005
     11 C           3.9500    0.5000    0.0000 C.ar    1  LIG1       -0.0025
     12 C           4.9500    0.5000    0.0000 C.ar    1  LIG1       -0.0003
     13 C           5.4500   -0.3670    0.0000 C.ar    1  LIG1       -0.0000
     14 C           4.9500   -1.2330    0.0000 C.ar    1  LIG1       -0.0003
     15 C           3.9500   -1.2330    0.0000 C.ar    1  LIG1       -0.0025
     16 C          -0.0540   -1.2290    0.0000 C.ar    1  LIG1        0.1236
     17 C          -0.5500   -0.3670    0.0000 C.ar    1  LIG1        0.0196
     18 C          -1.5500   -0.3670    0.0000 C.ar    1  LIG1       -0.0028
     19 C          -2.0500   -1.2290    0.0000 C.ar    1  LIG1       -0.0202
     20 C          -3.0500   -1.2290    0.0000 C.3     1  LIG1        0.0532
     21 C          -3.6380   -0.4210    0.0000 C.3     1  LIG1        0.0929
     22 C          -4.5920   -0.7330    0.0000 C.2     1  LIG1        0.2418
     23 N          -4.5920   -1.7330    0.0000 N.am    1  LIG1       -0.2051
     24 C          -3.6380   -2.0420    0.0000 C.3     1  LIG1        0.1199
     25 O          -5.4540   -0.2330    0.0000 O.2     1  LIG1       -0.2733
     26 C          -1.5500   -2.1000    0.0000 C.ar    1  LIG1       -0.0028
     27 C          -0.5500   -2.1000    0.0000 C.ar    1  LIG1        0.0196
     28 O           0.9500   -2.2330    0.0000 O.2     1  LIG1       -0.1516
     29 O           0.9500   -0.2330    0.0000 O.2     1  LIG1       -0.1516
@<TRIPOS>BOND
     1     1     2    1
     2     1    16    1
     3     1    28    2
     4     1    29    2
     5     2     3    1
     6     3     4    1
     7     3    10    1
     8     4     5   ar
     9     4     9   ar
    10     5     6   ar
    11     6     7   ar
    12     7     8   ar
    13     8     9   ar
    14    10    11   ar
    15    10    15   ar
    16    11    12   ar
    17    12    13   ar
    18    13    14   ar
    19    14    15   ar
    20    16    17   ar
    21    16    27   ar
    22    17    18   ar
    23    18    19   ar
    24    19    20    1
    25    19    26   ar
    26    20    21    1
    27    20    24    1
    28    21    22    1
    29    22    23   am
    30    22    25    2
    31    23    24    1
    32    26    27   ar
