@<TRIPOS>MOLECULE
34113_ChemDiv_8016-5631
 31 36 0 0 0
SMALL
GASTEIGER
Energy = 0

@<TRIPOS>ATOM
      1 S          -0.3670   -0.3790    0.0000 S.O2    1  LIG1        0.0637
      2 N          -0.3670    0.6170    0.0000 N.3     1  LIG1       -0.1481
      3 C           0.4330    1.2080    0.0000 C.3     1  LIG1        0.1571
      4 C           1.3920    0.9080    0.0000 C.2     1  LIG1        0.2575
      5 N           2.1250    1.5790    0.0000 N.am    1  LIG1       -0.2060
      6 C           3.0790    1.2790    0.0000 C.3     1  LIG1        0.0952
      7 C           3.9540    1.5920    0.0000 C.3     1  LIG1        0.0200
      8 C           4.8540    1.2170    0.0000 C.3     1  LIG1        0.0017
      9 C           4.8500    0.2290    0.0000 C.3     1  LIG1        0.0001
     10 C           3.9420    0.0080    0.0000 C.3     1  LIG1        0.0017
     11 C           3.0880    0.3250    0.0000 C.3     1  LIG1        0.0200
     12 C           2.3130   -0.5040    0.0000 C.3     1  LIG1        0.0017
     13 C           3.2790   -0.2290    0.0000 C.3     1  LIG1        0.0001
     14 C           3.2790    0.7920    0.0000 C.3     1  LIG1        0.0017
     15 C           4.1920   -0.5920    0.0000 C.3     1  LIG1        0.0000
     16 O           1.6040   -0.0670    0.0000 O.2     1  LIG1       -0.2718
     17 C           0.1130    2.1580    0.0000 C.3     1  LIG1        0.0286
     18 C          -0.8830    2.1540    0.0000 C.3     1  LIG1        0.0211
     19 C          -1.1920    1.1960    0.0000 C.3     1  LIG1        0.0964
     20 C          -1.3670   -0.3920    0.0000 C.ar    1  LIG1        0.1222
     21 C          -1.8540   -1.2670    0.0000 C.ar    1  LIG1        0.0199
     22 C          -2.8540   -1.2750    0.0000 C.ar    1  LIG1        0.0013
     23 C          -3.3670   -0.4130    0.0000 C.ar    1  LIG1        0.0001
     24 C          -2.8670    0.4540    0.0000 C.ar    1  LIG1        0.0014
     25 C          -1.8670    0.4670    0.0000 C.ar    1  LIG1        0.0199
     26 C          -4.3670   -0.4170    0.0000 C.ar    1  LIG1        0.0000
     27 C          -4.8580   -1.2920    0.0000 C.ar    1  LIG1        0.0000
     28 C          -4.3460   -2.1540    0.0000 C.ar    1  LIG1        0.0000
     29 C          -3.3460   -2.1500    0.0000 C.ar    1  LIG1        0.0000
     30 O          -0.3540   -1.3920    0.0000 O.2     1  LIG1       -0.1528
     31 O           0.6420   -0.3750    0.0000 O.2     1  LIG1       -0.1528
@<TRIPOS>BOND
     1     1     2    1
     2     1    20    1
     3     1    30    2
     4     1    31    2
     5     2     3    1
     6     2    19    1
     7     3     4    1
     8     3    17    1
     9     4     5   am
    10     4    16    2
    11     5     6    1
    12     6     7    1
    13     6    11    1
    14     7     8    1
    15     7    14    1
    16     8     9    1
    17     9    10    1
    18     9    15    1
    19    10    11    1
    20    11    12    1
    21    12    13    1
    22    13    14    1
    23    13    15    1
    24    17    18    1
    25    18    19    1
    26    20    21   ar
    27    20    25   ar
    28    21    22   ar
    29    22    23   ar
    30    22    29   ar
    31    23    24   ar
    32    23    26   ar
    33    24    25   ar
    34    26    27   ar
    35    27    28   ar
    36    28    29   ar
