@<TRIPOS>MOLECULE
34117_ChemDiv_8012-6106
 30 34 0 0 0
SMALL
GASTEIGER
Energy = 0

@<TRIPOS>ATOM
      1 N          -1.3000   -0.6250    0.0000 N.am    1  LIG1       -0.2031
      2 C          -0.9750    0.3130    0.0000 C.2     1  LIG1        0.2419
      3 C           0.0130    0.3130    0.0000 C.3     1  LIG1        0.1581
      4 C           0.3330   -0.6170    0.0000 C.3     1  LIG1        0.2305
      5 C          -0.4750   -1.2250    0.0000 C.2     1  LIG1        0.2927
      6 O          -0.4750   -2.1880    0.0000 O.2     1  LIG1       -0.2677
      7 N           1.3170   -0.8960    0.0000 N.4     1  LIG1        0.4509
      8 C           2.0670   -0.1710    0.0000 C.3     1  LIG1        0.2010
      9 C           3.0670   -0.4500    0.0000 C.3     1  LIG1        0.0689
     10 C           3.7710    0.2330    0.0000 C.3     1  LIG1        0.0059
     11 C           4.3130    0.9830    0.0000 C.3     1  LIG1        0.0002
     12 C           5.2830    1.1670    0.0000 C.3     1  LIG1        0.0000
     13 C           5.1630    2.1920    0.0000 C.3     1  LIG1        0.0000
     14 C           4.7000    1.4460    0.0000 C.3     1  LIG1        0.0000
     15 C           3.7500    1.2880    0.0000 C.3     1  LIG1        0.0002
     16 C           5.2960    0.5830    0.0000 C.3     1  LIG1        0.0000
     17 C           5.3960   -0.4380    0.0000 C.3     1  LIG1        0.0000
     18 C           4.3130   -0.5580    0.0000 C.3     1  LIG1        0.0002
     19 C           5.8750    0.3250    0.0000 C.3     1  LIG1        0.0000
     20 O          -1.5460    1.1830    0.0000 O.2     1  LIG1       -0.2739
     21 C          -2.2380   -0.8960    0.0000 C.ar    1  LIG1        0.0610
     22 C          -2.9670   -0.2000    0.0000 C.ar    1  LIG1        0.0184
     23 C          -3.9420   -0.4960    0.0000 C.ar    1  LIG1        0.0382
     24 C          -4.1750   -1.4790    0.0000 C.ar    1  LIG1        0.1386
     25 C          -3.4580   -2.1580    0.0000 C.ar    1  LIG1        0.0382
     26 C          -2.4830   -1.8710    0.0000 C.ar    1  LIG1        0.0184
     27 O          -5.1580   -1.7580    0.0000 O.3     1  LIG1       -0.4755
     28 C          -5.8790   -1.0960    0.0000 C.3     1  LIG1        0.2054
     29 C          -5.6790   -0.1250    0.0000 C.3     1  LIG1        0.0473
     30 C          -4.7250    0.1750    0.0000 C.3     1  LIG1        0.0040
@<TRIPOS>BOND
     1     1     2   am
     2     1     5   am
     3     1    21    1
     4     2     3    1
     5     2    20    2
     6     3     4    1
     7     4     5    1
     8     4     7    1
     9     5     6    2
    10     7     8    1
    11     8     9    1
    12     9    10    1
    13    10    11    1
    14    10    15    1
    15    10    18    1
    16    11    12    1
    17    12    13    1
    18    12    19    1
    19    13    14    1
    20    14    15    1
    21    14    16    1
    22    16    17    1
    23    17    18    1
    24    17    19    1
    25    21    22   ar
    26    21    26   ar
    27    22    23   ar
    28    23    24   ar
    29    24    25   ar
    30    24    27    1
    31    25    26   ar
    32    27    28    1
    33    28    29    1
    34    29    30    1
