@<TRIPOS>MOLECULE
34114_ChemDiv_8015-2396
 21 23 0 0 0
SMALL
GASTEIGER
Energy = 0

@<TRIPOS>ATOM
      1 S           1.7000    0.0000    0.0000 S.O2    1  LIG1        0.0634
      2 N           2.7000    0.0000    0.0000 N.3     1  LIG1       -0.1504
      3 C           3.1960   -0.8630    0.0000 C.3     1  LIG1        0.1279
      4 C           4.2000   -0.8630    0.0000 C.3     1  LIG1        0.1613
      5 O           4.7000    0.0000    0.0000 O.3     1  LIG1       -0.3507
      6 C           4.2000    0.8710    0.0000 C.3     1  LIG1        0.1613
      7 C           3.1960    0.8710    0.0000 C.3     1  LIG1        0.1279
      8 C           0.6960    0.0000    0.0000 C.ar    1  LIG1        0.1222
      9 C           0.2000   -0.8630    0.0000 C.ar    1  LIG1        0.0196
     10 C          -0.8000   -0.8630    0.0000 C.ar    1  LIG1       -0.0028
     11 C          -1.3000    0.0000    0.0000 C.ar    1  LIG1       -0.0202
     12 C          -2.3000    0.0000    0.0000 C.3     1  LIG1        0.0532
     13 C          -2.8880    0.8130    0.0000 C.3     1  LIG1        0.0929
     14 C          -3.8380    0.5000    0.0000 C.2     1  LIG1        0.2418
     15 N          -3.8380   -0.4960    0.0000 N.am    1  LIG1       -0.2051
     16 C          -2.8880   -0.8080    0.0000 C.3     1  LIG1        0.1199
     17 O          -4.7040    1.0040    0.0000 O.2     1  LIG1       -0.2733
     18 C          -0.8000    0.8710    0.0000 C.ar    1  LIG1       -0.0028
     19 C           0.2000    0.8710    0.0000 C.ar    1  LIG1        0.0196
     20 O           1.7000    1.0040    0.0000 O.2     1  LIG1       -0.1528
     21 O           1.7000   -1.0000    0.0000 O.2     1  LIG1       -0.1528
@<TRIPOS>BOND
     1     1     2    1
     2     1     8    1
     3     1    20    2
     4     1    21    2
     5     2     3    1
     6     2     7    1
     7     3     4    1
     8     4     5    1
     9     5     6    1
    10     6     7    1
    11     8     9   ar
    12     8    19   ar
    13     9    10   ar
    14    10    11   ar
    15    11    12    1
    16    11    18   ar
    17    12    13    1
    18    12    16    1
    19    13    14    1
    20    14    15   am
    21    14    17    2
    22    15    16    1
    23    18    19   ar
