@<TRIPOS>MOLECULE
34112_ChemDiv_8012-9980
 23 24 0 0 0
SMALL
GASTEIGER
Energy = 0

@<TRIPOS>ATOM
      1 C          -0.1330   -0.9290    0.0000 C.3     1  LIG1        0.2054
      2 C           0.8670   -0.9330    0.0000 C.3     1  LIG1        0.1921
      3 C           0.3670   -0.0710    0.0000 C.3     1  LIG1        0.0686
      4 C           0.3670    0.9330    0.0000 C.ar    1  LIG1       -0.0198
      5 C          -0.4960    1.4380    0.0000 C.ar    1  LIG1       -0.0042
      6 C          -0.4960    2.4380    0.0000 C.ar    1  LIG1       -0.0003
      7 C           0.3710    2.9420    0.0000 C.ar    1  LIG1       -0.0000
      8 C           1.2330    2.4380    0.0000 C.ar    1  LIG1       -0.0003
      9 C           1.2420    1.4380    0.0000 C.ar    1  LIG1       -0.0042
     10 C           1.7380   -1.4330    0.0000 C.2     1  LIG1        0.3309
     11 O           2.6000   -0.9330    0.0000 O.2     1  LIG1       -0.2490
     12 O           1.7290   -2.4420    0.0000 O.3     1  LIG1       -0.4437
     13 C           2.5920   -2.9380    0.0000 C.3     1  LIG1        0.2556
     14 C           1.5170   -0.1630    0.0000 C.1     1  LIG1        0.0834
     15 N           2.1540    0.6040    0.0000 N.1     1  LIG1       -0.1953
     16 C          -0.8920   -1.5750    0.0000 C.2     1  LIG1        0.3283
     17 O          -0.7170   -2.5540    0.0000 O.2     1  LIG1       -0.2495
     18 O          -1.8380   -1.2290    0.0000 O.3     1  LIG1       -0.4440
     19 C          -2.6040   -1.8710    0.0000 C.3     1  LIG1        0.2556
     20 C          -0.9040   -0.2880    0.0000 C.2     1  LIG1        0.3283
     21 O          -1.8330   -0.6380    0.0000 O.2     1  LIG1       -0.2495
     22 O          -0.7380    0.6960    0.0000 O.3     1  LIG1       -0.4440
     23 C          -1.5040    1.3290    0.0000 C.3     1  LIG1        0.2556
@<TRIPOS>BOND
     1     1     2    1
     2     1     3    1
     3     1    16    1
     4     1    20    1
     5     2     3    1
     6     2    10    1
     7     2    14    1
     8     3     4    1
     9     4     5   ar
    10     4     9   ar
    11     5     6   ar
    12     6     7   ar
    13     7     8   ar
    14     8     9   ar
    15    10    11    2
    16    10    12    1
    17    12    13    1
    18    14    15    3
    19    16    17    2
    20    16    18    1
    21    18    19    1
    22    20    21    2
    23    20    22    1
    24    22    23    1
