@<TRIPOS>MOLECULE
34119_ChemDiv_8012-6107
 31 35 0 0 0
SMALL
GASTEIGER
Energy = 0

@<TRIPOS>ATOM
      1 N          -1.1920   -0.6960    0.0000 N.am    1  LIG1       -0.2031
      2 C          -0.8710    0.2420    0.0000 C.2     1  LIG1        0.2419
      3 C           0.1170    0.2420    0.0000 C.3     1  LIG1        0.1581
      4 C           0.4380   -0.6830    0.0000 C.3     1  LIG1        0.2306
      5 C          -0.3670   -1.2880    0.0000 C.2     1  LIG1        0.2927
      6 O          -0.3670   -2.2460    0.0000 O.2     1  LIG1       -0.2677
      7 N           1.4210   -0.9630    0.0000 N.4     1  LIG1        0.4530
      8 C           2.1460   -0.3080    0.0000 C.3     1  LIG1        0.2336
      9 C           1.9710    0.6630    0.0000 C.3     1  LIG1        0.2107
     10 O           2.7170    1.3000    0.0000 O.3     1  LIG1       -0.3522
     11 C           3.6540    0.9670    0.0000 C.3     1  LIG1        0.0930
     12 C           4.4750    0.4920    0.0000 C.3     1  LIG1        0.0272
     13 C           5.4330    0.7290    0.0000 C.3     1  LIG1        0.0023
     14 C           5.7460   -0.2750    0.0000 C.3     1  LIG1        0.0002
     15 C           5.0210    0.2540    0.0000 C.3     1  LIG1        0.0023
     16 C           4.0630   -0.0250    0.0000 C.3     1  LIG1        0.0272
     17 C           5.2000    1.2670    0.0000 C.3     1  LIG1        0.0002
     18 C           4.8750    2.2500    0.0000 C.3     1  LIG1        0.0023
     19 C           3.8130    1.9040    0.0000 C.3     1  LIG1        0.0272
     20 C           5.6250    1.7380    0.0000 C.3     1  LIG1        0.0002
     21 O          -1.4420    1.1130    0.0000 O.2     1  LIG1       -0.2739
     22 C          -2.1290   -0.9630    0.0000 C.ar    1  LIG1        0.0610
     23 C          -2.8580   -0.2750    0.0000 C.ar    1  LIG1        0.0184
     24 C          -3.8330   -0.5630    0.0000 C.ar    1  LIG1        0.0382
     25 C          -4.0630   -1.5460    0.0000 C.ar    1  LIG1        0.1386
     26 C          -3.3460   -2.2290    0.0000 C.ar    1  LIG1        0.0382
     27 C          -2.3790   -1.9330    0.0000 C.ar    1  LIG1        0.0184
     28 O          -5.0460   -1.8250    0.0000 O.3     1  LIG1       -0.4755
     29 C          -5.7500   -1.1210    0.0000 C.3     1  LIG1        0.2054
     30 C          -5.4960   -0.1460    0.0000 C.3     1  LIG1        0.0473
     31 C          -4.5080    0.0630    0.0000 C.3     1  LIG1        0.0040
@<TRIPOS>BOND
     1     1     2   am
     2     1     5   am
     3     1    22    1
     4     2     3    1
     5     2    21    2
     6     3     4    1
     7     4     5    1
     8     4     7    1
     9     5     6    2
    10     7     8    1
    11     8     9    1
    12     9    10    1
    13    10    11    1
    14    11    12    1
    15    11    16    1
    16    11    19    1
    17    12    13    1
    18    13    14    1
    19    13    20    1
    20    14    15    1
    21    15    16    1
    22    15    17    1
    23    17    18    1
    24    18    19    1
    25    18    20    1
    26    22    23   ar
    27    22    27   ar
    28    23    24   ar
    29    24    25   ar
    30    25    26   ar
    31    25    28    1
    32    26    27   ar
    33    28    29    1
    34    29    30    1
    35    30    31    1
