@<TRIPOS>MOLECULE
34122_ChemDiv_8017-8483
 26 29 0 0 0
SMALL
GASTEIGER
Energy = 0

@<TRIPOS>ATOM
      1 S           0.8420    1.2000    0.0000 S.O2    1  LIG1       -0.0578
      2 N           1.8380    1.2210    0.0000 N.pl3   1  LIG1       -0.5358
      3 C           2.3540    0.3710    0.0000 C.ar    1  LIG1       -0.1127
      4 C           3.3420    0.4000    0.0000 C.ar    1  LIG1       -0.0284
      5 C           3.8630   -0.4500    0.0000 C.ar    1  LIG1       -0.0279
      6 C           3.3790   -1.3290    0.0000 C.ar    1  LIG1       -0.0263
      7 C           2.3790   -1.3540    0.0000 C.ar    1  LIG1       -0.0064
      8 C           1.8670   -0.5040    0.0000 C.ar    1  LIG1       -0.0242
      9 C           3.9000   -2.1920    0.0000 C.3     1  LIG1        0.0260
     10 C           4.9040   -2.1670    0.0000 C.3     1  LIG1        0.0050
     11 C           5.3920   -1.2880    0.0000 C.3     1  LIG1        0.0050
     12 C           4.8670   -0.4250    0.0000 C.3     1  LIG1        0.0260
     13 C          -0.1580    1.1830    0.0000 C.ar    1  LIG1        0.0893
     14 C          -0.6710    2.0460    0.0000 C.ar    1  LIG1        0.0166
     15 C          -1.6710    2.0210    0.0000 C.ar    1  LIG1       -0.0029
     16 C          -2.1580    1.1460    0.0000 C.ar    1  LIG1       -0.0202
     17 C          -3.1580    1.1330    0.0000 C.3     1  LIG1        0.0532
     18 C          -3.7330    0.3130    0.0000 C.3     1  LIG1        0.0929
     19 C          -4.6830    0.6080    0.0000 C.2     1  LIG1        0.2418
     20 N          -4.7040    1.6080    0.0000 N.am    1  LIG1       -0.2051
     21 C          -3.7580    1.9330    0.0000 C.3     1  LIG1        0.1199
     22 O          -5.3960   -0.0920    0.0000 O.2     1  LIG1       -0.2733
     23 C          -1.6380    0.2880    0.0000 C.ar    1  LIG1       -0.0029
     24 C          -0.6380    0.3080    0.0000 C.ar    1  LIG1        0.0166
     25 O           0.8290    2.1960    0.0000 O.2     1  LIG1       -0.1842
     26 O           0.8540    0.1960    0.0000 O.2     1  LIG1       -0.1842
@<TRIPOS>BOND
     1     1     2    1
     2     1    13    1
     3     1    25    2
     4     1    26    2
     5     2     3    1
     6     3     4   ar
     7     3     8   ar
     8     4     5   ar
     9     5     6   ar
    10     5    12    1
    11     6     7   ar
    12     6     9    1
    13     7     8   ar
    14     9    10    1
    15    10    11    1
    16    11    12    1
    17    13    14   ar
    18    13    24   ar
    19    14    15   ar
    20    15    16   ar
    21    16    17    1
    22    16    23   ar
    23    17    18    1
    24    17    21    1
    25    18    19    1
    26    19    20   am
    27    19    22    2
    28    20    21    1
    29    23    24   ar
