@<TRIPOS>MOLECULE
34120_ChemDiv_8017-7509
 25 27 0 0 0
SMALL
GASTEIGER
Energy = 0

@<TRIPOS>ATOM
      1 S          -3.8130    0.8500    0.0000 S.O2    1  LIG1        0.0634
      2 C          -2.9380    0.3460    0.0000 C.ar    1  LIG1        0.1222
      3 C          -2.0630    0.8500    0.0000 C.ar    1  LIG1        0.0201
      4 C          -1.1830    0.3500    0.0000 C.ar    1  LIG1        0.0059
      5 C          -1.1830   -0.6670    0.0000 C.ar    1  LIG1        0.0537
      6 C          -0.3000   -1.1790    0.0000 C.2     1  LIG1        0.2490
      7 N           0.5790   -0.6670    0.0000 N.am    1  LIG1       -0.2757
      8 C           1.4580   -1.1750    0.0000 C.3     1  LIG1        0.0980
      9 C           2.2170   -0.4920    0.0000 C.3     1  LIG1        0.0439
     10 C           1.8040    0.4330    0.0000 C.3     1  LIG1        0.0276
     11 C           0.7920    0.3330    0.0000 C.3     1  LIG1        0.0941
     12 C           3.2080   -0.7040    0.0000 C.ar    1  LIG1       -0.0208
     13 C           3.5210   -1.6670    0.0000 C.ar    1  LIG1       -0.0042
     14 C           4.5080   -1.8790    0.0000 C.ar    1  LIG1       -0.0003
     15 C           5.1830   -1.1250    0.0000 C.ar    1  LIG1       -0.0000
     16 C           4.8710   -0.1540    0.0000 C.ar    1  LIG1       -0.0003
     17 C           3.8790    0.0460    0.0000 C.ar    1  LIG1       -0.0042
     18 O          -0.3000   -2.1920    0.0000 O.2     1  LIG1       -0.2699
     19 C          -2.0580   -1.1790    0.0000 C.ar    1  LIG1        0.0059
     20 C          -2.9380   -0.6670    0.0000 C.ar    1  LIG1        0.0201
     21 N          -4.4130    1.4080    0.0000 N.3     1  LIG1       -0.1526
     22 C          -4.2330    2.1960    0.0000 C.3     1  LIG1        0.1150
     23 C          -5.1880    1.1630    0.0000 C.3     1  LIG1        0.1150
     24 O          -4.6080   -0.0500    0.0000 O.2     1  LIG1       -0.1528
     25 O          -3.1210    1.6080    0.0000 O.2     1  LIG1       -0.1528
@<TRIPOS>BOND
     1     1     2    1
     2     1    21    1
     3     1    24    2
     4     1    25    2
     5     2     3   ar
     6     2    20   ar
     7     3     4   ar
     8     4     5   ar
     9     5     6    1
    10     5    19   ar
    11     6     7   am
    12     6    18    2
    13     7     8    1
    14     7    11    1
    15     8     9    1
    16     9    10    1
    17     9    12    1
    18    10    11    1
    19    12    13   ar
    20    12    17   ar
    21    13    14   ar
    22    14    15   ar
    23    15    16   ar
    24    16    17   ar
    25    19    20   ar
    26    21    22    1
    27    21    23    1
