@<TRIPOS>MOLECULE
34126_ChemDiv_8013-3157
 24 27 0 0 0
SMALL
GASTEIGER
Energy = 0

@<TRIPOS>ATOM
      1 C          -0.8500    1.4540    0.0000 C.ar    1  LIG1        0.1577
      2 C          -0.8500    0.5540    0.0000 C.ar    1  LIG1        0.1713
      3 N          -0.0580    0.1040    0.0000 N.ar    1  LIG1       -0.1930
      4 C           0.7250    0.5540    0.0000 C.ar    1  LIG1        0.2232
      5 N           0.7250    1.4540    0.0000 N.ar    1  LIG1       -0.2682
      6 C           2.2920    1.4540    0.0000 C.ar    1  LIG1        0.0961
      7 C           2.2920    0.5540    0.0000 C.ar    1  LIG1        0.0620
      8 N           1.5250    0.0960    0.0000 N.ar    1  LIG1       -0.2799
      9 C           1.5250   -0.8580    0.0000 C.ar    1  LIG1        0.0661
     10 C           2.4210   -1.4040    0.0000 C.ar    1  LIG1        0.0133
     11 C           2.4210   -2.3710    0.0000 C.ar    1  LIG1       -0.0204
     12 C           1.5330   -2.8920    0.0000 C.ar    1  LIG1       -0.0042
     13 C           0.6830   -2.3790    0.0000 C.ar    1  LIG1        0.0012
     14 C           0.6830   -1.4080    0.0000 C.ar    1  LIG1        0.0176
     15 C           3.3040   -2.8130    0.0000 C.3     1  LIG1        0.0311
     16 C           3.1960    0.0420    0.0000 C.3     1  LIG1        0.0521
     17 N          -1.6380    0.1040    0.0000 N.ar    1  LIG1       -0.2628
     18 C          -2.4330    0.5540    0.0000 C.ar    1  LIG1        0.3350
     19 N          -2.4330    1.4540    0.0000 N.ar    1  LIG1       -0.2454
     20 C          -1.6380    1.9040    0.0000 C.ar    1  LIG1        0.2835
     21 O          -1.6380    2.8960    0.0000 O.2     1  LIG1       -0.2651
     22 C          -3.3080    1.9460    0.0000 C.3     1  LIG1        0.1383
     23 O          -3.3080    0.0670    0.0000 O.2     1  LIG1       -0.2461
     24 C          -1.6380   -0.8920    0.0000 C.3     1  LIG1        0.1366
@<TRIPOS>BOND
     1     1     2   ar
     2     1     5   ar
     3     1    20   ar
     4     2     3   ar
     5     2    17   ar
     6     3     4   ar
     7     4     5   ar
     8     4     8   ar
     9     5     6   ar
    10     6     7   ar
    11     7     8   ar
    12     7    16    1
    13     8     9    1
    14     9    10   ar
    15     9    14   ar
    16    10    11   ar
    17    11    12   ar
    18    11    15    1
    19    12    13   ar
    20    13    14   ar
    21    17    18   ar
    22    17    24    1
    23    18    19   ar
    24    18    23    2
    25    19    20   ar
    26    19    22    1
    27    20    21    2
