@<TRIPOS>MOLECULE
34124_ChemDiv_8017-8484
 34 37 0 0 0
SMALL
GASTEIGER
Energy = 0

@<TRIPOS>ATOM
      1 S          -0.5500   -0.5580    0.0000 S.O2    1  LIG1       -0.0578
      2 N           0.4630   -0.5420    0.0000 N.pl3   1  LIG1       -0.5357
      3 C           0.9790   -1.3960    0.0000 C.ar    1  LIG1       -0.1078
      4 C           1.9790   -1.3710    0.0000 C.ar    1  LIG1        0.0330
      5 C           2.4630   -0.4830    0.0000 C.2     1  LIG1        0.2631
      6 O           3.4670   -0.4580    0.0000 O.2     1  LIG1       -0.2684
      7 N           1.9380    0.3710    0.0000 N.am    1  LIG1       -0.1977
      8 C           2.4130    1.2540    0.0000 C.3     1  LIG1        0.1626
      9 C           3.4170    1.2830    0.0000 C.3     1  LIG1        0.2287
     10 O           3.8920    2.1670    0.0000 O.3     1  LIG1       -0.4735
     11 C           4.8670    2.2170    0.0000 C.ar    1  LIG1        0.1386
     12 C           5.3920    1.3920    0.0000 C.ar    1  LIG1        0.0369
     13 C           6.3670    1.4420    0.0000 C.ar    1  LIG1        0.0031
     14 C           6.8170    2.3080    0.0000 C.ar    1  LIG1        0.0002
     15 C           6.2790    3.1380    0.0000 C.ar    1  LIG1        0.0031
     16 C           5.3040    3.0790    0.0000 C.ar    1  LIG1        0.0369
     17 C           2.5040   -2.2210    0.0000 C.ar    1  LIG1        0.0027
     18 C           2.0170   -3.1080    0.0000 C.ar    1  LIG1        0.0000
     19 C           1.0170   -3.1330    0.0000 C.ar    1  LIG1       -0.0019
     20 C           0.4920   -2.2710    0.0000 C.ar    1  LIG1       -0.0237
     21 C          -1.5500   -0.5830    0.0000 C.ar    1  LIG1        0.0893
     22 C          -2.0670    0.2830    0.0000 C.ar    1  LIG1        0.0166
     23 C          -3.0750    0.2670    0.0000 C.ar    1  LIG1       -0.0029
     24 C          -3.5670   -0.6170    0.0000 C.ar    1  LIG1       -0.0202
     25 C          -4.5750   -0.6290    0.0000 C.3     1  LIG1        0.0532
     26 C          -5.1500   -1.4540    0.0000 C.3     1  LIG1        0.0929
     27 C          -6.0960   -1.1580    0.0000 C.2     1  LIG1        0.2418
     28 N          -6.1170   -0.1580    0.0000 N.am    1  LIG1       -0.2051
     29 C          -5.1750    0.1710    0.0000 C.3     1  LIG1        0.1199
     30 O          -6.8170   -1.8710    0.0000 O.2     1  LIG1       -0.2733
     31 C          -3.0420   -1.4830    0.0000 C.ar    1  LIG1       -0.0029
     32 C          -2.0380   -1.4670    0.0000 C.ar    1  LIG1        0.0166
     33 O          -0.5330   -1.5710    0.0000 O.2     1  LIG1       -0.1842
     34 O          -0.5540    0.4420    0.0000 O.2     1  LIG1       -0.1842
@<TRIPOS>BOND
     1     1     2    1
     2     1    21    1
     3     1    33    2
     4     1    34    2
     5     2     3    1
     6     3     4   ar
     7     3    20   ar
     8     4     5    1
     9     4    17   ar
    10     5     6    2
    11     5     7   am
    12     7     8    1
    13     8     9    1
    14     9    10    1
    15    10    11    1
    16    11    12   ar
    17    11    16   ar
    18    12    13   ar
    19    13    14   ar
    20    14    15   ar
    21    15    16   ar
    22    17    18   ar
    23    18    19   ar
    24    19    20   ar
    25    21    22   ar
    26    21    32   ar
    27    22    23   ar
    28    23    24   ar
    29    24    25    1
    30    24    31   ar
    31    25    26    1
    32    25    29    1
    33    26    27    1
    34    27    28   am
    35    27    30    2
    36    28    29    1
    37    31    32   ar
