@<TRIPOS>MOLECULE
34125_ChemDiv_8012-6157
 27 29 0 0 0
SMALL
GASTEIGER
Energy = 0

@<TRIPOS>ATOM
      1 S           1.3040   -0.8580    0.0000 S.O2    1  LIG1        0.0768
      2 C           2.0130   -0.1750    0.0000 C.ar    1  LIG1        0.1236
      3 C           1.7880    0.8130    0.0000 C.ar    1  LIG1        0.0213
      4 C           2.5210    1.5000    0.0000 C.ar    1  LIG1        0.0180
      5 C           3.4750    1.2290    0.0000 C.ar    1  LIG1        0.0734
      6 N           4.1880    1.8920    0.0000 N.am    1  LIG1       -0.1792
      7 C           5.1380    1.6170    0.0000 C.2     1  LIG1        0.2461
      8 O           5.8080    2.3290    0.0000 O.2     1  LIG1       -0.2730
      9 C           5.3960    0.6540    0.0000 C.3     1  LIG1        0.0968
     10 C           3.6920    0.2330    0.0000 C.ar    1  LIG1        0.0180
     11 C           2.9630   -0.4460    0.0000 C.ar    1  LIG1        0.0213
     12 O           2.0130   -1.5710    0.0000 O.2     1  LIG1       -0.1516
     13 O           0.5960   -0.1250    0.0000 O.2     1  LIG1       -0.1516
     14 N           0.5960   -1.5710    0.0000 N.3     1  LIG1       -0.0774
     15 C          -0.3790   -1.2830    0.0000 C.3     1  LIG1        0.1223
     16 C          -1.1080   -1.9920    0.0000 C.3     1  LIG1        0.0733
     17 C          -2.0790   -1.7130    0.0000 C.ar    1  LIG1        0.0897
     18 N          -2.4580   -0.7670    0.0000 N.ar    1  LIG1       -0.2427
     19 C          -3.4290   -0.8380    0.0000 C.ar    1  LIG1        0.0880
     20 C          -3.6830   -1.8080    0.0000 C.ar    1  LIG1        0.0556
     21 S          -2.8290   -2.3250    0.0000 S.2     1  LIG1       -0.0702
     22 C          -4.1380   -0.1250    0.0000 C.ar    1  LIG1        0.0182
     23 C          -3.8790    0.8460    0.0000 C.ar    1  LIG1        0.0015
     24 C          -4.5880    1.5500    0.0000 C.ar    1  LIG1        0.0000
     25 C          -5.5750    1.2920    0.0000 C.ar    1  LIG1        0.0000
     26 C          -5.8130    0.3210    0.0000 C.ar    1  LIG1        0.0000
     27 C          -5.1000   -0.3830    0.0000 C.ar    1  LIG1        0.0015
@<TRIPOS>BOND
     1     1     2    1
     2     1    12    2
     3     1    13    2
     4     1    14    1
     5     2     3   ar
     6     2    11   ar
     7     3     4   ar
     8     4     5   ar
     9     5     6    1
    10     5    10   ar
    11     6     7   am
    12     7     8    2
    13     7     9    1
    14    10    11   ar
    15    14    15    1
    16    15    16    1
    17    16    17    1
    18    17    18   ar
    19    17    21   ar
    20    18    19   ar
    21    19    20   ar
    22    19    22    1
    23    20    21   ar
    24    22    23   ar
    25    22    27   ar
    26    23    24   ar
    27    24    25   ar
    28    25    26   ar
    29    26    27   ar
