@<TRIPOS>MOLECULE
34134_ChemDiv_8013-0157
 27 31 0 0 0
SMALL
GASTEIGER
Energy = 0

@<TRIPOS>ATOM
      1 C           1.5540    0.3290    0.0000 C.3     1  LIG1        0.2168
      2 C           0.5580    0.1670    0.0000 C.3     1  LIG1        0.1575
      3 C           0.0920    1.0500    0.0000 C.3     1  LIG1        0.1490
      4 C          -0.8790    0.8630    0.0000 C.2     1  LIG1        0.2412
      5 N          -1.0210   -0.0920    0.0000 N.am    1  LIG1       -0.2078
      6 C          -0.1420   -0.5540    0.0000 C.2     1  LIG1        0.2419
      7 O           0.0000   -1.5540    0.0000 O.2     1  LIG1       -0.2739
      8 C          -1.8790   -0.6000    0.0000 C.ar    1  LIG1        0.0606
      9 C          -2.7420   -0.1130    0.0000 C.ar    1  LIG1        0.0153
     10 C          -3.6250   -0.6000    0.0000 C.ar    1  LIG1        0.0013
     11 C          -3.6000   -1.6210    0.0000 C.ar    1  LIG1        0.0001
     12 C          -2.7420   -2.1130    0.0000 C.ar    1  LIG1        0.0013
     13 C          -1.8790   -1.6000    0.0000 C.ar    1  LIG1        0.0153
     14 O          -1.6250    1.5580    0.0000 O.2     1  LIG1       -0.2739
     15 C           0.7670    1.7460    0.0000 C.3     1  LIG1        0.1536
     16 N           1.6960    1.3250    0.0000 N.4     1  LIG1        0.4464
     17 C           0.5830    2.7420    0.0000 C.3     1  LIG1        0.0692
     18 C           1.1130   -0.5540    0.0000 C.2     1  LIG1        0.2308
     19 C           1.8790   -1.2290    0.0000 C.ar    1  LIG1        0.0438
     20 C           2.7420   -0.7380    0.0000 C.ar    1  LIG1        0.0438
     21 C           2.5290    0.2380    0.0000 C.2     1  LIG1        0.2308
     22 O           3.1830    1.0040    0.0000 O.2     1  LIG1       -0.2849
     23 C           3.6000   -1.2290    0.0000 C.ar    1  LIG1        0.0032
     24 C           3.6210   -2.2040    0.0000 C.ar    1  LIG1        0.0001
     25 C           2.7420   -2.7380    0.0000 C.ar    1  LIG1        0.0001
     26 C           1.8790   -2.2250    0.0000 C.ar    1  LIG1        0.0032
     27 O           0.1170   -0.7380    0.0000 O.2     1  LIG1       -0.2849
@<TRIPOS>BOND
     1     1     2    1
     2     1    16    1
     3     1    18    1
     4     1    21    1
     5     2     3    1
     6     2     6    1
     7     3     4    1
     8     3    15    1
     9     4     5   am
    10     4    14    2
    11     5     6   am
    12     5     8    1
    13     6     7    2
    14     8     9   ar
    15     8    13   ar
    16     9    10   ar
    17    10    11   ar
    18    11    12   ar
    19    12    13   ar
    20    15    16    1
    21    15    17    1
    22    18    19    1
    23    18    27    2
    24    19    20   ar
    25    19    26   ar
    26    20    21    1
    27    20    23   ar
    28    21    22    2
    29    23    24   ar
    30    24    25   ar
    31    25    26   ar
