@<TRIPOS>MOLECULE
34139_ChemDiv_8012-7715
 32 35 0 0 0
SMALL
GASTEIGER
Energy = 0

@<TRIPOS>ATOM
      1 N           3.5420   -1.0250    0.0000 N.am    1  LIG1       -0.2229
      2 C           4.4330   -1.4210    0.0000 C.2     1  LIG1        0.2551
      3 C           5.1420   -0.6880    0.0000 C.ar    1  LIG1        0.0584
      4 C           4.6420    0.1670    0.0000 C.ar    1  LIG1        0.0584
      5 C           3.6540   -0.0500    0.0000 C.2     1  LIG1        0.2551
      6 O           2.8790    0.6250    0.0000 O.2     1  LIG1       -0.2695
      7 C           5.1130    1.0290    0.0000 C.ar    1  LIG1        0.0047
      8 C           6.1170    1.0290    0.0000 C.ar    1  LIG1        0.0001
      9 C           6.6420    0.1670    0.0000 C.ar    1  LIG1        0.0001
     10 C           6.1420   -0.6880    0.0000 C.ar    1  LIG1        0.0047
     11 O           4.6000   -2.4460    0.0000 O.2     1  LIG1       -0.2695
     12 C           2.6790   -1.5170    0.0000 C.3     1  LIG1        0.1015
     13 C           1.7960   -1.0130    0.0000 C.3     1  LIG1        0.0220
     14 C           0.9460   -1.5290    0.0000 C.3     1  LIG1        0.0023
     15 C           0.0960   -1.0250    0.0000 C.3     1  LIG1        0.0097
     16 C          -0.7750   -1.5000    0.0000 C.3     1  LIG1        0.0868
     17 C          -1.6420   -0.9830    0.0000 C.2     1  LIG1        0.2414
     18 O          -1.6420    0.0000    0.0000 O.2     1  LIG1       -0.2733
     19 N          -2.5380   -1.5000    0.0000 N.am    1  LIG1       -0.2051
     20 C          -3.3710   -0.9830    0.0000 C.3     1  LIG1        0.1198
     21 C          -4.2210   -1.4500    0.0000 C.3     1  LIG1        0.0510
     22 C          -5.0420   -0.9210    0.0000 C.ar    1  LIG1       -0.0054
     23 C          -5.9790   -1.2670    0.0000 C.ar    1  LIG1        0.0555
     24 N          -6.6420   -0.5420    0.0000 N.ar    1  LIG1       -0.2500
     25 C          -6.1290    0.3250    0.0000 C.ar    1  LIG1        0.0806
     26 C          -5.1130    0.0830    0.0000 C.ar    1  LIG1        0.0153
     27 C          -4.4330    0.8130    0.0000 C.ar    1  LIG1        0.0079
     28 C          -4.7210    1.7580    0.0000 C.ar    1  LIG1        0.0347
     29 C          -5.7210    2.0000    0.0000 C.ar    1  LIG1        0.0082
     30 C          -6.4130    1.2710    0.0000 C.ar    1  LIG1        0.0196
     31 BR         -4.0170    2.4500    0.0000 Br      1  LIG1       -0.0490
     32 C          -6.2080   -2.2290    0.0000 C.3     1  LIG1        0.0518
@<TRIPOS>BOND
     1     1     2   am
     2     1     5   am
     3     1    12    1
     4     2     3    1
     5     2    11    2
     6     3     4   ar
     7     3    10   ar
     8     4     5    1
     9     4     7   ar
    10     5     6    2
    11     7     8   ar
    12     8     9   ar
    13     9    10   ar
    14    12    13    1
    15    13    14    1
    16    14    15    1
    17    15    16    1
    18    16    17    1
    19    17    18    2
    20    17    19   am
    21    19    20    1
    22    20    21    1
    23    21    22    1
    24    22    23   ar
    25    22    26   ar
    26    23    24   ar
    27    23    32    1
    28    24    25   ar
    29    25    26   ar
    30    25    30   ar
    31    26    27   ar
    32    27    28   ar
    33    28    29   ar
    34    28    31    1
    35    29    30   ar
