@<TRIPOS>MOLECULE
34130_ChemDiv_8012-9981
 22 23 0 0 0
SMALL
GASTEIGER
Energy = 0

@<TRIPOS>ATOM
      1 C          -0.0580   -1.5960    0.0000 C.3     1  LIG1        0.2084
      2 C           0.9580   -1.6040    0.0000 C.3     1  LIG1        0.1817
      3 C           0.4460   -0.7210    0.0000 C.3     1  LIG1        0.0722
      4 C           0.4460    0.2750    0.0000 C.ar    1  LIG1       -0.0193
      5 C           1.3130    0.7790    0.0000 C.ar    1  LIG1       -0.0033
      6 C           1.3130    1.7750    0.0000 C.ar    1  LIG1        0.0111
      7 C           0.4460    2.2750    0.0000 C.ar    1  LIG1        0.0577
      8 C          -0.4250    1.7670    0.0000 C.ar    1  LIG1        0.0111
      9 C          -0.4210    0.7710    0.0000 C.ar    1  LIG1       -0.0033
     10 CL          0.4460    3.2710    0.0000 Cl      1  LIG1       -0.0822
     11 C           1.7540   -1.0380    0.0000 C.1     1  LIG1        0.0870
     12 N           2.5880   -0.4630    0.0000 N.1     1  LIG1       -0.1948
     13 C           1.6580   -2.3170    0.0000 C.1     1  LIG1        0.0870
     14 N           2.3540   -3.0250    0.0000 N.1     1  LIG1       -0.1948
     15 C          -0.8710   -1.0250    0.0000 C.2     1  LIG1        0.3288
     16 O          -0.7830   -0.0380    0.0000 O.2     1  LIG1       -0.2494
     17 O          -1.7790   -1.4380    0.0000 O.3     1  LIG1       -0.4440
     18 C          -2.5920   -0.8540    0.0000 C.3     1  LIG1        0.2556
     19 C          -0.7630   -2.3000    0.0000 C.2     1  LIG1        0.3288
     20 O          -0.5040   -3.2670    0.0000 O.2     1  LIG1       -0.2494
     21 O          -1.7250   -2.0460    0.0000 O.3     1  LIG1       -0.4440
     22 C          -2.4330   -2.7580    0.0000 C.3     1  LIG1        0.2556
@<TRIPOS>BOND
     1     1     2    1
     2     1     3    1
     3     1    15    1
     4     1    19    1
     5     2     3    1
     6     2    11    1
     7     2    13    1
     8     3     4    1
     9     4     5   ar
    10     4     9   ar
    11     5     6   ar
    12     6     7   ar
    13     7     8   ar
    14     7    10    1
    15     8     9   ar
    16    11    12    3
    17    13    14    3
    18    15    16    2
    19    15    17    1
    20    17    18    1
    21    19    20    2
    22    19    21    1
    23    21    22    1
