@<TRIPOS>MOLECULE
34145_ChemDiv_8012-6235
 22 24 0 0 0
SMALL
GASTEIGER
Energy = 0

@<TRIPOS>ATOM
      1 N          -1.1830   -0.5830    0.0000 N.ar    1  LIG1       -0.1727
      2 C          -0.3080   -0.0880    0.0000 C.ar    1  LIG1        0.2755
      3 N           0.4250   -0.7630    0.0000 N.ar    1  LIG1       -0.0380
      4 O           0.0250   -1.6540    0.0000 O.2     1  LIG1       -0.3311
      5 C          -0.9670   -1.5670    0.0000 C.ar    1  LIG1        0.2610
      6 C          -1.7330   -2.2000    0.0000 C.ar    1  LIG1        0.0561
      7 C          -2.7330   -2.2000    0.0000 C.ar    1  LIG1        0.0047
      8 C          -3.2460   -3.0540    0.0000 C.ar    1  LIG1        0.0002
      9 C          -2.7330   -3.9290    0.0000 C.ar    1  LIG1        0.0000
     10 C          -1.7420   -3.9290    0.0000 C.ar    1  LIG1        0.0002
     11 C          -1.2330   -3.0670    0.0000 C.ar    1  LIG1        0.0047
     12 N          -0.3290    0.9330    0.0000 N.pl3   1  LIG1       -0.2027
     13 C           0.5630    1.4250    0.0000 C.3     1  LIG1        0.1070
     14 C           1.4210    0.9330    0.0000 C.3     1  LIG1        0.0786
     15 C           2.2960    1.4250    0.0000 C.3     1  LIG1        0.0987
     16 N           2.2790    2.4290    0.0000 N.4     1  LIG1        0.4299
     17 C           1.4210    2.9330    0.0000 C.3     1  LIG1        0.0987
     18 C           0.5630    2.4210    0.0000 C.3     1  LIG1        0.0786
     19 C           1.4210    3.9330    0.0000 C.3     1  LIG1        0.0627
     20 C           0.5460    3.4250    0.0000 C.3     1  LIG1        0.0627
     21 C           3.2420    1.7420    0.0000 C.3     1  LIG1        0.0627
     22 C           2.9880    0.7250    0.0000 C.3     1  LIG1        0.0627
@<TRIPOS>BOND
     1     1     2   ar
     2     1     5   ar
     3     2     3   ar
     4     2    12    1
     5     3     4   ar
     6     4     5   ar
     7     5     6    1
     8     6     7   ar
     9     6    11   ar
    10     7     8   ar
    11     8     9   ar
    12     9    10   ar
    13    10    11   ar
    14    12    13    1
    15    13    14    1
    16    13    18    1
    17    14    15    1
    18    15    16    1
    19    15    21    1
    20    15    22    1
    21    16    17    1
    22    17    18    1
    23    17    19    1
    24    17    20    1
