@<TRIPOS>MOLECULE
34141_ChemDiv_8012-7719
 25 28 0 0 0
SMALL
GASTEIGER
Energy = 0

@<TRIPOS>ATOM
      1 C          -3.4290   -0.7210    0.0000 C.3     1  LIG1        0.0989
      2 N          -2.6580   -0.2630    0.0000 N.am    1  LIG1       -0.1877
      3 C          -1.9170   -0.7540    0.0000 C.2     1  LIG1        0.3238
      4 N          -1.1290   -0.3170    0.0000 N.am    1  LIG1       -0.2509
      5 C          -0.3330   -0.7630    0.0000 C.3     1  LIG1        0.1578
      6 C           0.4790   -0.3170    0.0000 C.3     1  LIG1        0.1611
      7 N           0.4790    0.6210    0.0000 N.4     1  LIG1        0.3847
      8 C           1.3130    1.1040    0.0000 C.3     1  LIG1        0.1861
      9 C           2.1500    0.6420    0.0000 C.ar    1  LIG1        0.1223
     10 N           3.7460    0.6420    0.0000 N.ar    1  LIG1       -0.2412
     11 C           3.7460   -0.2830    0.0000 C.ar    1  LIG1        0.0885
     12 S           2.9380   -0.7460    0.0000 S.2     1  LIG1       -0.0704
     13 C           2.1500   -0.2830    0.0000 C.ar    1  LIG1        0.0571
     14 C           4.5920   -0.7460    0.0000 C.3     1  LIG1        0.0594
     15 C          -0.3330    1.0830    0.0000 C.3     1  LIG1        0.1611
     16 C          -1.1290    0.6210    0.0000 C.3     1  LIG1        0.1578
     17 O          -1.9170   -1.7500    0.0000 O.2     1  LIG1       -0.2508
     18 C          -4.5960   -1.4040    0.0000 C.3     1  LIG1        0.0263
     19 C          -3.4290   -2.0750    0.0000 C.3     1  LIG1        0.0263
     20 C          -3.4210    0.2290    0.0000 C.ar    1  LIG1       -0.0044
     21 C          -4.2130    0.6750    0.0000 C.ar    1  LIG1       -0.0027
     22 C          -4.2130    1.6040    0.0000 C.ar    1  LIG1       -0.0003
     23 C          -3.4210    2.0790    0.0000 C.ar    1  LIG1       -0.0000
     24 C          -2.5960    1.6040    0.0000 C.ar    1  LIG1       -0.0003
     25 C          -2.5960    0.6750    0.0000 C.ar    1  LIG1       -0.0027
@<TRIPOS>BOND
     1     1     2    1
     2     1    18    1
     3     1    19    1
     4     1    20    1
     5     2     3   am
     6     3     4   am
     7     3    17    2
     8     4     5    1
     9     4    16    1
    10     5     6    1
    11     6     7    1
    12     7     8    1
    13     7    15    1
    14     8     9    1
    15     9    10   ar
    16     9    13   ar
    17    10    11   ar
    18    11    12   ar
    19    11    14    1
    20    12    13   ar
    21    15    16    1
    22    18    19    1
    23    20    21   ar
    24    20    25   ar
    25    21    22   ar
    26    22    23   ar
    27    23    24   ar
    28    24    25   ar
