@<TRIPOS>MOLECULE
34143_ChemDiv_8012-7862
 29 32 0 0 0
SMALL
GASTEIGER
Energy = 0

@<TRIPOS>ATOM
      1 C          -3.5130   -0.5630    0.0000 C.3     1  LIG1        0.0990
      2 N          -2.6710   -1.1130    0.0000 N.am    1  LIG1       -0.1862
      3 C          -1.8040   -0.6500    0.0000 C.2     1  LIG1        0.3437
      4 N          -0.9330   -1.1960    0.0000 N.am    1  LIG1       -0.1610
      5 C          -0.0420   -0.7330    0.0000 C.ar    1  LIG1        0.0751
      6 C           0.8000   -1.2540    0.0000 C.ar    1  LIG1        0.0212
      7 C           1.6670   -0.7920    0.0000 C.ar    1  LIG1        0.0567
      8 C           2.4880   -1.3290    0.0000 C.2     1  LIG1        0.2690
      9 N           3.4170   -0.8920    0.0000 N.am    1  LIG1       -0.1754
     10 C           3.4750    0.1330    0.0000 C.ar    1  LIG1        0.0745
     11 C           2.6210    0.6960    0.0000 C.ar    1  LIG1        0.0280
     12 C           2.7330    1.6960    0.0000 C.ar    1  LIG1        0.0590
     13 CL          1.9290    2.2420    0.0000 Cl      1  LIG1       -0.0822
     14 C           3.6420    2.1580    0.0000 C.ar    1  LIG1        0.0115
     15 C           4.4580    1.5500    0.0000 C.ar    1  LIG1        0.0022
     16 C           4.3670    0.5500    0.0000 C.ar    1  LIG1        0.0167
     17 O           2.4330   -2.3210    0.0000 O.2     1  LIG1       -0.2680
     18 C           1.7210    0.1880    0.0000 C.ar    1  LIG1        0.0047
     19 C           0.8880    0.7670    0.0000 C.ar    1  LIG1        0.0015
     20 C          -0.0130    0.2790    0.0000 C.ar    1  LIG1        0.0167
     21 O          -1.7460    0.3630    0.0000 O.2     1  LIG1       -0.2488
     22 C          -4.2330    0.1330    0.0000 C.3     1  LIG1        0.0263
     23 C          -4.4630   -0.8250    0.0000 C.3     1  LIG1        0.0263
     24 C          -3.2460    0.3920    0.0000 C.ar    1  LIG1       -0.0044
     25 C          -2.2960    0.6500    0.0000 C.ar    1  LIG1       -0.0027
     26 C          -2.0380    1.6330    0.0000 C.ar    1  LIG1       -0.0003
     27 C          -2.7290    2.3250    0.0000 C.ar    1  LIG1       -0.0000
     28 C          -3.6790    2.0460    0.0000 C.ar    1  LIG1       -0.0003
     29 C          -3.9460    1.1170    0.0000 C.ar    1  LIG1       -0.0027
@<TRIPOS>BOND
     1     1     2    1
     2     1    22    1
     3     1    23    1
     4     1    24    1
     5     2     3   am
     6     3     4   am
     7     3    21    2
     8     4     5    1
     9     5     6   ar
    10     5    20   ar
    11     6     7   ar
    12     7     8    1
    13     7    18   ar
    14     8     9   am
    15     8    17    2
    16     9    10    1
    17    10    11   ar
    18    10    16   ar
    19    11    12   ar
    20    12    13    1
    21    12    14   ar
    22    14    15   ar
    23    15    16   ar
    24    18    19   ar
    25    19    20   ar
    26    22    23    1
    27    24    25   ar
    28    24    29   ar
    29    25    26   ar
    30    26    27   ar
    31    27    28   ar
    32    28    29   ar
