@<TRIPOS>MOLECULE
34144_ChemDiv_8013-0470
 29 33 0 0 0
SMALL
GASTEIGER
Energy = 0

@<TRIPOS>ATOM
      1 S          -2.3420    0.6920    0.0000 S.O2    1  LIG1        0.0649
      2 C          -3.3170    0.4420    0.0000 C.ar    1  LIG1        0.1379
      3 C          -3.5920   -0.5130    0.0000 C.ar    1  LIG1        0.1270
      4 C          -4.5460   -0.7880    0.0000 C.ar    1  LIG1        0.1102
      5 N          -4.6080   -1.7830    0.0000 N.ar    1  LIG1       -0.1901
      6 S          -3.7080   -2.1540    0.0000 S.2     1  LIG1        0.1165
      7 N          -3.0630   -1.3710    0.0000 N.ar    1  LIG1       -0.1888
      8 C          -5.2540   -0.0630    0.0000 C.ar    1  LIG1        0.0211
      9 C          -4.9960    0.8920    0.0000 C.ar    1  LIG1       -0.0013
     10 C          -4.0000    1.1670    0.0000 C.ar    1  LIG1       -0.0016
     11 C          -3.7080    2.1380    0.0000 C.3     1  LIG1        0.0325
     12 N          -1.3670    0.9460    0.0000 N.3     1  LIG1       -0.1433
     13 C          -1.0920    1.9040    0.0000 C.3     1  LIG1        0.1585
     14 C          -0.1380    2.1580    0.0000 C.3     1  LIG1        0.1586
     15 N           0.5830    1.4580    0.0000 N.4     1  LIG1        0.3830
     16 C           1.5750    1.7290    0.0000 C.3     1  LIG1        0.1664
     17 C           2.2630    1.0040    0.0000 C.ar    1  LIG1        0.0376
     18 C           3.2380    1.2580    0.0000 C.ar    1  LIG1        0.0416
     19 C           3.9210    0.5420    0.0000 C.ar    1  LIG1        0.1763
     20 C           3.6460   -0.3920    0.0000 C.ar    1  LIG1        0.1764
     21 O           4.4670   -0.9790    0.0000 O.3     1  LIG1       -0.4346
     22 C           5.2500   -0.3920    0.0000 C.3     1  LIG1        0.4294
     23 O           4.9380    0.5630    0.0000 O.3     1  LIG1       -0.4346
     24 C           2.6880   -0.6500    0.0000 C.ar    1  LIG1        0.0401
     25 C           1.9880    0.0710    0.0000 C.ar    1  LIG1        0.0048
     26 C           0.3080    0.5000    0.0000 C.3     1  LIG1        0.1586
     27 C          -0.6630    0.2500    0.0000 C.3     1  LIG1        0.1585
     28 O          -2.5960    1.6710    0.0000 O.2     1  LIG1       -0.1527
     29 O          -2.0880   -0.2790    0.0000 O.2     1  LIG1       -0.1527
@<TRIPOS>BOND
     1     1     2    1
     2     1    12    1
     3     1    28    2
     4     1    29    2
     5     2     3   ar
     6     2    10   ar
     7     3     4   ar
     8     3     7   ar
     9     4     5   ar
    10     4     8   ar
    11     5     6   ar
    12     6     7   ar
    13     8     9   ar
    14     9    10   ar
    15    10    11    1
    16    12    13    1
    17    12    27    1
    18    13    14    1
    19    14    15    1
    20    15    16    1
    21    15    26    1
    22    16    17    1
    23    17    18   ar
    24    17    25   ar
    25    18    19   ar
    26    19    20   ar
    27    19    23    1
    28    20    21    1
    29    20    24   ar
    30    21    22    1
    31    22    23    1
    32    24    25   ar
    33    26    27    1
