@<TRIPOS>MOLECULE
34142_ChemDiv_8013-0462
 18 19 0 0 0
SMALL
GASTEIGER
Energy = 0

@<TRIPOS>ATOM
      1 C          -0.4920    0.3880    0.0000 C.ar    1  LIG1        0.2201
      2 C          -1.4790    0.3880    0.0000 C.ar    1  LIG1        0.1242
      3 C          -1.9670   -0.4880    0.0000 C.ar    1  LIG1        0.2054
      4 C          -1.4880   -1.3250    0.0000 C.ar    1  LIG1        0.0752
      5 C          -0.4920   -1.3380    0.0000 C.ar    1  LIG1        0.1281
      6 O           0.0210   -0.4670    0.0000 O.2     1  LIG1       -0.4425
      7 C           0.0210   -2.2080    0.0000 C.3     1  LIG1        0.0726
      8 O          -2.9790   -0.4880    0.0000 O.2     1  LIG1       -0.2862
      9 C          -1.9670    1.2630    0.0000 C.2     1  LIG1        0.1809
     10 O          -2.9880    1.2630    0.0000 O.2     1  LIG1       -0.2911
     11 C          -1.4790    2.1330    0.0000 C.3     1  LIG1        0.0775
     12 N           0.0000    1.2830    0.0000 N.pl3   1  LIG1       -0.2068
     13 C           1.0210    1.2920    0.0000 C.3     1  LIG1        0.0955
     14 C           1.5250    0.4750    0.0000 C.3     1  LIG1        0.0217
     15 C           2.5250    0.4880    0.0000 C.3     1  LIG1        0.0018
     16 C           2.9830    1.3750    0.0000 C.3     1  LIG1        0.0001
     17 C           2.4790    2.2130    0.0000 C.3     1  LIG1        0.0018
     18 C           1.4830    2.2040    0.0000 C.3     1  LIG1        0.0217
@<TRIPOS>BOND
     1     1     2   ar
     2     1     6   ar
     3     1    12    1
     4     2     3   ar
     5     2     9    1
     6     3     4   ar
     7     3     8    2
     8     4     5   ar
     9     5     6   ar
    10     5     7    1
    11     9    10    2
    12     9    11    1
    13    12    13    1
    14    13    14    1
    15    13    18    1
    16    14    15    1
    17    15    16    1
    18    16    17    1
    19    17    18    1
