@<TRIPOS>MOLECULE
34151_ChemDiv_8012-6288
 31 34 0 0 0
SMALL
GASTEIGER
Energy = 0

@<TRIPOS>ATOM
      1 N          -0.0130   -1.4880    0.0000 N.am    1  LIG1       -0.2747
      2 C          -0.8960   -0.9880    0.0000 C.3     1  LIG1        0.1017
      3 C          -0.8960    0.0290    0.0000 C.3     1  LIG1        0.0684
      4 C          -0.0380    0.5210    0.0000 C.3     1  LIG1        0.1767
      5 C           0.8380    0.0290    0.0000 C.3     1  LIG1        0.0849
      6 C           0.8380   -0.9580    0.0000 C.3     1  LIG1        0.1055
      7 C           1.7210   -1.4580    0.0000 C.ar    1  LIG1       -0.0038
      8 C           1.7500   -2.4750    0.0000 C.ar    1  LIG1       -0.0027
      9 C           2.6040   -2.9750    0.0000 C.ar    1  LIG1       -0.0003
     10 C           3.4880   -2.4750    0.0000 C.ar    1  LIG1       -0.0000
     11 C           3.4670   -1.4880    0.0000 C.ar    1  LIG1       -0.0003
     12 C           2.6040   -0.9580    0.0000 C.ar    1  LIG1       -0.0027
     13 C           1.7040    0.5210    0.0000 C.ar    1  LIG1       -0.0171
     14 C           2.5500    0.0210    0.0000 C.ar    1  LIG1       -0.0041
     15 C           3.4290    0.4960    0.0000 C.ar    1  LIG1       -0.0003
     16 C           3.4750    1.5000    0.0000 C.ar    1  LIG1       -0.0000
     17 C           2.6210    2.0000    0.0000 C.ar    1  LIG1       -0.0003
     18 C           1.7330    1.5170    0.0000 C.ar    1  LIG1       -0.0041
     19 O          -0.0580    1.5170    0.0000 O.3     1  LIG1       -0.4518
     20 C          -0.9330    1.9920    0.0000 C.2     1  LIG1        0.3175
     21 O          -1.7630    1.4540    0.0000 O.2     1  LIG1       -0.2501
     22 C          -0.9420    2.9920    0.0000 C.3     1  LIG1        0.1212
     23 C          -1.7540   -1.4880    0.0000 C.ar    1  LIG1       -0.0041
     24 C          -2.6380   -0.9580    0.0000 C.ar    1  LIG1       -0.0027
     25 C          -3.4920   -1.4580    0.0000 C.ar    1  LIG1       -0.0003
     26 C          -3.4920   -2.4750    0.0000 C.ar    1  LIG1       -0.0000
     27 C          -2.6380   -2.9750    0.0000 C.ar    1  LIG1       -0.0003
     28 C          -1.7540   -2.4750    0.0000 C.ar    1  LIG1       -0.0027
     29 C          -0.0040   -2.4750    0.0000 C.2     1  LIG1        0.2265
     30 O           0.8710   -2.9290    0.0000 O.2     1  LIG1       -0.2748
     31 C          -0.8500   -2.9880    0.0000 C.3     1  LIG1        0.0948
@<TRIPOS>BOND
     1     1     2    1
     2     1     6    1
     3     1    29   am
     4     2     3    1
     5     2    23    1
     6     3     4    1
     7     4     5    1
     8     4    19    1
     9     5     6    1
    10     5    13    1
    11     6     7    1
    12     7     8   ar
    13     7    12   ar
    14     8     9   ar
    15     9    10   ar
    16    10    11   ar
    17    11    12   ar
    18    13    14   ar
    19    13    18   ar
    20    14    15   ar
    21    15    16   ar
    22    16    17   ar
    23    17    18   ar
    24    19    20    1
    25    20    21    2
    26    20    22    1
    27    23    24   ar
    28    23    28   ar
    29    24    25   ar
    30    25    26   ar
    31    26    27   ar
    32    27    28   ar
    33    29    30    2
    34    29    31    1
