@<TRIPOS>MOLECULE
34153_ChemDiv_8012-6649
 21 23 0 0 0
SMALL
GASTEIGER
Energy = 0

@<TRIPOS>ATOM
      1 N          -0.1460   -0.0960    0.0000 N.am    1  LIG1       -0.2207
      2 C          -0.7130    0.6710    0.0000 C.2     1  LIG1        0.2322
      3 C          -1.6250    0.3880    0.0000 C.3     1  LIG1        0.0930
      4 C          -1.6250   -0.5920    0.0000 C.3     1  LIG1        0.0866
      5 C          -0.7130   -0.9420    0.0000 C.2     1  LIG1        0.2318
      6 O          -0.3580   -1.8580    0.0000 O.2     1  LIG1       -0.2745
      7 C          -2.4670   -1.1540    0.0000 C.3     1  LIG1        0.0173
      8 C          -3.3790   -0.5920    0.0000 C.3     1  LIG1        0.0650
      9 C          -3.3790    0.3880    0.0000 C.2     1  LIG1        0.1512
     10 C          -2.4670    0.8830    0.0000 C.3     1  LIG1        0.0741
     11 O          -4.2210    0.8830    0.0000 O.2     1  LIG1       -0.2960
     12 O          -0.3580    1.6500    0.0000 O.2     1  LIG1       -0.2744
     13 C           0.7670    0.3880    0.0000 C.3     1  LIG1        0.1858
     14 C           1.6080   -0.0960    0.0000 C.2     1  LIG1        0.2464
     15 N           2.4540    0.3880    0.0000 N.am    1  LIG1       -0.2781
     16 C           3.3750   -0.0960    0.0000 C.3     1  LIG1        0.0934
     17 C           4.2170    0.3880    0.0000 C.3     1  LIG1        0.0216
     18 C           4.2170    1.3710    0.0000 C.3     1  LIG1        0.0035
     19 C           3.3750    1.8630    0.0000 C.3     1  LIG1        0.0216
     20 C           2.4540    1.3710    0.0000 C.3     1  LIG1        0.0934
     21 O           1.6080   -1.1540    0.0000 O.2     1  LIG1       -0.2730
@<TRIPOS>BOND
     1     1     2   am
     2     1     5   am
     3     1    13    1
     4     2     3    1
     5     2    12    2
     6     3     4    1
     7     3    10    1
     8     4     5    1
     9     4     7    1
    10     5     6    2
    11     7     8    1
    12     8     9    1
    13     9    10    1
    14     9    11    2
    15    13    14    1
    16    14    15   am
    17    14    21    2
    18    15    16    1
    19    15    20    1
    20    16    17    1
    21    17    18    1
    22    18    19    1
    23    19    20    1
