@<TRIPOS>MOLECULE
34158_ChemDiv_8013-3543
 25 28 0 0 0
SMALL
GASTEIGER
Energy = 0

@<TRIPOS>ATOM
      1 C           0.9630    0.9170    0.0000 C.ar    1  LIG1        0.1254
      2 N           0.6630    1.8630    0.0000 N.am    1  LIG1       -0.2535
      3 C          -0.3170    2.1500    0.0000 C.3     1  LIG1        0.1056
      4 C          -0.3170    3.1790    0.0000 C.3     1  LIG1        0.0530
      5 C           0.6630    3.5170    0.0000 C.3     1  LIG1        0.0891
      6 C           1.2790    2.7040    0.0000 C.2     1  LIG1        0.2296
      7 O           1.9960    2.7040    0.0000 O.2     1  LIG1       -0.2745
      8 C          -1.2960    3.4920    0.0000 C.3     1  LIG1        0.1530
      9 S          -1.8920    2.6750    0.0000 S.O2    1  LIG1       -0.0083
     10 C          -1.2830    1.8330    0.0000 C.3     1  LIG1        0.1709
     11 O          -2.7380    2.0750    0.0000 O.2     1  LIG1       -0.1729
     12 O          -2.2630    3.6420    0.0000 O.2     1  LIG1       -0.1729
     13 C           0.3880    0.0670    0.0000 C.ar    1  LIG1        0.2937
     14 N           1.0080   -0.7130    0.0000 N.ar    1  LIG1       -0.2134
     15 N           1.9330   -0.3880    0.0000 N.ar    1  LIG1       -0.2646
     16 C           1.9130    0.6330    0.0000 C.ar    1  LIG1        0.0729
     17 C           2.6920    1.2420    0.0000 C.3     1  LIG1        0.0532
     18 C           2.7330   -0.9540    0.0000 C.3     1  LIG1        0.1518
     19 C           0.7420   -1.6790    0.0000 C.ar    1  LIG1        0.0841
     20 C          -0.2210   -1.9630    0.0000 C.ar    1  LIG1        0.0192
     21 C          -0.4630   -2.9210    0.0000 C.ar    1  LIG1        0.0015
     22 C           0.2580   -3.6380    0.0000 C.ar    1  LIG1        0.0001
     23 C           1.2080   -3.3420    0.0000 C.ar    1  LIG1        0.0015
     24 C           1.4500   -2.3830    0.0000 C.ar    1  LIG1        0.0192
     25 O          -0.6080    0.0250    0.0000 O.2     1  LIG1       -0.2638
@<TRIPOS>BOND
     1     1     2    1
     2     1    13   ar
     3     1    16   ar
     4     2     3    1
     5     2     6   am
     6     3     4    1
     7     3    10    1
     8     4     5    1
     9     4     8    1
    10     5     6    1
    11     6     7    2
    12     8     9    1
    13     9    10    1
    14     9    11    2
    15     9    12    2
    16    13    14   ar
    17    13    25    2
    18    14    15   ar
    19    14    19    1
    20    15    16   ar
    21    15    18    1
    22    16    17    1
    23    19    20   ar
    24    19    24   ar
    25    20    21   ar
    26    21    22   ar
    27    22    23   ar
    28    23    24   ar
