@<TRIPOS>MOLECULE
34155_ChemDiv_8012-6664
 21 23 0 0 0
SMALL
GASTEIGER
Energy = 0

@<TRIPOS>ATOM
      1 N           1.2250   -0.4540    0.0000 N.ar    1  LIG1       -0.1900
      2 C           1.9790   -1.1250    0.0000 C.ar    1  LIG1        0.2033
      3 N           1.5710   -2.0330    0.0000 N.ar    1  LIG1       -0.0560
      4 O           0.5830   -1.9460    0.0000 O.2     1  LIG1       -0.3361
      5 C           0.3670   -0.9540    0.0000 C.ar    1  LIG1        0.2480
      6 C          -0.4960   -0.4540    0.0000 C.3     1  LIG1        0.1528
      7 S          -1.3790   -0.9750    0.0000 S.3     1  LIG1       -0.0655
      8 C          -2.2630   -0.4750    0.0000 C.ar    1  LIG1        0.1929
      9 N          -3.1210   -0.9750    0.0000 N.ar    1  LIG1       -0.2028
     10 C          -3.9830   -0.4540    0.0000 C.ar    1  LIG1        0.1747
     11 C          -3.9630    0.5540    0.0000 C.ar    1  LIG1        0.0753
     12 C          -3.1210    1.0250    0.0000 C.ar    1  LIG1        0.1747
     13 N          -2.2630    0.5330    0.0000 N.ar    1  LIG1       -0.2028
     14 N          -3.1420    2.0380    0.0000 N.pl3   1  LIG1       -0.1070
     15 N          -4.8710   -0.9540    0.0000 N.pl3   1  LIG1       -0.1070
     16 C           2.9500   -0.8670    0.0000 C.ar    1  LIG1        0.0391
     17 C           3.2130    0.1000    0.0000 C.ar    1  LIG1        0.0032
     18 C           4.1790    0.3420    0.0000 C.ar    1  LIG1        0.0001
     19 C           4.8670   -0.3710    0.0000 C.ar    1  LIG1        0.0000
     20 C           4.5880   -1.3170    0.0000 C.ar    1  LIG1        0.0001
     21 C           3.6420   -1.5750    0.0000 C.ar    1  LIG1        0.0032
@<TRIPOS>BOND
     1     1     2   ar
     2     1     5   ar
     3     2     3   ar
     4     2    16    1
     5     3     4   ar
     6     4     5   ar
     7     5     6    1
     8     6     7    1
     9     7     8    1
    10     8     9   ar
    11     8    13   ar
    12     9    10   ar
    13    10    11   ar
    14    10    15    1
    15    11    12   ar
    16    12    13   ar
    17    12    14    1
    18    16    17   ar
    19    16    21   ar
    20    17    18   ar
    21    18    19   ar
    22    19    20   ar
    23    20    21   ar
