@<TRIPOS>MOLECULE
34156_ChemDiv_8013-3536
 26 28 0 0 0
SMALL
GASTEIGER
Energy = 0

@<TRIPOS>ATOM
      1 C           1.9830    0.4960    0.0000 C.ar    1  LIG1        0.1313
      2 C           1.0420    0.1960    0.0000 C.ar    1  LIG1        0.0549
      3 C           1.0420   -0.7920    0.0000 C.ar    1  LIG1        0.1541
      4 O           1.9830   -1.0960    0.0000 O.2     1  LIG1       -0.4362
      5 C           2.5670   -0.2830    0.0000 C.ar    1  LIG1        0.2409
      6 N           3.5710   -0.2830    0.0000 N.pl3   1  LIG1       -0.0875
      7 C           0.1580   -1.3040    0.0000 C.ar    1  LIG1        0.0724
      8 C          -0.7040   -0.7920    0.0000 C.ar    1  LIG1        0.0549
      9 C          -1.6670   -1.0960    0.0000 C.ar    1  LIG1        0.1313
     10 C          -2.2290   -0.2830    0.0000 C.ar    1  LIG1        0.2409
     11 O          -1.6670    0.4960    0.0000 O.2     1  LIG1       -0.4362
     12 C          -0.7040    0.1960    0.0000 C.ar    1  LIG1        0.1541
     13 C           0.1580    0.7080    0.0000 C.ar    1  LIG1        0.0724
     14 BR          0.1580    1.7040    0.0000 Br      1  LIG1       -0.0457
     15 N          -3.2330   -0.2830    0.0000 N.pl3   1  LIG1       -0.0875
     16 C          -1.9880   -2.0630    0.0000 C.2     1  LIG1        0.3457
     17 O          -1.3250   -2.8130    0.0000 O.2     1  LIG1       -0.2447
     18 O          -2.9710   -2.2710    0.0000 O.3     1  LIG1       -0.4453
     19 C          -3.6330   -1.5170    0.0000 C.3     1  LIG1        0.2089
     20 C          -4.6000   -1.7290    0.0000 C.3     1  LIG1        0.0513
     21 BR          0.1580   -2.3000    0.0000 Br      1  LIG1       -0.0457
     22 C           2.3250    1.4580    0.0000 C.2     1  LIG1        0.3457
     23 O           1.6420    2.2460    0.0000 O.2     1  LIG1       -0.2447
     24 O           3.2880    1.6710    0.0000 O.3     1  LIG1       -0.4453
     25 C           3.6130    2.6040    0.0000 C.3     1  LIG1        0.2089
     26 C           4.5960    2.8170    0.0000 C.3     1  LIG1        0.0513
@<TRIPOS>BOND
     1     1     2   ar
     2     1     5   ar
     3     1    22    1
     4     2     3   ar
     5     2    13   ar
     6     3     4   ar
     7     3     7   ar
     8     4     5   ar
     9     5     6    1
    10     7     8   ar
    11     7    21    1
    12     8     9   ar
    13     8    12   ar
    14     9    10   ar
    15     9    16    1
    16    10    11   ar
    17    10    15    1
    18    11    12   ar
    19    12    13   ar
    20    13    14    1
    21    16    17    2
    22    16    18    1
    23    18    19    1
    24    19    20    1
    25    22    23    2
    26    22    24    1
    27    24    25    1
    28    25    26    1
