@<TRIPOS>MOLECULE
34160_ChemDiv_8013-3583
 20 23 0 0 0
SMALL
GASTEIGER
Energy = 0

@<TRIPOS>ATOM
      1 C          -0.4210   -1.3830    0.0000 C.3     1  LIG1        0.0897
      2 N           0.5880   -1.3420    0.0000 N.ar    1  LIG1       -0.2342
      3 N           1.2000   -2.1290    0.0000 N.ar    1  LIG1       -0.1531
      4 C           2.1500   -1.7830    0.0000 C.ar    1  LIG1        0.1609
      5 N           2.1080   -0.7790    0.0000 N.ar    1  LIG1       -0.2076
      6 C           1.1460   -0.5080    0.0000 C.ar    1  LIG1        0.1967
      7 C           2.9830   -2.3460    0.0000 C.3     1  LIG1        0.0756
      8 C          -0.4080   -0.3630    0.0000 C.3     1  LIG1        0.0425
      9 C          -1.3330    0.0130    0.0000 C.3     1  LIG1        0.0804
     10 N          -1.3330    0.8250    0.0000 N.am    1  LIG1       -0.2088
     11 C          -0.4630    1.3330    0.0000 C.2     1  LIG1        0.2418
     12 O          -0.4630    2.3500    0.0000 O.2     1  LIG1       -0.2733
     13 C           0.4250    0.8250    0.0000 C.3     1  LIG1        0.0964
     14 C          -2.0170   -0.7920    0.0000 C.3     1  LIG1        0.0201
     15 C          -2.0170   -1.8380    0.0000 C.3     1  LIG1        0.0035
     16 C          -1.0920   -2.2130    0.0000 C.3     1  LIG1        0.0227
     17 C          -2.9880   -2.1170    0.0000 C.3     1  LIG1        0.0002
     18 C          -2.2000   -1.2750    0.0000 C.3     1  LIG1        0.0035
     19 C          -1.3460   -1.5960    0.0000 C.3     1  LIG1        0.0227
     20 C          -2.2000   -0.2960    0.0000 C.3     1  LIG1        0.0201
@<TRIPOS>BOND
     1     1     2    1
     2     1     8    1
     3     1    16    1
     4     1    19    1
     5     2     3   ar
     6     2     6   ar
     7     3     4   ar
     8     4     5   ar
     9     4     7    1
    10     5     6   ar
    11     8     9    1
    12     9    10    1
    13     9    14    1
    14     9    20    1
    15    10    11   am
    16    11    12    2
    17    11    13    1
    18    14    15    1
    19    15    16    1
    20    15    17    1
    21    17    18    1
    22    18    19    1
    23    18    20    1
