@<TRIPOS>MOLECULE
34162_ChemDiv_K893-0902
 28 32 0 0 0
SMALL
GASTEIGER
Energy = 0

@<TRIPOS>ATOM
      1 S           2.5170   -0.5420    0.0000 S.O2    1  LIG1        0.0652
      2 C           3.3380   -0.0130    0.0000 C.ar    1  LIG1        0.1419
      3 C           3.3040    0.9750    0.0000 C.ar    1  LIG1        0.1273
      4 N           2.5290    1.6170    0.0000 N.ar    1  LIG1       -0.1888
      5 S           2.8960    2.5420    0.0000 S.2     1  LIG1        0.1165
      6 N           3.9000    2.5000    0.0000 N.ar    1  LIG1       -0.1901
      7 C           4.1580    1.5420    0.0000 C.ar    1  LIG1        0.1102
      8 C           5.0540    1.0920    0.0000 C.ar    1  LIG1        0.0214
      9 C           5.0830    0.0630    0.0000 C.ar    1  LIG1        0.0030
     10 C           4.2630   -0.4500    0.0000 C.ar    1  LIG1        0.0216
     11 N           1.6460   -1.0420    0.0000 N.3     1  LIG1       -0.1433
     12 C           0.7790   -0.5420    0.0000 C.3     1  LIG1        0.1585
     13 C          -0.0880   -1.0420    0.0000 C.3     1  LIG1        0.1586
     14 N          -0.0880   -2.0420    0.0000 N.4     1  LIG1        0.3830
     15 C          -0.9500   -2.5380    0.0000 C.3     1  LIG1        0.1664
     16 C          -1.8210   -2.0330    0.0000 C.ar    1  LIG1        0.0376
     17 C          -2.6880   -2.5290    0.0000 C.ar    1  LIG1        0.0416
     18 C          -3.5540   -2.0330    0.0000 C.ar    1  LIG1        0.1763
     19 C          -3.5540   -1.0290    0.0000 C.ar    1  LIG1        0.1764
     20 O          -4.5000   -0.7330    0.0000 O.3     1  LIG1       -0.4346
     21 C          -5.0880   -1.5170    0.0000 C.3     1  LIG1        0.4294
     22 O          -4.5000   -2.3380    0.0000 O.3     1  LIG1       -0.4346
     23 C          -2.6880   -0.5250    0.0000 C.ar    1  LIG1        0.0401
     24 C          -1.8210   -1.0290    0.0000 C.ar    1  LIG1        0.0048
     25 C           0.7790   -2.5380    0.0000 C.3     1  LIG1        0.1586
     26 C           1.6460   -2.0420    0.0000 C.3     1  LIG1        0.1585
     27 O           3.0750   -1.4080    0.0000 O.2     1  LIG1       -0.1527
     28 O           1.9830    0.2710    0.0000 O.2     1  LIG1       -0.1527
@<TRIPOS>BOND
     1     1     2    1
     2     1    11    1
     3     1    27    2
     4     1    28    2
     5     2     3   ar
     6     2    10   ar
     7     3     4   ar
     8     3     7   ar
     9     4     5   ar
    10     5     6   ar
    11     6     7   ar
    12     7     8   ar
    13     8     9   ar
    14     9    10   ar
    15    11    12    1
    16    11    26    1
    17    12    13    1
    18    13    14    1
    19    14    15    1
    20    14    25    1
    21    15    16    1
    22    16    17   ar
    23    16    24   ar
    24    17    18   ar
    25    18    19   ar
    26    18    22    1
    27    19    20    1
    28    19    23   ar
    29    20    21    1
    30    21    22    1
    31    23    24   ar
    32    25    26    1
