@<TRIPOS>MOLECULE
34164_ChemDiv_8013-0786
 23 26 0 0 0
SMALL
GASTEIGER
Energy = 0

@<TRIPOS>ATOM
      1 N           0.6750   -0.0500    0.0000 N.am    1  LIG1       -0.2019
      2 C          -0.2580   -0.4500    0.0000 C.ar    1  LIG1        0.1362
      3 C          -0.3750   -1.4000    0.0000 C.ar    1  LIG1        0.2986
      4 N          -1.2710   -1.7710    0.0000 N.ar    1  LIG1       -0.1517
      5 C          -2.0380   -1.2130    0.0000 C.ar    1  LIG1        0.3588
      6 N          -1.9630   -0.1830    0.0000 N.ar    1  LIG1       -0.2264
      7 C          -1.0290    0.1750    0.0000 C.ar    1  LIG1        0.1072
      8 C          -2.7460    0.4290    0.0000 C.2     1  LIG1        0.2452
      9 O          -3.7420    0.1540    0.0000 O.2     1  LIG1       -0.2715
     10 C          -2.5920    1.3750    0.0000 C.3     1  LIG1        0.0984
     11 O          -2.9750   -1.6130    0.0000 O.2     1  LIG1       -0.2439
     12 O           0.4080   -2.0080    0.0000 O.2     1  LIG1       -0.2636
     13 C           0.7750    0.9500    0.0000 C.2     1  LIG1        0.2356
     14 C           1.7330    1.1580    0.0000 C.3     1  LIG1        0.0903
     15 C           2.2420    0.3130    0.0000 C.3     1  LIG1        0.0903
     16 C           1.5790   -0.4500    0.0000 C.2     1  LIG1        0.2356
     17 O           1.7670   -1.4630    0.0000 O.2     1  LIG1       -0.2741
     18 C           3.2250    0.3130    0.0000 C.3     1  LIG1        0.0311
     19 C           3.7380    1.1580    0.0000 C.2     1  LIG1       -0.0305
     20 C           3.2250    2.0130    0.0000 C.2     1  LIG1       -0.0305
     21 C           2.2420    2.0130    0.0000 C.3     1  LIG1        0.0311
     22 C           2.3580    0.9040    0.0000 C.3     1  LIG1        0.0096
     23 O           0.0630    1.6130    0.0000 O.2     1  LIG1       -0.2741
@<TRIPOS>BOND
     1     1     2    1
     2     1    13   am
     3     1    16   am
     4     2     3   ar
     5     2     7   ar
     6     3     4   ar
     7     3    12    2
     8     4     5   ar
     9     5     6   ar
    10     5    11    2
    11     6     7   ar
    12     6     8   am
    13     8     9    2
    14     8    10    1
    15    13    14    1
    16    13    23    2
    17    14    15    1
    18    14    21    1
    19    15    16    1
    20    15    18    1
    21    16    17    2
    22    18    19    1
    23    18    22    1
    24    19    20    2
    25    20    21    1
    26    21    22    1
