@<TRIPOS>MOLECULE
34169_ChemDiv_8012-7974
 28 32 0 0 0
SMALL
GASTEIGER
Energy = 0

@<TRIPOS>ATOM
      1 S           1.6000   -0.4380    0.0000 S.O2    1  LIG1        0.0666
      2 C           2.6040   -0.4250    0.0000 C.ar    1  LIG1        0.1568
      3 C           3.1080   -1.2920    0.0000 C.ar    1  LIG1        0.0344
      4 C           4.1210   -1.2920    0.0000 C.ar    1  LIG1        0.0592
      5 C           4.6080   -0.4250    0.0000 C.ar    1  LIG1        0.0146
      6 C           4.1040    0.4380    0.0000 C.ar    1  LIG1        0.0392
      7 C           3.0920    0.4250    0.0000 C.ar    1  LIG1        0.1572
      8 O           2.5920    1.2920    0.0000 O.3     1  LIG1       -0.4701
      9 C           3.0790    2.1670    0.0000 C.3     1  LIG1        0.2525
     10 CL          4.6210   -2.1630    0.0000 Cl      1  LIG1       -0.0822
     11 N           0.5920   -0.4000    0.0000 N.3     1  LIG1       -0.1432
     12 C           0.1170    0.4630    0.0000 C.3     1  LIG1        0.1584
     13 C          -0.9000    0.5000    0.0000 C.3     1  LIG1        0.1575
     14 N          -1.4080   -0.3420    0.0000 N.4     1  LIG1        0.3713
     15 C          -2.4250   -0.3170    0.0000 C.3     1  LIG1        0.0457
     16 C          -2.7040    0.5500    0.0000 C.3     1  LIG1        0.0512
     17 C          -3.6670    0.5580    0.0000 C.3     1  LIG1        0.0055
     18 C          -4.4830    1.3670    0.0000 C.3     1  LIG1        0.0004
     19 C          -4.2420    0.3790    0.0000 C.3     1  LIG1        0.0055
     20 C          -3.2040    0.3670    0.0000 C.3     1  LIG1        0.0512
     21 C          -4.6250   -0.5170    0.0000 C.3     1  LIG1        0.0004
     22 C          -3.8040   -1.1920    0.0000 C.3     1  LIG1        0.0055
     23 C          -2.8130   -1.2290    0.0000 C.3     1  LIG1        0.0512
     24 C          -4.0080   -0.2790    0.0000 C.3     1  LIG1        0.0004
     25 C          -0.9330   -1.2290    0.0000 C.3     1  LIG1        0.1575
     26 C           0.0670   -1.2540    0.0000 C.3     1  LIG1        0.1584
     27 O           1.6210    0.5580    0.0000 O.2     1  LIG1       -0.1527
     28 O           1.5920   -1.4380    0.0000 O.2     1  LIG1       -0.1527
@<TRIPOS>BOND
     1     1     2    1
     2     1    11    1
     3     1    27    2
     4     1    28    2
     5     2     3   ar
     6     2     7   ar
     7     3     4   ar
     8     4     5   ar
     9     4    10    1
    10     5     6   ar
    11     6     7   ar
    12     7     8    1
    13     8     9    1
    14    11    12    1
    15    11    26    1
    16    12    13    1
    17    13    14    1
    18    14    15    1
    19    14    25    1
    20    15    16    1
    21    15    20    1
    22    15    23    1
    23    16    17    1
    24    17    18    1
    25    17    24    1
    26    18    19    1
    27    19    20    1
    28    19    21    1
    29    21    22    1
    30    22    23    1
    31    22    24    1
    32    25    26    1
