@<TRIPOS>MOLECULE
34166_ChemDiv_8013-0834
 21 23 0 0 0
SMALL
GASTEIGER
Energy = 0

@<TRIPOS>ATOM
      1 C           1.6750   -0.3040    0.0000 C.ar    1  LIG1        0.0296
      2 C           1.6750    0.6580    0.0000 C.ar    1  LIG1        0.0296
      3 C          -0.0250    0.6580    0.0000 C.ar    1  LIG1        0.0426
      4 N          -0.0250   -0.3040    0.0000 N.ar    1  LIG1       -0.3133
      5 C           0.8170   -0.7880    0.0000 C.ar    1  LIG1        0.0426
      6 C           0.8170   -1.7960    0.0000 C.3     1  LIG1        0.0504
      7 C          -0.8710   -0.7580    0.0000 C.ar    1  LIG1        0.0664
      8 C          -1.7210   -0.2670    0.0000 C.ar    1  LIG1        0.0544
      9 C          -2.5380   -0.7580    0.0000 C.ar    1  LIG1        0.1402
     10 O          -3.3790   -0.2670    0.0000 O.3     1  LIG1       -0.4714
     11 C          -3.3790    0.7000    0.0000 C.3     1  LIG1        0.2525
     12 C          -2.5380   -1.6790    0.0000 C.ar    1  LIG1        0.0370
     13 C          -1.6880   -2.1290    0.0000 C.ar    1  LIG1        0.0046
     14 C          -0.8710   -1.6790    0.0000 C.ar    1  LIG1        0.0177
     15 C          -0.8830    1.1380    0.0000 C.3     1  LIG1        0.0504
     16 C           2.5250    1.1380    0.0000 C.ar    1  LIG1        0.0820
     17 N           3.3750    0.6580    0.0000 N.ar    1  LIG1       -0.1526
     18 N           3.3750   -0.3040    0.0000 N.ar    1  LIG1       -0.1526
     19 C           2.5250   -0.7880    0.0000 C.ar    1  LIG1        0.0820
     20 C           2.5250   -1.7830    0.0000 C.3     1  LIG1        0.0540
     21 C           2.5250    2.1330    0.0000 C.3     1  LIG1        0.0540
@<TRIPOS>BOND
     1     1     2   ar
     2     1     5   ar
     3     1    19   ar
     4     2     3   ar
     5     2    16   ar
     6     3     4   ar
     7     3    15    1
     8     4     5   ar
     9     4     7    1
    10     5     6    1
    11     7     8   ar
    12     7    14   ar
    13     8     9   ar
    14     9    10    1
    15     9    12   ar
    16    10    11    1
    17    12    13   ar
    18    13    14   ar
    19    16    17   ar
    20    16    21    1
    21    17    18   ar
    22    18    19   ar
    23    19    20    1
