@<TRIPOS>MOLECULE
34161_ChemDiv_8012-7896
 17 18 0 0 0
SMALL
GASTEIGER
Energy = 0

@<TRIPOS>ATOM
      1 S          -0.1000    0.5630    0.0000 S.O2    1  LIG1        0.1727
      2 N          -1.0000    0.0250    0.0000 N.pl3   1  LIG1        0.1238
      3 C          -1.8130    0.5040    0.0000 C.2     1  LIG1        0.3617
      4 N          -2.5750   -0.0580    0.0000 N.2     1  LIG1       -0.0643
      5 C          -3.3170    0.5040    0.0000 C.3     1  LIG1        0.2636
      6 C          -3.3170    1.3710    0.0000 C.3     1  LIG1        0.0707
      7 C          -1.8130    1.3710    0.0000 C.3     1  LIG1        0.1277
      8 C           0.7580   -0.0170    0.0000 C.ar    1  LIG1        0.1458
      9 C           1.5630    0.4880    0.0000 C.ar    1  LIG1        0.0014
     10 C           2.4420    0.0250    0.0000 C.ar    1  LIG1        0.0268
     11 C           2.4420   -0.9460    0.0000 C.ar    1  LIG1        0.1399
     12 C           1.6290   -1.4750    0.0000 C.ar    1  LIG1        0.0311
     13 C           0.7580   -1.0040    0.0000 C.ar    1  LIG1        0.0243
     14 F           3.3130   -1.4250    0.0000 F       1  LIG1       -0.2042
     15 C           1.5630    1.4790    0.0000 C.3     1  LIG1        0.0326
     16 O          -0.1000    1.4460    0.0000 O.2     1  LIG1       -0.1267
     17 O          -0.1000   -0.5710    0.0000 O.2     1  LIG1       -0.1267
@<TRIPOS>BOND
     1     1     2    1
     2     1     8    1
     3     1    16    2
     4     1    17    2
     5     2     3    1
     6     3     4    2
     7     3     7    1
     8     4     5    1
     9     5     6    1
    10     6     7    1
    11     8     9   ar
    12     8    13   ar
    13     9    10   ar
    14     9    15    1
    15    10    11   ar
    16    11    12   ar
    17    11    14    1
    18    12    13   ar
