@<TRIPOS>MOLECULE
34167_ChemDiv_8012-7972
 29 33 0 0 0
SMALL
GASTEIGER
Energy = 0

@<TRIPOS>ATOM
      1 S           1.1000   -0.8040    0.0000 S.O2    1  LIG1        0.0666
      2 C           2.1000   -0.7920    0.0000 C.ar    1  LIG1        0.1568
      3 C           2.5880    0.0630    0.0000 C.ar    1  LIG1        0.1684
      4 C           3.6000    0.0750    0.0000 C.ar    1  LIG1        0.1034
      5 C           4.1000   -0.7920    0.0000 C.ar    1  LIG1        0.0712
      6 C           3.6130   -1.6580    0.0000 C.ar    1  LIG1        0.0138
      7 C           2.6040   -1.6580    0.0000 C.ar    1  LIG1        0.0239
      8 CL          5.1170   -0.7830    0.0000 Cl      1  LIG1       -0.0813
      9 CL          4.0880    0.9420    0.0000 Cl      1  LIG1       -0.0782
     10 O           2.0920    0.9250    0.0000 O.3     1  LIG1       -0.4692
     11 C           2.5790    1.8040    0.0000 C.3     1  LIG1        0.2526
     12 N           0.0880   -0.7630    0.0000 N.3     1  LIG1       -0.1432
     13 C          -0.3830    0.0960    0.0000 C.3     1  LIG1        0.1584
     14 C          -1.4000    0.1380    0.0000 C.3     1  LIG1        0.1575
     15 N          -1.9080   -0.7080    0.0000 N.4     1  LIG1        0.3713
     16 C          -2.9210   -0.6790    0.0000 C.3     1  LIG1        0.0457
     17 C          -3.3080   -1.5960    0.0000 C.3     1  LIG1        0.0512
     18 C          -4.3000   -1.5580    0.0000 C.3     1  LIG1        0.0055
     19 C          -5.1210   -0.8790    0.0000 C.3     1  LIG1        0.0004
     20 C          -4.7380    0.0130    0.0000 C.3     1  LIG1        0.0055
     21 C          -3.7000    0.0000    0.0000 C.3     1  LIG1        0.0512
     22 C          -4.9830    1.0000    0.0000 C.3     1  LIG1        0.0004
     23 C          -4.1670    0.1920    0.0000 C.3     1  LIG1        0.0055
     24 C          -3.2040    0.1830    0.0000 C.3     1  LIG1        0.0512
     25 C          -4.5080   -0.6460    0.0000 C.3     1  LIG1        0.0004
     26 C          -1.4330   -1.5960    0.0000 C.3     1  LIG1        0.1575
     27 C          -0.4330   -1.6210    0.0000 C.3     1  LIG1        0.1584
     28 O           1.1170    0.1920    0.0000 O.2     1  LIG1       -0.1527
     29 O           1.0920   -1.8000    0.0000 O.2     1  LIG1       -0.1527
@<TRIPOS>BOND
     1     1     2    1
     2     1    12    1
     3     1    28    2
     4     1    29    2
     5     2     3   ar
     6     2     7   ar
     7     3     4   ar
     8     3    10    1
     9     4     5   ar
    10     4     9    1
    11     5     6   ar
    12     5     8    1
    13     6     7   ar
    14    10    11    1
    15    12    13    1
    16    12    27    1
    17    13    14    1
    18    14    15    1
    19    15    16    1
    20    15    26    1
    21    16    17    1
    22    16    21    1
    23    16    24    1
    24    17    18    1
    25    18    19    1
    26    18    25    1
    27    19    20    1
    28    20    21    1
    29    20    22    1
    30    22    23    1
    31    23    24    1
    32    23    25    1
    33    26    27    1
