@<TRIPOS>MOLECULE
34165_ChemDiv_8012-7971
 28 32 0 0 0
SMALL
GASTEIGER
Energy = 0

@<TRIPOS>ATOM
      1 S           1.1000   -0.4000    0.0000 S.O2    1  LIG1        0.0638
      2 N           0.0880   -0.3630    0.0000 N.3     1  LIG1       -0.1433
      3 C          -0.3830    0.5000    0.0000 C.3     1  LIG1        0.1584
      4 C          -1.3960    0.5380    0.0000 C.3     1  LIG1        0.1575
      5 N          -1.9040   -0.3040    0.0000 N.4     1  LIG1        0.3713
      6 C          -2.9210   -0.2790    0.0000 C.3     1  LIG1        0.0457
      7 C          -3.7000    0.4040    0.0000 C.3     1  LIG1        0.0512
      8 C          -4.7330    0.4130    0.0000 C.3     1  LIG1        0.0055
      9 C          -5.1170   -0.4750    0.0000 C.3     1  LIG1        0.0004
     10 C          -4.2960   -1.1580    0.0000 C.3     1  LIG1        0.0055
     11 C          -3.3080   -1.1920    0.0000 C.3     1  LIG1        0.0512
     12 C          -4.5080   -0.2420    0.0000 C.3     1  LIG1        0.0004
     13 C          -4.1630    0.5960    0.0000 C.3     1  LIG1        0.0055
     14 C          -3.2040    0.5880    0.0000 C.3     1  LIG1        0.0512
     15 C          -4.9790    1.4040    0.0000 C.3     1  LIG1        0.0004
     16 C          -1.4330   -1.1920    0.0000 C.3     1  LIG1        0.1575
     17 C          -0.4330   -1.2170    0.0000 C.3     1  LIG1        0.1584
     18 C           2.1000   -0.3880    0.0000 C.ar    1  LIG1        0.1253
     19 C           2.5880    0.4630    0.0000 C.ar    1  LIG1        0.0577
     20 C           3.6000    0.4750    0.0000 C.ar    1  LIG1        0.1505
     21 C           4.1000   -0.3880    0.0000 C.ar    1  LIG1        0.0916
     22 C           3.6130   -1.2540    0.0000 C.ar    1  LIG1        0.0158
     23 C           2.6040   -1.2540    0.0000 C.ar    1  LIG1        0.0210
     24 CL          5.1130   -0.3790    0.0000 Cl      1  LIG1       -0.0791
     25 O           4.0880    1.3420    0.0000 O.3     1  LIG1       -0.4705
     26 C           5.1040    1.3540    0.0000 C.3     1  LIG1        0.2525
     27 O           1.1130    0.5960    0.0000 O.2     1  LIG1       -0.1528
     28 O           1.0920   -1.4000    0.0000 O.2     1  LIG1       -0.1528
@<TRIPOS>BOND
     1     1     2    1
     2     1    18    1
     3     1    27    2
     4     1    28    2
     5     2     3    1
     6     2    17    1
     7     3     4    1
     8     4     5    1
     9     5     6    1
    10     5    16    1
    11     6     7    1
    12     6    11    1
    13     6    14    1
    14     7     8    1
    15     8     9    1
    16     8    15    1
    17     9    10    1
    18    10    11    1
    19    10    12    1
    20    12    13    1
    21    13    14    1
    22    13    15    1
    23    16    17    1
    24    18    19   ar
    25    18    23   ar
    26    19    20   ar
    27    20    21   ar
    28    20    25    1
    29    21    22   ar
    30    21    24    1
    31    22    23   ar
    32    25    26    1
