@<TRIPOS>MOLECULE
34163_ChemDiv_8012-7968
 28 32 0 0 0
SMALL
GASTEIGER
Energy = 0

@<TRIPOS>ATOM
      1 S           0.3460   -0.3960    0.0000 S.O2    1  LIG1        0.0637
      2 N          -0.6540   -0.3710    0.0000 N.3     1  LIG1       -0.1433
      3 C          -1.1960   -1.2250    0.0000 C.3     1  LIG1        0.1584
      4 C          -2.1960   -1.2040    0.0000 C.3     1  LIG1        0.1575
      5 N          -2.6710   -0.3080    0.0000 N.4     1  LIG1        0.3713
      6 C          -3.6790   -0.2880    0.0000 C.3     1  LIG1        0.0457
      7 C          -3.9580    0.5790    0.0000 C.3     1  LIG1        0.0512
      8 C          -4.9330    0.6040    0.0000 C.3     1  LIG1        0.0055
      9 C          -5.7420    1.4080    0.0000 C.3     1  LIG1        0.0004
     10 C          -5.4830    0.4250    0.0000 C.3     1  LIG1        0.0055
     11 C          -4.4580    0.4000    0.0000 C.3     1  LIG1        0.0512
     12 C          -5.8710   -0.4710    0.0000 C.3     1  LIG1        0.0004
     13 C          -5.0710   -1.1630    0.0000 C.3     1  LIG1        0.0055
     14 C          -4.0580   -1.1880    0.0000 C.3     1  LIG1        0.0512
     15 C          -5.2630   -0.2500    0.0000 C.3     1  LIG1        0.0004
     16 C          -2.1460    0.5290    0.0000 C.3     1  LIG1        0.1575
     17 C          -1.1460    0.5040    0.0000 C.3     1  LIG1        0.1584
     18 C           1.3460   -0.3960    0.0000 C.ar    1  LIG1        0.1224
     19 C           1.8500   -1.2630    0.0000 C.ar    1  LIG1        0.0230
     20 C           2.8500   -1.2630    0.0000 C.ar    1  LIG1        0.0383
     21 C           3.3580   -0.3880    0.0000 C.ar    1  LIG1        0.1386
     22 C           2.8420    0.4670    0.0000 C.ar    1  LIG1        0.0383
     23 C           1.8420    0.4580    0.0000 C.ar    1  LIG1        0.0230
     24 O           4.3500   -0.3880    0.0000 O.3     1  LIG1       -0.4755
     25 C           4.8670   -1.2500    0.0000 C.3     1  LIG1        0.2055
     26 C           5.8670   -1.2380    0.0000 C.3     1  LIG1        0.0512
     27 O           0.3290   -1.4040    0.0000 O.2     1  LIG1       -0.1528
     28 O           0.3540    0.5880    0.0000 O.2     1  LIG1       -0.1528
@<TRIPOS>BOND
     1     1     2    1
     2     1    18    1
     3     1    27    2
     4     1    28    2
     5     2     3    1
     6     2    17    1
     7     3     4    1
     8     4     5    1
     9     5     6    1
    10     5    16    1
    11     6     7    1
    12     6    11    1
    13     6    14    1
    14     7     8    1
    15     8     9    1
    16     8    15    1
    17     9    10    1
    18    10    11    1
    19    10    12    1
    20    12    13    1
    21    13    14    1
    22    13    15    1
    23    16    17    1
    24    18    19   ar
    25    18    23   ar
    26    19    20   ar
    27    20    21   ar
    28    21    22   ar
    29    21    24    1
    30    22    23   ar
    31    24    25    1
    32    25    26    1
