@<TRIPOS>MOLECULE
34175_ChemDiv_8012-7977
 31 35 0 0 0
SMALL
GASTEIGER
Energy = 0

@<TRIPOS>ATOM
      1 S           1.5920    0.0000    0.0000 S.O2    1  LIG1        0.0667
      2 C           2.5960    0.0080    0.0000 C.ar    1  LIG1        0.1589
      3 C           3.1000   -0.8540    0.0000 C.ar    1  LIG1        0.0599
      4 C           4.1040   -0.8540    0.0000 C.ar    1  LIG1        0.1401
      5 C           4.5920    0.0080    0.0000 C.ar    1  LIG1        0.0401
      6 C           4.0920    0.8710    0.0000 C.ar    1  LIG1        0.0414
      7 C           3.0830    0.8630    0.0000 C.ar    1  LIG1        0.1572
      8 O           2.5830    1.7250    0.0000 O.3     1  LIG1       -0.4741
      9 C           3.0710    2.6000    0.0000 C.3     1  LIG1        0.2056
     10 C           2.5710    3.4710    0.0000 C.3     1  LIG1        0.0512
     11 O           4.6040   -1.7210    0.0000 O.3     1  LIG1       -0.4754
     12 C           4.1040   -2.6040    0.0000 C.3     1  LIG1        0.2055
     13 C           4.6210   -3.4670    0.0000 C.3     1  LIG1        0.0512
     14 N           0.5830    0.0330    0.0000 N.3     1  LIG1       -0.1432
     15 C           0.1130    0.9000    0.0000 C.3     1  LIG1        0.1584
     16 C          -0.9040    0.9330    0.0000 C.3     1  LIG1        0.1575
     17 N          -1.4130    0.0960    0.0000 N.4     1  LIG1        0.3713
     18 C          -2.4330    0.1210    0.0000 C.3     1  LIG1        0.0457
     19 C          -2.7080    0.9830    0.0000 C.3     1  LIG1        0.0512
     20 C          -3.6710    0.9920    0.0000 C.3     1  LIG1        0.0055
     21 C          -4.4920    1.8000    0.0000 C.3     1  LIG1        0.0004
     22 C          -4.2460    0.8080    0.0000 C.3     1  LIG1        0.0055
     23 C          -3.2080    0.8000    0.0000 C.3     1  LIG1        0.0512
     24 C          -4.6250   -0.0750    0.0000 C.3     1  LIG1        0.0004
     25 C          -3.8080   -0.7580    0.0000 C.3     1  LIG1        0.0055
     26 C          -2.8170   -0.7960    0.0000 C.3     1  LIG1        0.0512
     27 C          -4.0170    0.1540    0.0000 C.3     1  LIG1        0.0004
     28 C          -0.9420   -0.7960    0.0000 C.3     1  LIG1        0.1575
     29 C           0.0580   -0.8210    0.0000 C.3     1  LIG1        0.1584
     30 O           1.6040    0.9920    0.0000 O.2     1  LIG1       -0.1527
     31 O           1.5830   -1.0040    0.0000 O.2     1  LIG1       -0.1527
@<TRIPOS>BOND
     1     1     2    1
     2     1    14    1
     3     1    30    2
     4     1    31    2
     5     2     3   ar
     6     2     7   ar
     7     3     4   ar
     8     4     5   ar
     9     4    11    1
    10     5     6   ar
    11     6     7   ar
    12     7     8    1
    13     8     9    1
    14     9    10    1
    15    11    12    1
    16    12    13    1
    17    14    15    1
    18    14    29    1
    19    15    16    1
    20    16    17    1
    21    17    18    1
    22    17    28    1
    23    18    19    1
    24    18    23    1
    25    18    26    1
    26    19    20    1
    27    20    21    1
    28    20    27    1
    29    21    22    1
    30    22    23    1
    31    22    24    1
    32    24    25    1
    33    25    26    1
    34    25    27    1
    35    28    29    1
