@<TRIPOS>MOLECULE
34176_ChemDiv_8013-0925
 24 26 0 0 0
SMALL
GASTEIGER
Energy = 0

@<TRIPOS>ATOM
      1 S          -2.0670    0.3420    0.0000 S.O2    1  LIG1        0.0788
      2 C          -3.0210    0.3420    0.0000 C.ar    1  LIG1        0.1433
      3 C          -3.4750   -0.4500    0.0000 C.ar    1  LIG1        0.1274
      4 N          -3.0210   -1.2380    0.0000 N.ar    1  LIG1       -0.1888
      5 S          -3.4750   -2.0380    0.0000 S.2     1  LIG1        0.1165
      6 N          -4.3790   -2.0380    0.0000 N.ar    1  LIG1       -0.1901
      7 C          -4.3790   -0.4500    0.0000 C.ar    1  LIG1        0.1102
      8 C          -4.8250    0.3420    0.0000 C.ar    1  LIG1        0.0214
      9 C          -4.3790    1.1210    0.0000 C.ar    1  LIG1        0.0030
     10 C          -3.4750    1.1210    0.0000 C.ar    1  LIG1        0.0216
     11 N          -1.1080    0.3420    0.0000 N.3     1  LIG1       -0.0695
     12 C          -0.6330   -0.4790    0.0000 C.3     1  LIG1        0.1795
     13 C           0.3210   -0.4790    0.0000 C.ar    1  LIG1        0.1427
     14 O           0.7830    0.3630    0.0000 O.2     1  LIG1       -0.4497
     15 C           1.7580    0.3500    0.0000 C.ar    1  LIG1        0.2201
     16 C           2.2670    1.2000    0.0000 C.2     1  LIG1        0.3763
     17 O           1.7670    2.0420    0.0000 O.2     1  LIG1       -0.2414
     18 O           3.2710    1.2000    0.0000 O.3     1  LIG1       -0.4433
     19 C           3.7500    0.3290    0.0000 C.3     1  LIG1        0.2090
     20 C           4.8210    0.3420    0.0000 C.3     1  LIG1        0.0513
     21 C           1.7580   -1.2790    0.0000 C.ar    1  LIG1        0.0470
     22 C           0.7920   -1.2790    0.0000 C.ar    1  LIG1        0.0378
     23 O          -2.0670   -0.6330    0.0000 O.2     1  LIG1       -0.1515
     24 O          -2.0670    1.3040    0.0000 O.2     1  LIG1       -0.1515
@<TRIPOS>BOND
     1     1     2    1
     2     1    11    1
     3     1    23    2
     4     1    24    2
     5     2     3   ar
     6     2    10   ar
     7     3     4   ar
     8     3     7   ar
     9     4     5   ar
    10     5     6   ar
    11     6     7   ar
    12     7     8   ar
    13     8     9   ar
    14     9    10   ar
    15    11    12    1
    16    12    13    1
    17    13    14   ar
    18    13    22   ar
    19    14    15   ar
    20    15    16    1
    21    15    21   ar
    22    16    17    2
    23    16    18    1
    24    18    19    1
    25    19    20    1
    26    21    22   ar
