@<TRIPOS>MOLECULE
34170_ChemDiv_8013-0854
 29 32 0 0 0
SMALL
GASTEIGER
Energy = 0

@<TRIPOS>ATOM
      1 N           0.2580    0.0210    0.0000 N.am    1  LIG1       -0.2645
      2 C           1.2460    0.0290    0.0000 C.2     1  LIG1        0.2495
      3 C           1.7670   -0.8170    0.0000 C.2     1  LIG1        0.0580
      4 C           2.7500   -0.8170    0.0000 C.2     1  LIG1        0.0047
      5 C           3.2460    0.0380    0.0000 C.ar    1  LIG1        0.0001
      6 C           4.2420    0.0380    0.0000 C.ar    1  LIG1        0.0000
      7 C           4.7170    0.9290    0.0000 C.ar    1  LIG1        0.0000
      8 C           4.2130    1.8000    0.0000 C.ar    1  LIG1        0.0000
      9 C           3.2330    1.8080    0.0000 C.ar    1  LIG1        0.0000
     10 C           2.7290    0.8830    0.0000 C.ar    1  LIG1        0.0000
     11 O           1.7170    0.9380    0.0000 O.2     1  LIG1       -0.2699
     12 C          -0.2460   -0.8580    0.0000 C.3     1  LIG1        0.1567
     13 C          -1.2250   -0.8580    0.0000 C.3     1  LIG1        0.1612
     14 N          -1.7460    0.0130    0.0000 N.4     1  LIG1        0.3820
     15 C          -2.7170    0.0130    0.0000 C.3     1  LIG1        0.1331
     16 C          -3.2210   -0.8420    0.0000 C.ar    1  LIG1        0.0328
     17 C          -4.2170   -0.8500    0.0000 C.ar    1  LIG1        0.0016
     18 C          -4.7210   -1.7130    0.0000 C.ar    1  LIG1       -0.0001
     19 C          -4.2380   -2.5960    0.0000 C.ar    1  LIG1       -0.0000
     20 C          -3.2580   -2.5960    0.0000 C.ar    1  LIG1       -0.0001
     21 C          -2.7330   -1.7130    0.0000 C.ar    1  LIG1        0.0016
     22 C          -3.2290    0.8670    0.0000 C.ar    1  LIG1        0.0328
     23 C          -2.7330    1.7380    0.0000 C.ar    1  LIG1        0.0016
     24 C          -3.2460    2.6000    0.0000 C.ar    1  LIG1       -0.0001
     25 C          -4.2380    2.6000    0.0000 C.ar    1  LIG1       -0.0000
     26 C          -4.7130    1.7170    0.0000 C.ar    1  LIG1       -0.0001
     27 C          -4.2170    0.8670    0.0000 C.ar    1  LIG1        0.0016
     28 C          -1.2710    0.9040    0.0000 C.3     1  LIG1        0.1612
     29 C          -0.2540    0.9040    0.0000 C.3     1  LIG1        0.1567
@<TRIPOS>BOND
     1     1     2   am
     2     1    12    1
     3     1    29    1
     4     2     3    1
     5     2    11    2
     6     3     4    2
     7     4     5    1
     8     5     6   ar
     9     5    10   ar
    10     6     7   ar
    11     7     8   ar
    12     8     9   ar
    13     9    10   ar
    14    12    13    1
    15    13    14    1
    16    14    15    1
    17    14    28    1
    18    15    16    1
    19    15    22    1
    20    16    17   ar
    21    16    21   ar
    22    17    18   ar
    23    18    19   ar
    24    19    20   ar
    25    20    21   ar
    26    22    23   ar
    27    22    27   ar
    28    23    24   ar
    29    24    25   ar
    30    25    26   ar
    31    26    27   ar
    32    28    29    1
