@<TRIPOS>MOLECULE
34171_ChemDiv_8012-7975
 28 32 0 0 0
SMALL
GASTEIGER
Energy = 0

@<TRIPOS>ATOM
      1 S           1.1000   -0.0330    0.0000 S.O2    1  LIG1        0.0631
      2 C           2.1000   -0.0210    0.0000 C.ar    1  LIG1        0.1142
      3 C           2.6040   -0.8880    0.0000 C.ar    1  LIG1       -0.0039
      4 C           3.6130   -0.8880    0.0000 C.ar    1  LIG1       -0.0072
      5 C           4.1000   -0.0210    0.0000 C.ar    1  LIG1       -0.0224
      6 C           3.6000    0.8420    0.0000 C.ar    1  LIG1       -0.0072
      7 C           2.5880    0.8330    0.0000 C.ar    1  LIG1       -0.0039
      8 C           2.0880    1.6960    0.0000 C.3     1  LIG1        0.0324
      9 C           5.1130   -0.0130    0.0000 C.3     1  LIG1        0.0310
     10 C           2.1000   -1.7670    0.0000 C.3     1  LIG1        0.0324
     11 N           0.0880    0.0040    0.0000 N.3     1  LIG1       -0.1433
     12 C          -0.4330   -0.8500    0.0000 C.3     1  LIG1        0.1584
     13 C          -1.4330   -0.8250    0.0000 C.3     1  LIG1        0.1575
     14 N          -1.9040    0.0630    0.0000 N.4     1  LIG1        0.3713
     15 C          -2.9210    0.0880    0.0000 C.3     1  LIG1        0.0457
     16 C          -3.7000    0.7710    0.0000 C.3     1  LIG1        0.0512
     17 C          -4.7330    0.7790    0.0000 C.3     1  LIG1        0.0055
     18 C          -5.1170   -0.1080    0.0000 C.3     1  LIG1        0.0004
     19 C          -4.2960   -0.7920    0.0000 C.3     1  LIG1        0.0055
     20 C          -3.3080   -0.8250    0.0000 C.3     1  LIG1        0.0512
     21 C          -4.5080    0.1250    0.0000 C.3     1  LIG1        0.0004
     22 C          -4.1630    0.9630    0.0000 C.3     1  LIG1        0.0055
     23 C          -3.2040    0.9540    0.0000 C.3     1  LIG1        0.0512
     24 C          -4.9790    1.7710    0.0000 C.3     1  LIG1        0.0004
     25 C          -1.3960    0.9040    0.0000 C.3     1  LIG1        0.1575
     26 C          -0.3830    0.8670    0.0000 C.3     1  LIG1        0.1584
     27 O           1.0920   -1.0290    0.0000 O.2     1  LIG1       -0.1528
     28 O           1.1130    0.9630    0.0000 O.2     1  LIG1       -0.1528
@<TRIPOS>BOND
     1     1     2    1
     2     1    11    1
     3     1    27    2
     4     1    28    2
     5     2     3   ar
     6     2     7   ar
     7     3     4   ar
     8     3    10    1
     9     4     5   ar
    10     5     6   ar
    11     5     9    1
    12     6     7   ar
    13     7     8    1
    14    11    12    1
    15    11    26    1
    16    12    13    1
    17    13    14    1
    18    14    15    1
    19    14    25    1
    20    15    16    1
    21    15    20    1
    22    15    23    1
    23    16    17    1
    24    17    18    1
    25    17    24    1
    26    18    19    1
    27    19    20    1
    28    19    21    1
    29    21    22    1
    30    22    23    1
    31    22    24    1
    32    25    26    1
