@<TRIPOS>MOLECULE
34192_ChemDiv_8013-3999
 21 23 0 0 0
SMALL
GASTEIGER
Energy = 0

@<TRIPOS>ATOM
      1 C          -1.0460    0.3330    0.0000 C.ar    1  LIG1        0.2244
      2 C          -1.5540    1.2080    0.0000 C.ar    1  LIG1        0.1245
      3 C          -2.5290    1.2080    0.0000 C.ar    1  LIG1        0.2054
      4 C          -3.0420    0.3330    0.0000 C.ar    1  LIG1        0.0752
      5 C          -2.5580   -0.5210    0.0000 C.ar    1  LIG1        0.1281
      6 O          -1.5540   -0.5210    0.0000 O.2     1  LIG1       -0.4421
      7 C          -3.0920   -1.3750    0.0000 C.3     1  LIG1        0.0726
      8 O          -3.0420    2.0830    0.0000 O.2     1  LIG1       -0.2862
      9 C          -1.0460    2.0830    0.0000 C.2     1  LIG1        0.1809
     10 O          -1.5830    2.9630    0.0000 O.2     1  LIG1       -0.2911
     11 C          -0.0380    2.0710    0.0000 C.3     1  LIG1        0.0775
     12 N          -0.0500    0.3330    0.0000 N.pl3   1  LIG1       -0.1787
     13 C           0.4630   -0.5210    0.0000 C.ar    1  LIG1        0.0768
     14 C           1.4670   -0.5210    0.0000 C.ar    1  LIG1        0.0568
     15 C           1.9540   -1.3750    0.0000 C.ar    1  LIG1        0.1777
     16 C           1.4880   -2.2500    0.0000 C.ar    1  LIG1        0.1765
     17 O           2.1960   -2.9580    0.0000 O.3     1  LIG1       -0.4346
     18 C           3.0880   -2.4960    0.0000 C.3     1  LIG1        0.4294
     19 O           2.9000   -1.4960    0.0000 O.3     1  LIG1       -0.4346
     20 C           0.4920   -2.2500    0.0000 C.ar    1  LIG1        0.0415
     21 C          -0.0250   -1.4000    0.0000 C.ar    1  LIG1        0.0199
@<TRIPOS>BOND
     1     1     2   ar
     2     1     6   ar
     3     1    12    1
     4     2     3   ar
     5     2     9    1
     6     3     4   ar
     7     3     8    2
     8     4     5   ar
     9     5     6   ar
    10     5     7    1
    11     9    10    2
    12     9    11    1
    13    12    13    1
    14    13    14   ar
    15    13    21   ar
    16    14    15   ar
    17    15    16   ar
    18    15    19    1
    19    16    17    1
    20    16    20   ar
    21    17    18    1
    22    18    19    1
    23    20    21   ar
