@<TRIPOS>MOLECULE
34190_ChemDiv_8013-3998
 19 20 0 0 0
SMALL
GASTEIGER
Energy = 0

@<TRIPOS>ATOM
      1 C          -0.5290    0.3880    0.0000 C.ar    1  LIG1        0.2244
      2 C          -1.5170    0.3880    0.0000 C.ar    1  LIG1        0.1245
      3 C          -2.0080   -0.4880    0.0000 C.ar    1  LIG1        0.2054
      4 C          -1.5250   -1.3250    0.0000 C.ar    1  LIG1        0.0752
      5 C          -0.5290   -1.3380    0.0000 C.ar    1  LIG1        0.1281
      6 O          -0.0170   -0.4630    0.0000 O.2     1  LIG1       -0.4421
      7 C          -0.0170   -2.2130    0.0000 C.3     1  LIG1        0.0726
      8 O          -3.0170   -0.4880    0.0000 O.2     1  LIG1       -0.2862
      9 C          -2.0080    1.2580    0.0000 C.2     1  LIG1        0.1809
     10 O          -3.0290    1.2580    0.0000 O.2     1  LIG1       -0.2911
     11 C          -1.5170    2.1380    0.0000 C.3     1  LIG1        0.0775
     12 N          -0.0380    1.2830    0.0000 N.pl3   1  LIG1       -0.1788
     13 C           0.9830    1.2960    0.0000 C.ar    1  LIG1        0.0732
     14 C           1.4880    0.4750    0.0000 C.ar    1  LIG1        0.0124
     15 C           2.4830    0.4880    0.0000 C.ar    1  LIG1       -0.0206
     16 C           2.9460    1.3750    0.0000 C.ar    1  LIG1       -0.0042
     17 C           2.4420    2.2170    0.0000 C.ar    1  LIG1        0.0010
     18 C           1.4420    2.2040    0.0000 C.ar    1  LIG1        0.0166
     19 C           3.0250   -0.3420    0.0000 C.3     1  LIG1        0.0311
@<TRIPOS>BOND
     1     1     2   ar
     2     1     6   ar
     3     1    12    1
     4     2     3   ar
     5     2     9    1
     6     3     4   ar
     7     3     8    2
     8     4     5   ar
     9     5     6   ar
    10     5     7    1
    11     9    10    2
    12     9    11    1
    13    12    13    1
    14    13    14   ar
    15    13    18   ar
    16    14    15   ar
    17    15    16   ar
    18    15    19    1
    19    16    17   ar
    20    17    18   ar
