@<TRIPOS>MOLECULE
34195_ChemDiv_8012-7979
 32 37 0 0 0
SMALL
GASTEIGER
Energy = 0

@<TRIPOS>ATOM
      1 S           0.3420    0.3920    0.0000 S.O2    1  LIG1        0.0637
      2 C           1.3460    0.4040    0.0000 C.ar    1  LIG1        0.1224
      3 C           1.8580   -0.4630    0.0000 C.ar    1  LIG1        0.0215
      4 C           2.8580   -0.4630    0.0000 C.ar    1  LIG1        0.0353
      5 C           3.3460    0.4040    0.0000 C.ar    1  LIG1        0.1385
      6 C           2.8420    1.2670    0.0000 C.ar    1  LIG1        0.0383
      7 C           1.8330    1.2580    0.0000 C.ar    1  LIG1        0.0230
      8 O           4.3540    0.4130    0.0000 O.3     1  LIG1       -0.4755
      9 C           4.8710   -0.4500    0.0000 C.3     1  LIG1        0.2055
     10 C           5.8750   -0.4500    0.0000 C.3     1  LIG1        0.0512
     11 C           3.3580   -1.3290    0.0000 C.ar    1  LIG1        0.0031
     12 C           2.8580   -2.1920    0.0000 C.ar    1  LIG1        0.0001
     13 C           1.8580   -2.1920    0.0000 C.ar    1  LIG1        0.0000
     14 C           1.3580   -1.3290    0.0000 C.ar    1  LIG1        0.0014
     15 N          -0.6710    0.4290    0.0000 N.3     1  LIG1       -0.1433
     16 C          -1.1380    1.2960    0.0000 C.3     1  LIG1        0.1584
     17 C          -2.1580    1.3250    0.0000 C.3     1  LIG1        0.1575
     18 N          -2.6670    0.4880    0.0000 N.4     1  LIG1        0.3713
     19 C          -3.6790    0.5130    0.0000 C.3     1  LIG1        0.0457
     20 C          -4.0670   -0.4000    0.0000 C.3     1  LIG1        0.0512
     21 C          -5.0580   -0.3630    0.0000 C.3     1  LIG1        0.0055
     22 C          -5.8790    0.3170    0.0000 C.3     1  LIG1        0.0004
     23 C          -5.4960    1.2040    0.0000 C.3     1  LIG1        0.0055
     24 C          -4.4630    1.1960    0.0000 C.3     1  LIG1        0.0512
     25 C          -5.7420    2.1960    0.0000 C.3     1  LIG1        0.0004
     26 C          -4.9210    1.3920    0.0000 C.3     1  LIG1        0.0055
     27 C          -3.9630    1.3790    0.0000 C.3     1  LIG1        0.0512
     28 C          -5.2670    0.5540    0.0000 C.3     1  LIG1        0.0004
     29 C          -2.1920   -0.4000    0.0000 C.3     1  LIG1        0.1575
     30 C          -1.1920   -0.4250    0.0000 C.3     1  LIG1        0.1584
     31 O           0.3330   -0.6040    0.0000 O.2     1  LIG1       -0.1528
     32 O           0.3580    1.3920    0.0000 O.2     1  LIG1       -0.1528
@<TRIPOS>BOND
     1     1     2    1
     2     1    15    1
     3     1    31    2
     4     1    32    2
     5     2     3   ar
     6     2     7   ar
     7     3     4   ar
     8     3    14   ar
     9     4     5   ar
    10     4    11   ar
    11     5     6   ar
    12     5     8    1
    13     6     7   ar
    14     8     9    1
    15     9    10    1
    16    11    12   ar
    17    12    13   ar
    18    13    14   ar
    19    15    16    1
    20    15    30    1
    21    16    17    1
    22    17    18    1
    23    18    19    1
    24    18    29    1
    25    19    20    1
    26    19    24    1
    27    19    27    1
    28    20    21    1
    29    21    22    1
    30    21    28    1
    31    22    23    1
    32    23    24    1
    33    23    25    1
    34    25    26    1
    35    26    27    1
    36    26    28    1
    37    29    30    1
