@<TRIPOS>MOLECULE
34198_ChemDiv_8013-1011
 34 39 0 0 0
SMALL
GASTEIGER
Energy = 0

@<TRIPOS>ATOM
      1 S          -0.5000    0.8500    0.0000 S.O2    1  LIG1        0.0637
      2 N          -1.6670    0.1880    0.0000 N.3     1  LIG1       -0.1433
      3 C          -2.5880    0.5670    0.0000 C.3     1  LIG1        0.1584
      4 C          -3.3880    0.1170    0.0000 C.3     1  LIG1        0.1575
      5 N          -3.4830   -0.8500    0.0000 N.4     1  LIG1        0.3713
      6 C          -4.2630   -1.2040    0.0000 C.3     1  LIG1        0.0457
      7 C          -4.4040   -2.0580    0.0000 C.3     1  LIG1        0.0512
      8 C          -5.3960   -2.1540    0.0000 C.3     1  LIG1        0.0055
      9 C          -6.0330   -2.9750    0.0000 C.3     1  LIG1        0.0004
     10 C          -5.8670   -2.1290    0.0000 C.3     1  LIG1        0.0055
     11 C          -4.8080   -1.9130    0.0000 C.3     1  LIG1        0.0512
     12 C          -6.4170   -1.1580    0.0000 C.3     1  LIG1        0.0004
     13 C          -5.8210   -0.2880    0.0000 C.3     1  LIG1        0.0055
     14 C          -4.7830   -0.3540    0.0000 C.3     1  LIG1        0.0512
     15 C          -6.1080   -1.0130    0.0000 C.3     1  LIG1        0.0004
     16 C          -2.6080   -1.2040    0.0000 C.3     1  LIG1        0.1575
     17 C          -1.7830   -0.8040    0.0000 C.3     1  LIG1        0.1584
     18 C           0.3460    1.4670    0.0000 C.ar    1  LIG1        0.1223
     19 C           1.1960    0.9960    0.0000 C.ar    1  LIG1        0.0245
     20 C           2.0710    1.5130    0.0000 C.ar    1  LIG1        0.0567
     21 C           2.9080    1.0420    0.0000 C.2     1  LIG1        0.2690
     22 N           3.7880    1.6080    0.0000 N.am    1  LIG1       -0.1754
     23 C           4.6420    1.1330    0.0000 C.ar    1  LIG1        0.0737
     24 C           4.6420    0.1880    0.0000 C.ar    1  LIG1        0.0166
     25 C           5.4920   -0.3330    0.0000 C.ar    1  LIG1        0.0013
     26 C           6.4170    0.2330    0.0000 C.ar    1  LIG1        0.0001
     27 C           6.3630    1.1790    0.0000 C.ar    1  LIG1        0.0013
     28 C           5.5130    1.6540    0.0000 C.ar    1  LIG1        0.0166
     29 O           2.9420    0.0710    0.0000 O.2     1  LIG1       -0.2680
     30 C           1.9790    2.5080    0.0000 C.ar    1  LIG1        0.0047
     31 C           1.1250    2.9790    0.0000 C.ar    1  LIG1        0.0015
     32 C           0.2960    2.4580    0.0000 C.ar    1  LIG1        0.0199
     33 O           0.0880    0.0500    0.0000 O.2     1  LIG1       -0.1528
     34 O          -1.1000    1.7500    0.0000 O.2     1  LIG1       -0.1528
@<TRIPOS>BOND
     1     1     2    1
     2     1    18    1
     3     1    33    2
     4     1    34    2
     5     2     3    1
     6     2    17    1
     7     3     4    1
     8     4     5    1
     9     5     6    1
    10     5    16    1
    11     6     7    1
    12     6    11    1
    13     6    14    1
    14     7     8    1
    15     8     9    1
    16     8    15    1
    17     9    10    1
    18    10    11    1
    19    10    12    1
    20    12    13    1
    21    13    14    1
    22    13    15    1
    23    16    17    1
    24    18    19   ar
    25    18    32   ar
    26    19    20   ar
    27    20    21    1
    28    20    30   ar
    29    21    22   am
    30    21    29    2
    31    22    23    1
    32    23    24   ar
    33    23    28   ar
    34    24    25   ar
    35    25    26   ar
    36    26    27   ar
    37    27    28   ar
    38    30    31   ar
    39    31    32   ar
