@<TRIPOS>MOLECULE
34193_ChemDiv_8012-7978
 31 36 0 0 0
SMALL
GASTEIGER
Energy = 0

@<TRIPOS>ATOM
      1 S           0.8420    0.3960    0.0000 S.O2    1  LIG1        0.0637
      2 C           1.8420    0.4040    0.0000 C.ar    1  LIG1        0.1224
      3 C           2.3580   -0.4540    0.0000 C.ar    1  LIG1        0.0215
      4 C           3.3580   -0.4540    0.0000 C.ar    1  LIG1        0.0353
      5 C           3.8460    0.4040    0.0000 C.ar    1  LIG1        0.1387
      6 C           3.3420    1.2710    0.0000 C.ar    1  LIG1        0.0383
      7 C           2.3290    1.2580    0.0000 C.ar    1  LIG1        0.0230
      8 O           4.8580    0.4170    0.0000 O.3     1  LIG1       -0.4714
      9 C           5.3710   -0.4500    0.0000 C.3     1  LIG1        0.2525
     10 C           3.8540   -1.3290    0.0000 C.ar    1  LIG1        0.0031
     11 C           3.3580   -2.1920    0.0000 C.ar    1  LIG1        0.0001
     12 C           2.3580   -2.1920    0.0000 C.ar    1  LIG1        0.0000
     13 C           1.8540   -1.3290    0.0000 C.ar    1  LIG1        0.0014
     14 N          -0.1670    0.4290    0.0000 N.3     1  LIG1       -0.1433
     15 C          -0.6380    1.2960    0.0000 C.3     1  LIG1        0.1584
     16 C          -1.6580    1.3330    0.0000 C.3     1  LIG1        0.1575
     17 N          -2.1670    0.4920    0.0000 N.4     1  LIG1        0.3713
     18 C          -3.1790    0.5170    0.0000 C.3     1  LIG1        0.0457
     19 C          -3.5670   -0.3960    0.0000 C.3     1  LIG1        0.0512
     20 C          -4.5580   -0.3630    0.0000 C.3     1  LIG1        0.0055
     21 C          -5.3750    0.3170    0.0000 C.3     1  LIG1        0.0004
     22 C          -4.9960    1.2080    0.0000 C.3     1  LIG1        0.0055
     23 C          -3.9580    1.1960    0.0000 C.3     1  LIG1        0.0512
     24 C          -5.2380    2.1960    0.0000 C.3     1  LIG1        0.0004
     25 C          -4.4250    1.3920    0.0000 C.3     1  LIG1        0.0055
     26 C          -3.4580    1.3830    0.0000 C.3     1  LIG1        0.0512
     27 C          -4.7670    0.5540    0.0000 C.3     1  LIG1        0.0004
     28 C          -1.6920   -0.3960    0.0000 C.3     1  LIG1        0.1575
     29 C          -0.6920   -0.4250    0.0000 C.3     1  LIG1        0.1584
     30 O           0.8290   -0.6040    0.0000 O.2     1  LIG1       -0.1528
     31 O           0.8580    1.3920    0.0000 O.2     1  LIG1       -0.1528
@<TRIPOS>BOND
     1     1     2    1
     2     1    14    1
     3     1    30    2
     4     1    31    2
     5     2     3   ar
     6     2     7   ar
     7     3     4   ar
     8     3    13   ar
     9     4     5   ar
    10     4    10   ar
    11     5     6   ar
    12     5     8    1
    13     6     7   ar
    14     8     9    1
    15    10    11   ar
    16    11    12   ar
    17    12    13   ar
    18    14    15    1
    19    14    29    1
    20    15    16    1
    21    16    17    1
    22    17    18    1
    23    17    28    1
    24    18    19    1
    25    18    23    1
    26    18    26    1
    27    19    20    1
    28    20    21    1
    29    20    27    1
    30    21    22    1
    31    22    23    1
    32    22    24    1
    33    24    25    1
    34    25    26    1
    35    25    27    1
    36    28    29    1
