@<TRIPOS>MOLECULE
34197_ChemDiv_8013-1540
 35 40 0 0 0
SMALL
GASTEIGER
Energy = 0

@<TRIPOS>ATOM
      1 S          -0.4830    0.9790    0.0000 S.O2    1  LIG1        0.0637
      2 N          -1.6880    0.2080    0.0000 N.3     1  LIG1       -0.1433
      3 C          -2.5960    0.5790    0.0000 C.3     1  LIG1        0.1584
      4 C          -3.3880    0.1210    0.0000 C.3     1  LIG1        0.1575
      5 N          -3.4920   -0.8250    0.0000 N.4     1  LIG1        0.3713
      6 C          -4.2880   -1.2000    0.0000 C.3     1  LIG1        0.0457
      7 C          -4.4210   -2.0330    0.0000 C.3     1  LIG1        0.0512
      8 C          -5.4080   -2.1210    0.0000 C.3     1  LIG1        0.0055
      9 C          -6.0420   -2.9540    0.0000 C.3     1  LIG1        0.0004
     10 C          -5.8710   -2.1000    0.0000 C.3     1  LIG1        0.0055
     11 C          -4.8170   -1.8790    0.0000 C.3     1  LIG1        0.0512
     12 C          -6.4170   -1.1500    0.0000 C.3     1  LIG1        0.0004
     13 C          -5.8250   -0.2540    0.0000 C.3     1  LIG1        0.0055
     14 C          -4.7920   -0.3420    0.0000 C.3     1  LIG1        0.0512
     15 C          -6.1040   -1.0000    0.0000 C.3     1  LIG1        0.0004
     16 C          -2.6170   -1.1790    0.0000 C.3     1  LIG1        0.1575
     17 C          -1.8000   -0.7790    0.0000 C.3     1  LIG1        0.1584
     18 C           0.4000    1.4630    0.0000 C.ar    1  LIG1        0.1235
     19 C           1.2380    0.9790    0.0000 C.ar    1  LIG1        0.0386
     20 C           2.0630    1.4630    0.0000 C.ar    1  LIG1        0.1116
     21 S           2.9460    0.9790    0.0000 S.O2    1  LIG1        0.0275
     22 C           3.8210    0.4500    0.0000 C.ar    1  LIG1        0.1103
     23 C           4.7040    0.9790    0.0000 C.ar    1  LIG1        0.0196
     24 C           5.5380    0.4500    0.0000 C.ar    1  LIG1        0.0127
     25 C           5.5380   -0.5210    0.0000 C.ar    1  LIG1        0.0578
     26 C           4.6540   -1.0000    0.0000 C.ar    1  LIG1        0.0127
     27 C           3.8210   -0.5210    0.0000 C.ar    1  LIG1        0.0196
     28 CL          6.4170   -1.0000    0.0000 Cl      1  LIG1       -0.0822
     29 O           3.4710    1.8580    0.0000 O.2     1  LIG1       -0.1642
     30 O           2.4630    0.0540    0.0000 O.2     1  LIG1       -0.1642
     31 C           2.0630    2.4750    0.0000 C.ar    1  LIG1        0.0188
     32 C           1.2380    2.9580    0.0000 C.ar    1  LIG1        0.0027
     33 C           0.4000    2.4750    0.0000 C.ar    1  LIG1        0.0200
     34 O           0.0460    0.0540    0.0000 O.2     1  LIG1       -0.1528
     35 O          -0.9670    1.8580    0.0000 O.2     1  LIG1       -0.1528
@<TRIPOS>BOND
     1     1     2    1
     2     1    18    1
     3     1    34    2
     4     1    35    2
     5     2     3    1
     6     2    17    1
     7     3     4    1
     8     4     5    1
     9     5     6    1
    10     5    16    1
    11     6     7    1
    12     6    11    1
    13     6    14    1
    14     7     8    1
    15     8     9    1
    16     8    15    1
    17     9    10    1
    18    10    11    1
    19    10    12    1
    20    12    13    1
    21    13    14    1
    22    13    15    1
    23    16    17    1
    24    18    19   ar
    25    18    33   ar
    26    19    20   ar
    27    20    21    1
    28    20    31   ar
    29    21    22    1
    30    21    29    2
    31    21    30    2
    32    22    23   ar
    33    22    27   ar
    34    23    24   ar
    35    24    25   ar
    36    25    26   ar
    37    25    28    1
    38    26    27   ar
    39    31    32   ar
    40    32    33   ar
