@<TRIPOS>MOLECULE
34207_ChemDiv_8013-3700
 29 33 0 0 0
SMALL
GASTEIGER
Energy = 0

@<TRIPOS>ATOM
      1 S           0.8460   -0.0420    0.0000 S.O2    1  LIG1        0.0645
      2 C           1.8460   -0.0380    0.0000 C.ar    1  LIG1        0.1337
      3 C           2.3460   -0.9000    0.0000 C.ar    1  LIG1        0.0352
      4 C           3.3460   -0.8920    0.0000 C.ar    1  LIG1        0.0929
      5 C           3.8380   -0.0290    0.0000 C.ar    1  LIG1        0.1501
      6 C           3.3330    0.8330    0.0000 C.ar    1  LIG1        0.0505
      7 C           2.3380    0.8250    0.0000 C.ar    1  LIG1        0.0793
      8 CL          1.8290    1.6920    0.0000 Cl      1  LIG1       -0.0807
      9 O           4.8460   -0.0210    0.0000 O.3     1  LIG1       -0.4705
     10 C           5.3540   -0.8880    0.0000 C.3     1  LIG1        0.2525
     11 CL          3.8500   -1.7630    0.0000 Cl      1  LIG1       -0.0790
     12 N          -0.1580   -0.0080    0.0000 N.3     1  LIG1       -0.1433
     13 C          -0.6330    0.8670    0.0000 C.3     1  LIG1        0.1584
     14 C          -1.6380    0.8960    0.0000 C.3     1  LIG1        0.1575
     15 N          -2.1540    0.0460    0.0000 N.4     1  LIG1        0.3713
     16 C          -3.1580    0.0710    0.0000 C.3     1  LIG1        0.0457
     17 C          -3.9420    0.7580    0.0000 C.3     1  LIG1        0.0512
     18 C          -4.9750    0.7790    0.0000 C.3     1  LIG1        0.0055
     19 C          -5.3580   -0.1170    0.0000 C.3     1  LIG1        0.0004
     20 C          -4.5420   -0.8000    0.0000 C.3     1  LIG1        0.0055
     21 C          -3.5420   -0.8290    0.0000 C.3     1  LIG1        0.0512
     22 C          -4.7460    0.1130    0.0000 C.3     1  LIG1        0.0004
     23 C          -4.4080    0.9630    0.0000 C.3     1  LIG1        0.0055
     24 C          -3.4330    0.9460    0.0000 C.3     1  LIG1        0.0512
     25 C          -5.2250    1.7670    0.0000 C.3     1  LIG1        0.0004
     26 C          -1.6790   -0.8330    0.0000 C.3     1  LIG1        0.1575
     27 C          -0.6880   -0.8630    0.0000 C.3     1  LIG1        0.1584
     28 O           0.8330   -1.0420    0.0000 O.2     1  LIG1       -0.1527
     29 O           0.8580    0.9580    0.0000 O.2     1  LIG1       -0.1527
@<TRIPOS>BOND
     1     1     2    1
     2     1    12    1
     3     1    28    2
     4     1    29    2
     5     2     3   ar
     6     2     7   ar
     7     3     4   ar
     8     4     5   ar
     9     4    11    1
    10     5     6   ar
    11     5     9    1
    12     6     7   ar
    13     7     8    1
    14     9    10    1
    15    12    13    1
    16    12    27    1
    17    13    14    1
    18    14    15    1
    19    15    16    1
    20    15    26    1
    21    16    17    1
    22    16    21    1
    23    16    24    1
    24    17    18    1
    25    18    19    1
    26    18    25    1
    27    19    20    1
    28    20    21    1
    29    20    22    1
    30    22    23    1
    31    23    24    1
    32    23    25    1
    33    26    27    1
