@<TRIPOS>MOLECULE
34206_ChemDiv_8013-1094
 19 22 0 0 0
SMALL
GASTEIGER
Energy = 0

@<TRIPOS>ATOM
      1 C           0.3500    0.7460    0.0000 C.ar    1  LIG1        0.0325
      2 C           1.2000    1.2460    0.0000 C.ar    1  LIG1        0.0072
      3 C           2.0540    0.7460    0.0000 C.ar    1  LIG1        0.0056
      4 C           2.0540   -0.2500    0.0000 C.ar    1  LIG1       -0.0019
      5 C           1.2000   -0.7460    0.0000 C.ar    1  LIG1       -0.0004
      6 C           0.3500   -0.2500    0.0000 C.ar    1  LIG1        0.0012
      7 C           1.2000   -1.8080    0.0000 C.ar    1  LIG1       -0.0000
      8 C           2.0540   -2.3080    0.0000 C.ar    1  LIG1       -0.0000
      9 C           2.9130   -1.8080    0.0000 C.ar    1  LIG1       -0.0000
     10 C           2.9130   -0.7460    0.0000 C.ar    1  LIG1       -0.0002
     11 C           2.7670    1.3830    0.0000 C.3     1  LIG1        0.1688
     12 O           2.4130    2.3130    0.0000 O.3     1  LIG1       -0.3443
     13 C           1.4170    2.2380    0.0000 C.3     1  LIG1        0.1687
     14 C          -0.5750    1.2460    0.0000 C.3     1  LIG1        0.1659
     15 N          -1.4250    0.7460    0.0000 N.4     1  LIG1        0.3807
     16 C          -1.4250   -0.2500    0.0000 C.3     1  LIG1        0.1392
     17 C          -2.3500   -0.6040    0.0000 C.3     1  LIG1        0.0689
     18 C          -2.9170    0.1750    0.0000 C.3     1  LIG1        0.0689
     19 C          -2.4210    1.0330    0.0000 C.3     1  LIG1        0.1392
@<TRIPOS>BOND
     1     1     2   ar
     2     1     6   ar
     3     1    14    1
     4     2     3   ar
     5     2    13    1
     6     3     4   ar
     7     3    11    1
     8     4     5   ar
     9     4    10   ar
    10     5     6   ar
    11     5     7   ar
    12     7     8   ar
    13     8     9   ar
    14     9    10   ar
    15    11    12    1
    16    12    13    1
    17    14    15    1
    18    15    16    1
    19    15    19    1
    20    16    17    1
    21    17    18    1
    22    18    19    1
