@<TRIPOS>MOLECULE
34201_ChemDiv_8013-3697
 28 32 0 0 0
SMALL
GASTEIGER
Energy = 0

@<TRIPOS>ATOM
      1 S           0.8460   -0.4000    0.0000 S.O2    1  LIG1        0.0637
      2 N          -0.1580   -0.3710    0.0000 N.3     1  LIG1       -0.1433
      3 C          -0.6880   -1.2250    0.0000 C.3     1  LIG1        0.1584
      4 C          -1.6880   -1.1960    0.0000 C.3     1  LIG1        0.1575
      5 N          -2.1630   -0.3130    0.0000 N.4     1  LIG1        0.3713
      6 C          -3.1580   -0.2880    0.0000 C.3     1  LIG1        0.0457
      7 C          -3.4460    0.5880    0.0000 C.3     1  LIG1        0.0512
      8 C          -4.4170    0.6040    0.0000 C.3     1  LIG1        0.0055
      9 C          -5.2290    1.4040    0.0000 C.3     1  LIG1        0.0004
     10 C          -4.9750    0.4210    0.0000 C.3     1  LIG1        0.0055
     11 C          -3.9420    0.4040    0.0000 C.3     1  LIG1        0.0512
     12 C          -5.3630   -0.4750    0.0000 C.3     1  LIG1        0.0004
     13 C          -4.5500   -1.1580    0.0000 C.3     1  LIG1        0.0055
     14 C          -3.5500   -1.1880    0.0000 C.3     1  LIG1        0.0512
     15 C          -4.7500   -0.2500    0.0000 C.3     1  LIG1        0.0004
     16 C          -1.6380    0.5380    0.0000 C.3     1  LIG1        0.1575
     17 C          -0.6330    0.5080    0.0000 C.3     1  LIG1        0.1584
     18 C           1.8460   -0.3920    0.0000 C.ar    1  LIG1        0.1222
     19 C           2.3460   -1.2580    0.0000 C.ar    1  LIG1        0.0196
     20 C           3.3460   -1.2580    0.0000 C.ar    1  LIG1       -0.0029
     21 C           3.8420   -0.3880    0.0000 C.ar    1  LIG1       -0.0224
     22 C           3.3330    0.4710    0.0000 C.ar    1  LIG1       -0.0029
     23 C           2.3380    0.4670    0.0000 C.ar    1  LIG1        0.0196
     24 C           4.8460   -0.3830    0.0000 C.3     1  LIG1        0.0224
     25 C           5.3580   -1.2460    0.0000 C.3     1  LIG1        0.0047
     26 C           5.3460    0.4830    0.0000 C.3     1  LIG1        0.0047
     27 O           0.8330   -1.4000    0.0000 O.2     1  LIG1       -0.1528
     28 O           0.8630    0.6000    0.0000 O.2     1  LIG1       -0.1528
@<TRIPOS>BOND
     1     1     2    1
     2     1    18    1
     3     1    27    2
     4     1    28    2
     5     2     3    1
     6     2    17    1
     7     3     4    1
     8     4     5    1
     9     5     6    1
    10     5    16    1
    11     6     7    1
    12     6    11    1
    13     6    14    1
    14     7     8    1
    15     8     9    1
    16     8    15    1
    17     9    10    1
    18    10    11    1
    19    10    12    1
    20    12    13    1
    21    13    14    1
    22    13    15    1
    23    16    17    1
    24    18    19   ar
    25    18    23   ar
    26    19    20   ar
    27    20    21   ar
    28    21    22   ar
    29    21    24    1
    30    22    23   ar
    31    24    25    1
    32    24    26    1
