@<TRIPOS>MOLECULE
34203_ChemDiv_8013-3698
 29 33 0 0 0
SMALL
GASTEIGER
Energy = 0

@<TRIPOS>ATOM
      1 S           0.5960   -0.4000    0.0000 S.O2    1  LIG1        0.0637
      2 N          -0.4080   -0.3710    0.0000 N.3     1  LIG1       -0.1433
      3 C          -0.9330   -1.2250    0.0000 C.3     1  LIG1        0.1584
      4 C          -1.9290   -1.1960    0.0000 C.3     1  LIG1        0.1575
      5 N          -2.4040   -0.3130    0.0000 N.4     1  LIG1        0.3713
      6 C          -3.4080   -0.2880    0.0000 C.3     1  LIG1        0.0457
      7 C          -3.6880    0.5880    0.0000 C.3     1  LIG1        0.0512
      8 C          -4.6580    0.6040    0.0000 C.3     1  LIG1        0.0055
      9 C          -5.4750    1.4040    0.0000 C.3     1  LIG1        0.0004
     10 C          -5.2250    0.4210    0.0000 C.3     1  LIG1        0.0055
     11 C          -4.1920    0.4040    0.0000 C.3     1  LIG1        0.0512
     12 C          -5.6080   -0.4790    0.0000 C.3     1  LIG1        0.0004
     13 C          -4.7960   -1.1580    0.0000 C.3     1  LIG1        0.0055
     14 C          -3.8000   -1.1880    0.0000 C.3     1  LIG1        0.0512
     15 C          -5.0000   -0.2460    0.0000 C.3     1  LIG1        0.0004
     16 C          -1.8830    0.5380    0.0000 C.3     1  LIG1        0.1575
     17 C          -0.8830    0.5080    0.0000 C.3     1  LIG1        0.1584
     18 C           1.6000   -0.3920    0.0000 C.ar    1  LIG1        0.1222
     19 C           2.0920    0.4630    0.0000 C.ar    1  LIG1        0.0196
     20 C           3.0880    0.4750    0.0000 C.ar    1  LIG1       -0.0029
     21 C           3.5920   -0.3880    0.0000 C.ar    1  LIG1       -0.0227
     22 C           4.5960   -0.3790    0.0000 C.3     1  LIG1        0.0189
     23 C           4.5880    0.6170    0.0000 C.3     1  LIG1        0.0044
     24 C           4.5880   -1.3830    0.0000 C.3     1  LIG1        0.0044
     25 C           5.6040   -0.3790    0.0000 C.3     1  LIG1        0.0044
     26 C           3.1000   -1.2580    0.0000 C.ar    1  LIG1       -0.0029
     27 C           2.1000   -1.2630    0.0000 C.ar    1  LIG1        0.0196
     28 O           0.5830   -1.4000    0.0000 O.2     1  LIG1       -0.1528
     29 O           0.6130    0.6000    0.0000 O.2     1  LIG1       -0.1528
@<TRIPOS>BOND
     1     1     2    1
     2     1    18    1
     3     1    28    2
     4     1    29    2
     5     2     3    1
     6     2    17    1
     7     3     4    1
     8     4     5    1
     9     5     6    1
    10     5    16    1
    11     6     7    1
    12     6    11    1
    13     6    14    1
    14     7     8    1
    15     8     9    1
    16     8    15    1
    17     9    10    1
    18    10    11    1
    19    10    12    1
    20    12    13    1
    21    13    14    1
    22    13    15    1
    23    16    17    1
    24    18    19   ar
    25    18    27   ar
    26    19    20   ar
    27    20    21   ar
    28    21    22    1
    29    21    26   ar
    30    22    23    1
    31    22    24    1
    32    22    25    1
    33    26    27   ar
