@<TRIPOS>MOLECULE
34210_ChemDiv_8013-4421
 19 20 0 0 0
SMALL
GASTEIGER
Energy = 0

@<TRIPOS>ATOM
      1 C          -0.5080    0.0040    0.0000 C.ar    1  LIG1        0.2244
      2 C          -1.0000    0.8710    0.0000 C.ar    1  LIG1        0.1245
      3 C          -2.0080    0.8710    0.0000 C.ar    1  LIG1        0.2054
      4 C          -2.5040    0.0040    0.0000 C.ar    1  LIG1        0.0752
      5 C          -2.0080   -0.8670    0.0000 C.ar    1  LIG1        0.1281
      6 O          -1.0250   -0.8670    0.0000 O.2     1  LIG1       -0.4421
      7 C          -2.5290   -1.7380    0.0000 C.3     1  LIG1        0.0726
      8 O          -2.5290    1.7420    0.0000 O.2     1  LIG1       -0.2862
      9 C          -0.5080    1.7420    0.0000 C.2     1  LIG1        0.1809
     10 O          -1.0250    2.5880    0.0000 O.2     1  LIG1       -0.2911
     11 C           0.5000    1.7420    0.0000 C.3     1  LIG1        0.0775
     12 N           0.5000    0.0040    0.0000 N.pl3   1  LIG1       -0.1775
     13 C           0.9960   -0.8670    0.0000 C.ar    1  LIG1        0.0902
     14 C           1.9830   -0.8670    0.0000 C.ar    1  LIG1        0.1043
     15 N           2.5250    0.0040    0.0000 N.pl3   1  LIG1       -0.1267
     16 C           2.4750   -1.7130    0.0000 C.ar    1  LIG1        0.0194
     17 C           1.9830   -2.5830    0.0000 C.ar    1  LIG1        0.0015
     18 C           0.9960   -2.5830    0.0000 C.ar    1  LIG1        0.0014
     19 C           0.5000   -1.7130    0.0000 C.ar    1  LIG1        0.0180
@<TRIPOS>BOND
     1     1     2   ar
     2     1     6   ar
     3     1    12    1
     4     2     3   ar
     5     2     9    1
     6     3     4   ar
     7     3     8    2
     8     4     5   ar
     9     5     6   ar
    10     5     7    1
    11     9    10    2
    12     9    11    1
    13    12    13    1
    14    13    14   ar
    15    13    19   ar
    16    14    15    1
    17    14    16   ar
    18    16    17   ar
    19    17    18   ar
    20    18    19   ar
