@<TRIPOS>MOLECULE
34212_ChemDiv_8016-9174
 21 22 0 0 0
SMALL
GASTEIGER
Energy = 0

@<TRIPOS>ATOM
      1 C          -1.2380    0.4330    0.0000 C.ar    1  LIG1        0.2244
      2 C          -2.2380    0.4330    0.0000 C.ar    1  LIG1        0.1245
      3 C          -2.7380   -0.4290    0.0000 C.ar    1  LIG1        0.2054
      4 C          -2.2380   -1.2920    0.0000 C.ar    1  LIG1        0.0752
      5 C          -1.2380   -1.2920    0.0000 C.ar    1  LIG1        0.1281
      6 O          -0.7380   -0.4290    0.0000 O.2     1  LIG1       -0.4421
      7 C          -0.7380   -2.1790    0.0000 C.3     1  LIG1        0.0726
      8 O          -3.7380   -0.4290    0.0000 O.2     1  LIG1       -0.2862
      9 C          -2.7580    1.3210    0.0000 C.2     1  LIG1        0.1809
     10 O          -3.7580    1.3210    0.0000 O.2     1  LIG1       -0.2911
     11 C          -2.2580    2.1830    0.0000 C.3     1  LIG1        0.0775
     12 N          -0.7380    1.3210    0.0000 N.pl3   1  LIG1       -0.1788
     13 C           0.2540    1.3210    0.0000 C.ar    1  LIG1        0.0735
     14 C           0.7790    0.4580    0.0000 C.ar    1  LIG1        0.0163
     15 C           1.7790    0.4580    0.0000 C.ar    1  LIG1       -0.0029
     16 C           2.2790    1.3210    0.0000 C.ar    1  LIG1       -0.0224
     17 C           1.7790    2.1830    0.0000 C.ar    1  LIG1       -0.0029
     18 C           0.7790    2.1830    0.0000 C.ar    1  LIG1        0.0163
     19 C           3.2670    1.3210    0.0000 C.3     1  LIG1        0.0224
     20 C           3.7540    0.4710    0.0000 C.3     1  LIG1        0.0047
     21 C           3.7420    2.1710    0.0000 C.3     1  LIG1        0.0047
@<TRIPOS>BOND
     1     1     2   ar
     2     1     6   ar
     3     1    12    1
     4     2     3   ar
     5     2     9    1
     6     3     4   ar
     7     3     8    2
     8     4     5   ar
     9     5     6   ar
    10     5     7    1
    11     9    10    2
    12     9    11    1
    13    12    13    1
    14    13    14   ar
    15    13    18   ar
    16    14    15   ar
    17    15    16   ar
    18    16    17   ar
    19    16    19    1
    20    17    18   ar
    21    19    20    1
    22    19    21    1
