@<TRIPOS>MOLECULE
34216_ChemDiv_8013-4006
 19 23 0 0 0
SMALL
GASTEIGER
Energy = 0

@<TRIPOS>ATOM
      1 C          -0.2830    0.1630    0.0000 C.ar    1  LIG1        0.2916
      2 N           0.0130    1.1130    0.0000 N.ar    1  LIG1        0.0872
      3 C          -0.7830    1.7000    0.0000 C.ar    1  LIG1        0.3411
      4 N          -1.6080    1.0830    0.0000 N.ar    1  LIG1       -0.2673
      5 C          -1.2790    0.1630    0.0000 C.ar    1  LIG1        0.1524
      6 C          -2.5210    1.4920    0.0000 C.3     1  LIG1        0.1117
      7 C          -2.6500    2.5000    0.0000 C.3     1  LIG1        0.0253
      8 C          -1.8250    3.1040    0.0000 C.3     1  LIG1        0.0151
      9 C          -0.9000    2.7040    0.0000 C.3     1  LIG1        0.1242
     10 C           0.2500   -0.6420    0.0000 C.3     1  LIG1        0.0861
     11 C           0.4380   -1.1540    0.0000 C.3     1  LIG1        0.0103
     12 C           0.9670   -1.7080    0.0000 C.3     1  LIG1        0.0005
     13 C           2.6460   -0.7670    0.0000 C.3     1  LIG1        0.0000
     14 C           1.6500   -1.0540    0.0000 C.3     1  LIG1        0.0005
     15 C           1.0750   -0.4420    0.0000 C.3     1  LIG1        0.0103
     16 C           1.4250   -1.8330    0.0000 C.3     1  LIG1        0.0000
     17 C           0.5830   -2.0420    0.0000 C.3     1  LIG1        0.0005
     18 C           0.0210   -1.4460    0.0000 C.3     1  LIG1        0.0103
     19 C           0.2210   -3.1000    0.0000 C.3     1  LIG1        0.0000
@<TRIPOS>BOND
     1     1     2   ar
     2     1     5   ar
     3     1    10    1
     4     2     3   ar
     5     3     4   ar
     6     3     9    1
     7     4     5   ar
     8     4     6    1
     9     6     7    1
    10     7     8    1
    11     8     9    1
    12    10    11    1
    13    10    15    1
    14    10    18    1
    15    11    12    1
    16    12    13    1
    17    12    19    1
    18    13    14    1
    19    14    15    1
    20    14    16    1
    21    16    17    1
    22    17    18    1
    23    17    19    1
