@<TRIPOS>MOLECULE
34218_ChemDiv_8013-4052
 24 27 0 0 0
SMALL
GASTEIGER
Energy = 0

@<TRIPOS>ATOM
      1 C           0.4880   -0.5290    0.0000 C.ar    1  LIG1        0.0648
      2 C          -0.4040   -0.0960    0.0000 C.ar    1  LIG1        0.0981
      3 C          -1.2000   -0.5710    0.0000 C.ar    1  LIG1        0.0372
      4 C          -1.2000   -1.5040    0.0000 C.ar    1  LIG1        0.1114
      5 S           0.4880   -1.5040    0.0000 S.2     1  LIG1       -0.0651
      6 N          -2.0670   -2.0420    0.0000 N.ar    1  LIG1       -0.2431
      7 C          -2.9380   -1.5420    0.0000 C.ar    1  LIG1        0.0596
      8 C          -2.9380   -0.5330    0.0000 C.ar    1  LIG1        0.0106
      9 C          -2.0750   -0.0750    0.0000 C.ar    1  LIG1       -0.0174
     10 C          -2.0750    0.8420    0.0000 C.3     1  LIG1        0.0312
     11 C          -3.8040   -2.0420    0.0000 C.3     1  LIG1        0.0521
     12 N          -0.4040    0.8330    0.0000 N.pl3   1  LIG1       -0.1274
     13 C           1.3080   -0.0080    0.0000 C.2     1  LIG1        0.0828
     14 N           1.3080    0.9830    0.0000 N.2     1  LIG1       -0.2734
     15 C           2.1460    1.4540    0.0000 C.3     1  LIG1        0.0888
     16 C           2.9710    0.9540    0.0000 C.3     1  LIG1        0.0488
     17 C           2.9710   -0.0130    0.0000 C.ar    1  LIG1       -0.0188
     18 C           2.1460   -0.4580    0.0000 C.ar    1  LIG1        0.0139
     19 C           2.1460   -1.4130    0.0000 C.ar    1  LIG1        0.0012
     20 C           2.9710   -1.9250    0.0000 C.ar    1  LIG1        0.0000
     21 C           3.8000   -1.4420    0.0000 C.ar    1  LIG1       -0.0003
     22 C           3.8000   -0.4670    0.0000 C.ar    1  LIG1       -0.0042
     23 C           1.2880    2.0460    0.0000 C.3     1  LIG1        0.0247
     24 C           3.0170    2.0210    0.0000 C.3     1  LIG1        0.0247
@<TRIPOS>BOND
     1     1     2   ar
     2     1     5   ar
     3     1    13    1
     4     2     3   ar
     5     2    12    1
     6     3     4   ar
     7     3     9   ar
     8     4     5   ar
     9     4     6   ar
    10     6     7   ar
    11     7     8   ar
    12     7    11    1
    13     8     9   ar
    14     9    10    1
    15    13    14    2
    16    13    18    1
    17    14    15    1
    18    15    16    1
    19    15    23    1
    20    15    24    1
    21    16    17    1
    22    17    18   ar
    23    17    22   ar
    24    18    19   ar
    25    19    20   ar
    26    20    21   ar
    27    21    22   ar
