@<TRIPOS>MOLECULE
34214_ChemDiv_8017-4195
 22 24 0 0 0
SMALL
GASTEIGER
Energy = 0

@<TRIPOS>ATOM
      1 C           0.0040    1.4670    0.0000 C.ar    1  LIG1        0.2244
      2 C           0.0040    2.4670    0.0000 C.ar    1  LIG1        0.1245
      3 C          -0.8630    2.9750    0.0000 C.ar    1  LIG1        0.2054
      4 C          -1.7250    2.4670    0.0000 C.ar    1  LIG1        0.0752
      5 C          -1.7250    1.4670    0.0000 C.ar    1  LIG1        0.1281
      6 O          -0.8630    0.9790    0.0000 O.2     1  LIG1       -0.4421
      7 C          -2.5880    0.9670    0.0000 C.3     1  LIG1        0.0726
      8 O          -0.8630    3.9750    0.0000 O.2     1  LIG1       -0.2862
      9 C           0.8710    2.9670    0.0000 C.2     1  LIG1        0.1809
     10 O           0.8710    3.9670    0.0000 O.2     1  LIG1       -0.2911
     11 C           1.7330    2.4670    0.0000 C.3     1  LIG1        0.0775
     12 N           0.8710    0.9670    0.0000 N.pl3   1  LIG1       -0.1787
     13 C           0.8710   -0.0330    0.0000 C.ar    1  LIG1        0.0767
     14 C           1.7330   -0.5290    0.0000 C.ar    1  LIG1        0.0558
     15 C           1.7330   -1.5210    0.0000 C.ar    1  LIG1        0.1692
     16 O           2.4830   -2.1920    0.0000 O.2     1  LIG1       -0.4055
     17 C           2.0830   -3.1080    0.0000 C.ar    1  LIG1        0.4408
     18 N           1.0830   -3.0170    0.0000 N.ar    1  LIG1       -0.1713
     19 C           0.8670   -2.0330    0.0000 C.ar    1  LIG1        0.1222
     20 C          -0.0080   -1.5290    0.0000 C.ar    1  LIG1        0.0238
     21 C          -0.0080   -0.5290    0.0000 C.ar    1  LIG1        0.0184
     22 O           2.5830   -3.9710    0.0000 O.2     1  LIG1       -0.2207
@<TRIPOS>BOND
     1     1     2   ar
     2     1     6   ar
     3     1    12    1
     4     2     3   ar
     5     2     9    1
     6     3     4   ar
     7     3     8    2
     8     4     5   ar
     9     5     6   ar
    10     5     7    1
    11     9    10    2
    12     9    11    1
    13    12    13    1
    14    13    14   ar
    15    13    21   ar
    16    14    15   ar
    17    15    16   ar
    18    15    19   ar
    19    16    17   ar
    20    17    18   ar
    21    17    22    2
    22    18    19   ar
    23    19    20   ar
    24    20    21   ar
