@<TRIPOS>MOLECULE
34227_ChemDiv_8013-3704
 29 33 0 0 0
SMALL
GASTEIGER
Energy = 0

@<TRIPOS>ATOM
      1 S           1.0960    0.4000    0.0000 S.O2    1  LIG1        0.0635
      2 C           2.1000    0.4000    0.0000 C.ar    1  LIG1        0.1212
      3 C           2.5960   -0.4670    0.0000 C.ar    1  LIG1        0.0561
      4 C           3.5960   -0.4630    0.0000 C.ar    1  LIG1        0.1360
      5 C           4.0960    0.4080    0.0000 C.ar    1  LIG1        0.0119
      6 C           3.5830    1.2710    0.0000 C.ar    1  LIG1       -0.0042
      7 C           2.5880    1.2630    0.0000 C.ar    1  LIG1       -0.0034
      8 C           2.0830    2.1250    0.0000 C.3     1  LIG1        0.0324
      9 C           5.1000    0.4170    0.0000 C.3     1  LIG1        0.0342
     10 O           4.1000   -1.3290    0.0000 O.3     1  LIG1       -0.4717
     11 C           3.6080   -2.1960    0.0000 C.3     1  LIG1        0.2525
     12 N           0.0960    0.4250    0.0000 N.3     1  LIG1       -0.1433
     13 C          -0.3830    1.3040    0.0000 C.3     1  LIG1        0.1584
     14 C          -1.3920    1.3330    0.0000 C.3     1  LIG1        0.1575
     15 N          -1.9080    0.4790    0.0000 N.4     1  LIG1        0.3713
     16 C          -2.9080    0.5080    0.0000 C.3     1  LIG1        0.0457
     17 C          -3.2960   -0.3960    0.0000 C.3     1  LIG1        0.0512
     18 C          -4.2920   -0.3630    0.0000 C.3     1  LIG1        0.0055
     19 C          -5.1040    0.3170    0.0000 C.3     1  LIG1        0.0004
     20 C          -4.7250    1.2170    0.0000 C.3     1  LIG1        0.0055
     21 C          -3.6960    1.1960    0.0000 C.3     1  LIG1        0.0512
     22 C          -4.9750    2.2000    0.0000 C.3     1  LIG1        0.0004
     23 C          -4.1540    1.3960    0.0000 C.3     1  LIG1        0.0055
     24 C          -3.1920    1.3830    0.0000 C.3     1  LIG1        0.0512
     25 C          -4.5000    0.5460    0.0000 C.3     1  LIG1        0.0004
     26 C          -1.4290   -0.4000    0.0000 C.3     1  LIG1        0.1575
     27 C          -0.4330   -0.4290    0.0000 C.3     1  LIG1        0.1584
     28 O           1.1130    1.3920    0.0000 O.2     1  LIG1       -0.1528
     29 O           1.0830   -0.6040    0.0000 O.2     1  LIG1       -0.1528
@<TRIPOS>BOND
     1     1     2    1
     2     1    12    1
     3     1    28    2
     4     1    29    2
     5     2     3   ar
     6     2     7   ar
     7     3     4   ar
     8     4     5   ar
     9     4    10    1
    10     5     6   ar
    11     5     9    1
    12     6     7   ar
    13     7     8    1
    14    10    11    1
    15    12    13    1
    16    12    27    1
    17    13    14    1
    18    14    15    1
    19    15    16    1
    20    15    26    1
    21    16    17    1
    22    16    21    1
    23    16    24    1
    24    17    18    1
    25    18    19    1
    26    18    25    1
    27    19    20    1
    28    20    21    1
    29    20    22    1
    30    22    23    1
    31    23    24    1
    32    23    25    1
    33    26    27    1
