@<TRIPOS>MOLECULE
34228_ChemDiv_8013-1150
 15 15 0 0 0
SMALL
GASTEIGER
Energy = 0

@<TRIPOS>ATOM
      1 C          -0.4210   -0.7630    0.0000 C.ar    1  LIG1        0.2259
      2 N           0.4540   -1.2580    0.0000 N.ar    1  LIG1       -0.1610
      3 C           1.3130   -0.7630    0.0000 C.ar    1  LIG1        0.3243
      4 N           1.3130    0.2380    0.0000 N.ar    1  LIG1       -0.1652
      5 C           0.4540    0.7380    0.0000 C.ar    1  LIG1        0.2392
      6 N          -0.4210    0.2380    0.0000 N.ar    1  LIG1       -0.1849
      7 C           0.4540    1.7540    0.0000 C.1     1  LIG1        0.1402
      8 N           0.4540    2.7500    0.0000 N.1     1  LIG1       -0.1876
      9 O           2.1710   -1.2580    0.0000 O.3     1  LIG1       -0.4425
     10 C           3.0290   -0.7630    0.0000 C.3     1  LIG1        0.2559
     11 N          -1.3000   -1.2580    0.0000 N.pl3   1  LIG1       -0.2780
     12 C          -2.1750   -0.7420    0.0000 C.3     1  LIG1        0.0937
     13 C          -3.0330   -1.2380    0.0000 C.3     1  LIG1        0.0233
     14 C          -1.3000   -2.2580    0.0000 C.3     1  LIG1        0.0937
     15 C          -2.1460   -2.7460    0.0000 C.3     1  LIG1        0.0233
@<TRIPOS>BOND
     1     1     2   ar
     2     1     6   ar
     3     1    11    1
     4     2     3   ar
     5     3     4   ar
     6     3     9    1
     7     4     5   ar
     8     5     6   ar
     9     5     7    1
    10     7     8    3
    11     9    10    1
    12    11    12    1
    13    11    14    1
    14    12    13    1
    15    14    15    1
