@<TRIPOS>MOLECULE
34220_ChemDiv_8016-1299
 26 30 0 0 0
SMALL
GASTEIGER
Energy = 0

@<TRIPOS>ATOM
      1 C           0.1500   -0.3790    0.0000 C.ar    1  LIG1        0.0648
      2 C          -0.4380    0.4330    0.0000 C.ar    1  LIG1        0.0981
      3 C          -1.3750    0.0830    0.0000 C.ar    1  LIG1        0.0372
      4 C          -1.3750   -0.8830    0.0000 C.ar    1  LIG1        0.1114
      5 S          -0.4130   -1.1920    0.0000 S.2     1  LIG1       -0.0651
      6 N          -2.2420   -1.4040    0.0000 N.ar    1  LIG1       -0.2431
      7 C          -3.1130   -0.9080    0.0000 C.ar    1  LIG1        0.0596
      8 C          -3.1170    0.0920    0.0000 C.ar    1  LIG1        0.0106
      9 C          -2.2630    0.5920    0.0000 C.ar    1  LIG1       -0.0174
     10 C          -2.2670    1.6040    0.0000 C.3     1  LIG1        0.0312
     11 C          -3.9790   -1.4080    0.0000 C.3     1  LIG1        0.0521
     12 N          -0.1540    1.3790    0.0000 N.pl3   1  LIG1       -0.1274
     13 C           1.1420   -0.2580    0.0000 C.2     1  LIG1        0.0828
     14 N           1.7500   -1.0580    0.0000 N.2     1  LIG1       -0.2734
     15 C           2.7420   -0.9420    0.0000 C.3     1  LIG1        0.0887
     16 C           3.1290   -0.0290    0.0000 C.3     1  LIG1        0.0488
     17 C           2.5290    0.7960    0.0000 C.ar    1  LIG1       -0.0188
     18 C           1.5420    0.6710    0.0000 C.ar    1  LIG1        0.0139
     19 C           0.9380    1.4710    0.0000 C.ar    1  LIG1        0.0012
     20 C           1.3250    2.3920    0.0000 C.ar    1  LIG1        0.0000
     21 C           2.3170    2.5130    0.0000 C.ar    1  LIG1       -0.0003
     22 C           2.9170    1.7170    0.0000 C.ar    1  LIG1       -0.0042
     23 C           2.3670   -1.8460    0.0000 C.3     1  LIG1        0.0228
     24 C           3.1290   -2.5080    0.0000 C.3     1  LIG1        0.0020
     25 C           3.9750   -1.9790    0.0000 C.3     1  LIG1        0.0020
     26 C           3.7540   -1.0210    0.0000 C.3     1  LIG1        0.0228
@<TRIPOS>BOND
     1     1     2   ar
     2     1     5   ar
     3     1    13    1
     4     2     3   ar
     5     2    12    1
     6     3     4   ar
     7     3     9   ar
     8     4     5   ar
     9     4     6   ar
    10     6     7   ar
    11     7     8   ar
    12     7    11    1
    13     8     9   ar
    14     9    10    1
    15    13    14    2
    16    13    18    1
    17    14    15    1
    18    15    16    1
    19    15    23    1
    20    15    26    1
    21    16    17    1
    22    17    18   ar
    23    17    22   ar
    24    18    19   ar
    25    19    20   ar
    26    20    21   ar
    27    21    22   ar
    28    23    24    1
    29    24    25    1
    30    25    26    1
