@<TRIPOS>MOLECULE
34225_ChemDiv_8013-3702
 29 33 0 0 0
SMALL
GASTEIGER
Energy = 0

@<TRIPOS>ATOM
      1 S           0.0920   -0.0460    0.0000 S.O2    1  LIG1        0.0637
      2 N          -0.9170   -0.0170    0.0000 N.3     1  LIG1       -0.1433
      3 C          -1.4420   -0.8710    0.0000 C.3     1  LIG1        0.1584
      4 C          -2.4380   -0.8420    0.0000 C.3     1  LIG1        0.1575
      5 N          -2.9130    0.0420    0.0000 N.4     1  LIG1        0.3713
      6 C          -3.9210    0.0710    0.0000 C.3     1  LIG1        0.0457
      7 C          -4.2040    0.9420    0.0000 C.3     1  LIG1        0.0512
      8 C          -5.1670    0.9630    0.0000 C.3     1  LIG1        0.0055
      9 C          -5.9830    1.7580    0.0000 C.3     1  LIG1        0.0004
     10 C          -5.7330    0.7750    0.0000 C.3     1  LIG1        0.0055
     11 C          -4.7000    0.7500    0.0000 C.3     1  LIG1        0.0512
     12 C          -6.1130   -0.1170    0.0000 C.3     1  LIG1        0.0004
     13 C          -5.3040   -0.8080    0.0000 C.3     1  LIG1        0.0055
     14 C          -4.3040   -0.8380    0.0000 C.3     1  LIG1        0.0512
     15 C          -5.5040    0.1040    0.0000 C.3     1  LIG1        0.0004
     16 C          -2.4000    0.8960    0.0000 C.3     1  LIG1        0.1575
     17 C          -1.3920    0.8580    0.0000 C.3     1  LIG1        0.1584
     18 C           1.0920   -0.0380    0.0000 C.ar    1  LIG1        0.1224
     19 C           1.5920   -0.9080    0.0000 C.ar    1  LIG1        0.0230
     20 C           2.5920   -0.9040    0.0000 C.ar    1  LIG1        0.0383
     21 C           3.0880   -0.0330    0.0000 C.ar    1  LIG1        0.1386
     22 C           2.5830    0.8250    0.0000 C.ar    1  LIG1        0.0383
     23 C           1.5830    0.8170    0.0000 C.ar    1  LIG1        0.0230
     24 O           4.0960   -0.0250    0.0000 O.3     1  LIG1       -0.4755
     25 C           4.6000   -0.8880    0.0000 C.3     1  LIG1        0.2054
     26 C           5.6000   -0.8880    0.0000 C.3     1  LIG1        0.0473
     27 C           6.1130   -1.7540    0.0000 C.3     1  LIG1        0.0040
     28 O           0.0790   -1.0460    0.0000 O.2     1  LIG1       -0.1528
     29 O           0.1040    0.9540    0.0000 O.2     1  LIG1       -0.1528
@<TRIPOS>BOND
     1     1     2    1
     2     1    18    1
     3     1    28    2
     4     1    29    2
     5     2     3    1
     6     2    17    1
     7     3     4    1
     8     4     5    1
     9     5     6    1
    10     5    16    1
    11     6     7    1
    12     6    11    1
    13     6    14    1
    14     7     8    1
    15     8     9    1
    16     8    15    1
    17     9    10    1
    18    10    11    1
    19    10    12    1
    20    12    13    1
    21    13    14    1
    22    13    15    1
    23    16    17    1
    24    18    19   ar
    25    18    23   ar
    26    19    20   ar
    27    20    21   ar
    28    21    22   ar
    29    21    24    1
    30    22    23   ar
    31    24    25    1
    32    25    26    1
    33    26    27    1
