@<TRIPOS>MOLECULE
34229_ChemDiv_8013-3705
 29 33 0 0 0
SMALL
GASTEIGER
Energy = 0

@<TRIPOS>ATOM
      1 S           0.3460   -0.0380    0.0000 S.O2    1  LIG1        0.0637
      2 N          -0.6580   -0.0080    0.0000 N.3     1  LIG1       -0.1433
      3 C          -1.1830   -0.8580    0.0000 C.3     1  LIG1        0.1584
      4 C          -2.1830   -0.8330    0.0000 C.3     1  LIG1        0.1575
      5 N          -2.6630    0.0460    0.0000 N.4     1  LIG1        0.3713
      6 C          -3.6630    0.0750    0.0000 C.3     1  LIG1        0.0457
      7 C          -3.9460    0.9460    0.0000 C.3     1  LIG1        0.0512
      8 C          -4.9170    0.9670    0.0000 C.3     1  LIG1        0.0055
      9 C          -5.7330    1.7630    0.0000 C.3     1  LIG1        0.0004
     10 C          -5.4830    0.7790    0.0000 C.3     1  LIG1        0.0055
     11 C          -4.4460    0.7630    0.0000 C.3     1  LIG1        0.0512
     12 C          -5.8630   -0.1130    0.0000 C.3     1  LIG1        0.0004
     13 C          -5.0500   -0.8040    0.0000 C.3     1  LIG1        0.0055
     14 C          -4.0540   -0.8290    0.0000 C.3     1  LIG1        0.0512
     15 C          -5.2500    0.1130    0.0000 C.3     1  LIG1        0.0004
     16 C          -2.1460    0.8960    0.0000 C.3     1  LIG1        0.1575
     17 C          -1.1420    0.8710    0.0000 C.3     1  LIG1        0.1584
     18 C           1.3420   -0.0330    0.0000 C.ar    1  LIG1        0.1223
     19 C           1.8380    0.8250    0.0000 C.ar    1  LIG1        0.0212
     20 C           2.8330    0.8330    0.0000 C.ar    1  LIG1        0.0180
     21 C           3.3420   -0.0250    0.0000 C.ar    1  LIG1        0.0734
     22 N           4.3460   -0.0170    0.0000 N.am    1  LIG1       -0.1792
     23 C           4.8500   -0.8880    0.0000 C.2     1  LIG1        0.2461
     24 O           5.8580   -0.8790    0.0000 O.2     1  LIG1       -0.2730
     25 C           4.3500   -1.7580    0.0000 C.3     1  LIG1        0.0968
     26 C           2.8460   -0.8920    0.0000 C.ar    1  LIG1        0.0180
     27 C           1.8420   -0.9000    0.0000 C.ar    1  LIG1        0.0212
     28 O           0.3330   -1.0380    0.0000 O.2     1  LIG1       -0.1528
     29 O           0.3580    0.9580    0.0000 O.2     1  LIG1       -0.1528
@<TRIPOS>BOND
     1     1     2    1
     2     1    18    1
     3     1    28    2
     4     1    29    2
     5     2     3    1
     6     2    17    1
     7     3     4    1
     8     4     5    1
     9     5     6    1
    10     5    16    1
    11     6     7    1
    12     6    11    1
    13     6    14    1
    14     7     8    1
    15     8     9    1
    16     8    15    1
    17     9    10    1
    18    10    11    1
    19    10    12    1
    20    12    13    1
    21    13    14    1
    22    13    15    1
    23    16    17    1
    24    18    19   ar
    25    18    27   ar
    26    19    20   ar
    27    20    21   ar
    28    21    22    1
    29    21    26   ar
    30    22    23   am
    31    23    24    2
    32    23    25    1
    33    26    27   ar
