@<TRIPOS>MOLECULE
34233_ChemDiv_8013-3916
 31 36 0 0 0
SMALL
GASTEIGER
Energy = 0

@<TRIPOS>ATOM
      1 S           0.0960   -0.4000    0.0000 S.O2    1  LIG1        0.0637
      2 N          -0.9040   -0.3710    0.0000 N.3     1  LIG1       -0.1433
      3 C          -1.4330   -1.2210    0.0000 C.3     1  LIG1        0.1584
      4 C          -2.4290   -1.1960    0.0000 C.3     1  LIG1        0.1575
      5 N          -2.9080   -0.3130    0.0000 N.4     1  LIG1        0.3713
      6 C          -3.9130   -0.2830    0.0000 C.3     1  LIG1        0.0457
      7 C          -4.1960    0.5880    0.0000 C.3     1  LIG1        0.0512
      8 C          -5.1630    0.6040    0.0000 C.3     1  LIG1        0.0055
      9 C          -5.9750    1.4080    0.0000 C.3     1  LIG1        0.0004
     10 C          -5.7250    0.4250    0.0000 C.3     1  LIG1        0.0055
     11 C          -4.6960    0.4040    0.0000 C.3     1  LIG1        0.0512
     12 C          -6.1040   -0.4710    0.0000 C.3     1  LIG1        0.0004
     13 C          -5.2960   -1.1630    0.0000 C.3     1  LIG1        0.0055
     14 C          -4.3000   -1.1880    0.0000 C.3     1  LIG1        0.0512
     15 C          -5.5040   -0.2500    0.0000 C.3     1  LIG1        0.0004
     16 C          -2.3880    0.5380    0.0000 C.3     1  LIG1        0.1575
     17 C          -1.3830    0.5040    0.0000 C.3     1  LIG1        0.1584
     18 C           1.0960   -0.3920    0.0000 C.ar    1  LIG1        0.1222
     19 C           1.6000   -1.2630    0.0000 C.ar    1  LIG1        0.0199
     20 C           2.6000   -1.2580    0.0000 C.ar    1  LIG1        0.0014
     21 C           3.0960   -0.3880    0.0000 C.ar    1  LIG1        0.0001
     22 C           2.5880    0.4710    0.0000 C.ar    1  LIG1        0.0014
     23 C           1.5880    0.4630    0.0000 C.ar    1  LIG1        0.0199
     24 C           4.1040   -0.3790    0.0000 C.ar    1  LIG1        0.0000
     25 C           4.6000   -1.2500    0.0000 C.ar    1  LIG1        0.0000
     26 C           5.6040   -1.2420    0.0000 C.ar    1  LIG1        0.0000
     27 C           6.1040   -0.3710    0.0000 C.ar    1  LIG1        0.0000
     28 C           5.5920    0.4920    0.0000 C.ar    1  LIG1        0.0000
     29 C           4.5880    0.4830    0.0000 C.ar    1  LIG1        0.0000
     30 O           0.0830   -1.4040    0.0000 O.2     1  LIG1       -0.1528
     31 O           0.1130    0.5960    0.0000 O.2     1  LIG1       -0.1528
@<TRIPOS>BOND
     1     1     2    1
     2     1    18    1
     3     1    30    2
     4     1    31    2
     5     2     3    1
     6     2    17    1
     7     3     4    1
     8     4     5    1
     9     5     6    1
    10     5    16    1
    11     6     7    1
    12     6    11    1
    13     6    14    1
    14     7     8    1
    15     8     9    1
    16     8    15    1
    17     9    10    1
    18    10    11    1
    19    10    12    1
    20    12    13    1
    21    13    14    1
    22    13    15    1
    23    16    17    1
    24    18    19   ar
    25    18    23   ar
    26    19    20   ar
    27    20    21   ar
    28    21    22   ar
    29    21    24    1
    30    22    23   ar
    31    24    25   ar
    32    24    29   ar
    33    25    26   ar
    34    26    27   ar
    35    27    28   ar
    36    28    29   ar
