@<TRIPOS>MOLECULE
34234_ChemDiv_8013-1326
 23 25 0 0 0
SMALL
GASTEIGER
Energy = 0

@<TRIPOS>ATOM
      1 N          -5.5830   -1.6630    0.0000 N.1     1  LIG1       -0.1955
      2 C          -5.1130   -0.8290    0.0000 C.1     1  LIG1        0.0780
      3 C          -4.6290   -0.0040    0.0000 C.3     1  LIG1        0.1316
      4 C          -3.6630   -0.0040    0.0000 C.ar    1  LIG1       -0.0070
      5 C          -3.1580   -0.8500    0.0000 C.ar    1  LIG1       -0.0019
      6 C          -2.1960   -0.8500    0.0000 C.ar    1  LIG1        0.0163
      7 C          -1.7170   -0.0040    0.0000 C.ar    1  LIG1        0.0735
      8 N          -0.7380   -0.0040    0.0000 N.am    1  LIG1       -0.1761
      9 C          -0.2790   -0.8500    0.0000 C.2     1  LIG1        0.2901
     10 O          -0.7290   -1.6750    0.0000 O.2     1  LIG1       -0.2689
     11 C           0.7080   -0.8500    0.0000 C.3     1  LIG1        0.2915
     12 O           1.1710   -0.0330    0.0000 O.3     1  LIG1       -0.4656
     13 C           2.1250   -0.0330    0.0000 C.ar    1  LIG1        0.1390
     14 C           2.6500    0.8250    0.0000 C.ar    1  LIG1        0.0323
     15 C           3.6040    0.8250    0.0000 C.ar    1  LIG1       -0.0231
     16 C           4.0880   -0.0330    0.0000 C.ar    1  LIG1       -0.0259
     17 C           3.6040   -0.8500    0.0000 C.ar    1  LIG1       -0.0015
     18 C           2.6170   -0.8500    0.0000 C.ar    1  LIG1        0.0366
     19 C           5.0830   -0.0330    0.0000 C.3     1  LIG1        0.0264
     20 C           5.5790    0.8130    0.0000 C.3     1  LIG1        0.0093
     21 C           5.0830    1.6790    0.0000 C.3     1  LIG1        0.0265
     22 C          -2.2170    0.8460    0.0000 C.ar    1  LIG1        0.0163
     23 C          -3.1830    0.8460    0.0000 C.ar    1  LIG1       -0.0019
@<TRIPOS>BOND
     1     1     2    3
     2     2     3    1
     3     3     4    1
     4     4     5   ar
     5     4    23   ar
     6     5     6   ar
     7     6     7   ar
     8     7     8    1
     9     7    22   ar
    10     8     9   am
    11     9    10    2
    12     9    11    1
    13    11    12    1
    14    12    13    1
    15    13    14   ar
    16    13    18   ar
    17    14    15   ar
    18    15    16   ar
    19    15    21    1
    20    16    17   ar
    21    16    19    1
    22    17    18   ar
    23    19    20    1
    24    20    21    1
    25    22    23   ar
