@<TRIPOS>MOLECULE
34235_ChemDiv_8014-1828
 28 32 0 0 0
SMALL
GASTEIGER
Energy = 0

@<TRIPOS>ATOM
      1 S           1.0960   -0.0330    0.0000 S.O2    1  LIG1        0.0634
      2 C           2.1000   -0.0330    0.0000 C.ar    1  LIG1        0.1179
      3 C           2.5960   -0.9000    0.0000 C.ar    1  LIG1        0.0150
      4 C           3.5960   -0.8960    0.0000 C.ar    1  LIG1       -0.0245
      5 C           4.0960   -0.0250    0.0000 C.ar    1  LIG1       -0.0260
      6 C           3.5830    0.8380    0.0000 C.ar    1  LIG1       -0.0075
      7 C           2.5830    0.8250    0.0000 C.ar    1  LIG1       -0.0036
      8 C           2.0830    1.6920    0.0000 C.3     1  LIG1        0.0324
      9 C           5.1000   -0.0170    0.0000 C.3     1  LIG1        0.0307
     10 C           4.1000   -1.7630    0.0000 C.3     1  LIG1        0.0307
     11 N           0.0960   -0.0080    0.0000 N.3     1  LIG1       -0.1433
     12 C          -0.3830    0.8710    0.0000 C.3     1  LIG1        0.1584
     13 C          -1.3920    0.9000    0.0000 C.3     1  LIG1        0.1575
     14 N          -1.9040    0.0460    0.0000 N.4     1  LIG1        0.3713
     15 C          -2.9080    0.0750    0.0000 C.3     1  LIG1        0.0457
     16 C          -3.2920   -0.8290    0.0000 C.3     1  LIG1        0.0512
     17 C          -4.2920   -0.7960    0.0000 C.3     1  LIG1        0.0055
     18 C          -5.1040   -0.1170    0.0000 C.3     1  LIG1        0.0004
     19 C          -4.7250    0.7830    0.0000 C.3     1  LIG1        0.0055
     20 C          -3.6960    0.7630    0.0000 C.3     1  LIG1        0.0512
     21 C          -4.9750    1.7670    0.0000 C.3     1  LIG1        0.0004
     22 C          -4.1540    0.9630    0.0000 C.3     1  LIG1        0.0055
     23 C          -3.1920    0.9500    0.0000 C.3     1  LIG1        0.0512
     24 C          -4.5000    0.1130    0.0000 C.3     1  LIG1        0.0004
     25 C          -1.4290   -0.8330    0.0000 C.3     1  LIG1        0.1575
     26 C          -0.4330   -0.8630    0.0000 C.3     1  LIG1        0.1584
     27 O           1.0830   -1.0380    0.0000 O.2     1  LIG1       -0.1528
     28 O           1.1130    0.9580    0.0000 O.2     1  LIG1       -0.1528
@<TRIPOS>BOND
     1     1     2    1
     2     1    11    1
     3     1    27    2
     4     1    28    2
     5     2     3   ar
     6     2     7   ar
     7     3     4   ar
     8     4     5   ar
     9     4    10    1
    10     5     6   ar
    11     5     9    1
    12     6     7   ar
    13     7     8    1
    14    11    12    1
    15    11    26    1
    16    12    13    1
    17    13    14    1
    18    14    15    1
    19    14    25    1
    20    15    16    1
    21    15    20    1
    22    15    23    1
    23    16    17    1
    24    17    18    1
    25    17    24    1
    26    18    19    1
    27    19    20    1
    28    19    21    1
    29    21    22    1
    30    22    23    1
    31    22    24    1
    32    25    26    1
