@<TRIPOS>MOLECULE
34239_ChemDiv_8015-0588
 29 33 0 0 0
SMALL
GASTEIGER
Energy = 0

@<TRIPOS>ATOM
      1 S           1.0920    0.4000    0.0000 S.O2    1  LIG1        0.0634
      2 C           2.0920    0.4040    0.0000 C.ar    1  LIG1        0.1179
      3 C           2.5960   -0.4670    0.0000 C.ar    1  LIG1        0.0153
      4 C           3.5920   -0.4580    0.0000 C.ar    1  LIG1       -0.0212
      5 C           4.0880    0.4080    0.0000 C.ar    1  LIG1       -0.0045
      6 C           3.5790    1.2710    0.0000 C.ar    1  LIG1       -0.0033
      7 C           2.5830    1.2630    0.0000 C.ar    1  LIG1       -0.0033
      8 C           2.0750    2.1250    0.0000 C.3     1  LIG1        0.0324
      9 C           4.1000   -1.3290    0.0000 C.3     1  LIG1        0.0224
     10 C           3.6000   -2.1960    0.0000 C.3     1  LIG1        0.0047
     11 C           5.1040   -1.3210    0.0000 C.3     1  LIG1        0.0047
     12 N           0.0920    0.4250    0.0000 N.3     1  LIG1       -0.1433
     13 C          -0.3880    1.3000    0.0000 C.3     1  LIG1        0.1584
     14 C          -1.3920    1.3290    0.0000 C.3     1  LIG1        0.1575
     15 N          -1.9080    0.4830    0.0000 N.4     1  LIG1        0.3713
     16 C          -2.9080    0.5080    0.0000 C.3     1  LIG1        0.0457
     17 C          -3.1880    1.3790    0.0000 C.3     1  LIG1        0.0512
     18 C          -4.1580    1.4000    0.0000 C.3     1  LIG1        0.0055
     19 C          -4.9750    2.2000    0.0000 C.3     1  LIG1        0.0004
     20 C          -4.7250    1.2170    0.0000 C.3     1  LIG1        0.0055
     21 C          -3.6920    1.1960    0.0000 C.3     1  LIG1        0.0512
     22 C          -5.1080    0.3210    0.0000 C.3     1  LIG1        0.0004
     23 C          -4.2960   -0.3670    0.0000 C.3     1  LIG1        0.0055
     24 C          -3.2920   -0.3960    0.0000 C.3     1  LIG1        0.0512
     25 C          -4.5000    0.5500    0.0000 C.3     1  LIG1        0.0004
     26 C          -1.4290   -0.4000    0.0000 C.3     1  LIG1        0.1575
     27 C          -0.4380   -0.4290    0.0000 C.3     1  LIG1        0.1584
     28 O           1.1080    1.3960    0.0000 O.2     1  LIG1       -0.1528
     29 O           1.0830   -0.6040    0.0000 O.2     1  LIG1       -0.1528
@<TRIPOS>BOND
     1     1     2    1
     2     1    12    1
     3     1    28    2
     4     1    29    2
     5     2     3   ar
     6     2     7   ar
     7     3     4   ar
     8     4     5   ar
     9     4     9    1
    10     5     6   ar
    11     6     7   ar
    12     7     8    1
    13     9    10    1
    14     9    11    1
    15    12    13    1
    16    12    27    1
    17    13    14    1
    18    14    15    1
    19    15    16    1
    20    15    26    1
    21    16    17    1
    22    16    21    1
    23    16    24    1
    24    17    18    1
    25    18    19    1
    26    18    25    1
    27    19    20    1
    28    20    21    1
    29    20    22    1
    30    22    23    1
    31    23    24    1
    32    23    25    1
    33    26    27    1
