@<TRIPOS>MOLECULE
34237_ChemDiv_8014-1829
 30 35 0 0 0
SMALL
GASTEIGER
Energy = 0

@<TRIPOS>ATOM
      1 S           1.1000    0.3920    0.0000 S.O2    1  LIG1        0.0637
      2 C           2.1000    0.3920    0.0000 C.ar    1  LIG1        0.1222
      3 C           2.6080   -0.4710    0.0000 C.ar    1  LIG1        0.0194
      4 C           3.6040   -0.4710    0.0000 C.ar    1  LIG1        0.0119
      5 C           4.1000    0.4040    0.0000 C.ar    1  LIG1        0.0577
      6 C           3.5880    1.2670    0.0000 C.ar    1  LIG1        0.0128
      7 C           2.5880    1.2580    0.0000 C.ar    1  LIG1        0.0208
      8 CL          5.1080    0.4040    0.0000 Cl      1  LIG1       -0.0822
      9 C           4.1000   -1.3250    0.0000 C.ar    1  LIG1        0.0009
     10 C           3.6130   -2.1880    0.0000 C.ar    1  LIG1        0.0000
     11 C           2.6130   -2.1920    0.0000 C.ar    1  LIG1        0.0000
     12 C           2.1130   -1.3290    0.0000 C.ar    1  LIG1        0.0014
     13 N           0.0960    0.4210    0.0000 N.3     1  LIG1       -0.1433
     14 C          -0.3830    1.3000    0.0000 C.3     1  LIG1        0.1584
     15 C          -1.3960    1.3290    0.0000 C.3     1  LIG1        0.1575
     16 N          -1.9080    0.4750    0.0000 N.4     1  LIG1        0.3713
     17 C          -2.9130    0.5040    0.0000 C.3     1  LIG1        0.0457
     18 C          -3.3000   -0.4040    0.0000 C.3     1  LIG1        0.0512
     19 C          -4.3000   -0.3670    0.0000 C.3     1  LIG1        0.0055
     20 C          -5.1130    0.3130    0.0000 C.3     1  LIG1        0.0004
     21 C          -4.7330    1.2130    0.0000 C.3     1  LIG1        0.0055
     22 C          -3.7000    1.1920    0.0000 C.3     1  LIG1        0.0512
     23 C          -4.9790    2.1960    0.0000 C.3     1  LIG1        0.0004
     24 C          -4.1630    1.3920    0.0000 C.3     1  LIG1        0.0055
     25 C          -3.1960    1.3790    0.0000 C.3     1  LIG1        0.0512
     26 C          -4.5080    0.5420    0.0000 C.3     1  LIG1        0.0004
     27 C          -1.4290   -0.4080    0.0000 C.3     1  LIG1        0.1575
     28 C          -0.4330   -0.4330    0.0000 C.3     1  LIG1        0.1584
     29 O           1.0920   -0.6130    0.0000 O.2     1  LIG1       -0.1528
     30 O           1.1130    1.3880    0.0000 O.2     1  LIG1       -0.1528
@<TRIPOS>BOND
     1     1     2    1
     2     1    13    1
     3     1    29    2
     4     1    30    2
     5     2     3   ar
     6     2     7   ar
     7     3     4   ar
     8     3    12   ar
     9     4     5   ar
    10     4     9   ar
    11     5     6   ar
    12     5     8    1
    13     6     7   ar
    14     9    10   ar
    15    10    11   ar
    16    11    12   ar
    17    13    14    1
    18    13    28    1
    19    14    15    1
    20    15    16    1
    21    16    17    1
    22    16    27    1
    23    17    18    1
    24    17    22    1
    25    17    25    1
    26    18    19    1
    27    19    20    1
    28    19    26    1
    29    20    21    1
    30    21    22    1
    31    21    23    1
    32    23    24    1
    33    24    25    1
    34    24    26    1
    35    27    28    1
