@<TRIPOS>MOLECULE
34231_ChemDiv_8013-3915
 26 30 0 0 0
SMALL
GASTEIGER
Energy = 0

@<TRIPOS>ATOM
      1 S           1.1000   -0.3960    0.0000 S.O2    1  LIG1        0.0637
      2 N           0.1000   -0.3670    0.0000 N.3     1  LIG1       -0.1433
      3 C          -0.4330   -1.2210    0.0000 C.3     1  LIG1        0.1584
      4 C          -1.4290   -1.1920    0.0000 C.3     1  LIG1        0.1575
      5 N          -1.9040   -0.3080    0.0000 N.4     1  LIG1        0.3713
      6 C          -2.9000   -0.2880    0.0000 C.3     1  LIG1        0.0457
      7 C          -3.1880    0.5880    0.0000 C.3     1  LIG1        0.0512
      8 C          -4.1540    0.6080    0.0000 C.3     1  LIG1        0.0055
      9 C          -4.9750    1.4040    0.0000 C.3     1  LIG1        0.0004
     10 C          -4.7250    0.4210    0.0000 C.3     1  LIG1        0.0055
     11 C          -3.6880    0.4040    0.0000 C.3     1  LIG1        0.0512
     12 C          -5.1040   -0.4750    0.0000 C.3     1  LIG1        0.0004
     13 C          -4.2920   -1.1540    0.0000 C.3     1  LIG1        0.0055
     14 C          -3.2880   -1.1920    0.0000 C.3     1  LIG1        0.0512
     15 C          -4.4960   -0.2500    0.0000 C.3     1  LIG1        0.0004
     16 C          -1.3880    0.5420    0.0000 C.3     1  LIG1        0.1575
     17 C          -0.3790    0.5080    0.0000 C.3     1  LIG1        0.1584
     18 C           2.0960   -0.3920    0.0000 C.ar    1  LIG1        0.1223
     19 C           2.6000   -1.2580    0.0000 C.ar    1  LIG1        0.0222
     20 C           3.6000   -1.2540    0.0000 C.ar    1  LIG1        0.0310
     21 C           4.0960   -0.3880    0.0000 C.ar    1  LIG1        0.1402
     22 C           3.5880    0.4750    0.0000 C.ar    1  LIG1        0.0310
     23 C           2.5920    0.4670    0.0000 C.ar    1  LIG1        0.0222
     24 F           5.1000   -0.3790    0.0000 F       1  LIG1       -0.2042
     25 O           1.0880   -1.4000    0.0000 O.2     1  LIG1       -0.1528
     26 O           1.1130    0.6000    0.0000 O.2     1  LIG1       -0.1528
@<TRIPOS>BOND
     1     1     2    1
     2     1    18    1
     3     1    25    2
     4     1    26    2
     5     2     3    1
     6     2    17    1
     7     3     4    1
     8     4     5    1
     9     5     6    1
    10     5    16    1
    11     6     7    1
    12     6    11    1
    13     6    14    1
    14     7     8    1
    15     8     9    1
    16     8    15    1
    17     9    10    1
    18    10    11    1
    19    10    12    1
    20    12    13    1
    21    13    14    1
    22    13    15    1
    23    16    17    1
    24    18    19   ar
    25    18    23   ar
    26    19    20   ar
    27    20    21   ar
    28    21    22   ar
    29    21    24    1
    30    22    23   ar
