@<TRIPOS>MOLECULE
34241_ChemDiv_8012-6838
 24 26 0 0 0
SMALL
GASTEIGER
Energy = 0

@<TRIPOS>ATOM
      1 S           1.7420    0.2790    0.0000 S.O2    1  LIG1        0.0787
      2 C           2.7420    0.2790    0.0000 C.ar    1  LIG1        0.1432
      3 C           3.2540   -0.5920    0.0000 C.ar    1  LIG1        0.1274
      4 N           2.9500   -1.5380    0.0000 N.ar    1  LIG1       -0.1888
      5 S           3.7540   -2.1330    0.0000 S.2     1  LIG1        0.1165
      6 N           4.5630   -1.5380    0.0000 N.ar    1  LIG1       -0.1901
      7 C           4.2540   -0.5920    0.0000 C.ar    1  LIG1        0.1102
      8 C           4.7420    0.2790    0.0000 C.ar    1  LIG1        0.0214
      9 C           4.2540    1.1500    0.0000 C.ar    1  LIG1        0.0030
     10 C           3.2540    1.1500    0.0000 C.ar    1  LIG1        0.0216
     11 N           0.7420    0.2790    0.0000 N.3     1  LIG1       -0.0729
     12 C           0.2500    1.1380    0.0000 C.3     1  LIG1        0.1418
     13 C          -0.7460    1.1380    0.0000 C.ar    1  LIG1       -0.0028
     14 C          -1.2500    0.2790    0.0000 C.ar    1  LIG1       -0.0014
     15 C          -2.2500    0.2790    0.0000 C.ar    1  LIG1        0.0197
     16 C          -2.7460    1.1380    0.0000 C.ar    1  LIG1        0.1250
     17 S          -3.7460    1.1380    0.0000 S.O2    1  LIG1        0.0935
     18 O          -3.7460    2.1380    0.0000 O.2     1  LIG1       -0.1503
     19 O          -3.7460    0.1380    0.0000 O.2     1  LIG1       -0.1503
     20 N          -4.7460    1.1380    0.0000 N.3     1  LIG1        0.0392
     21 C          -2.2500    2.0080    0.0000 C.ar    1  LIG1        0.0197
     22 C          -1.2500    2.0080    0.0000 C.ar    1  LIG1       -0.0014
     23 O           1.7420   -0.7210    0.0000 O.2     1  LIG1       -0.1515
     24 O           1.7420    1.2790    0.0000 O.2     1  LIG1       -0.1515
@<TRIPOS>BOND
     1     1     2    1
     2     1    11    1
     3     1    23    2
     4     1    24    2
     5     2     3   ar
     6     2    10   ar
     7     3     4   ar
     8     3     7   ar
     9     4     5   ar
    10     5     6   ar
    11     6     7   ar
    12     7     8   ar
    13     8     9   ar
    14     9    10   ar
    15    11    12    1
    16    12    13    1
    17    13    14   ar
    18    13    22   ar
    19    14    15   ar
    20    15    16   ar
    21    16    17    1
    22    16    21   ar
    23    17    18    2
    24    17    19    2
    25    17    20    1
    26    21    22   ar
