@<TRIPOS>MOLECULE
34243_ChemDiv_8012-7182
 25 27 0 0 0
SMALL
GASTEIGER
Energy = 0

@<TRIPOS>ATOM
      1 C          -2.2380    0.9290    0.0000 C.ar    1  LIG1        0.1393
      2 S          -1.3670    0.4380    0.0000 S.O2    1  LIG1        0.0784
      3 N          -0.5040   -0.0710    0.0000 N.3     1  LIG1       -0.0729
      4 C           0.3670    0.4380    0.0000 C.3     1  LIG1        0.1418
      5 C           1.2420   -0.0710    0.0000 C.ar    1  LIG1       -0.0028
      6 C           2.1040    0.4380    0.0000 C.ar    1  LIG1       -0.0014
      7 C           2.9630   -0.0710    0.0000 C.ar    1  LIG1        0.0197
      8 C           2.9630   -1.0670    0.0000 C.ar    1  LIG1        0.1250
      9 S           3.8250   -1.5670    0.0000 S.O2    1  LIG1        0.0935
     10 O           4.3290   -0.7080    0.0000 O.2     1  LIG1       -0.1503
     11 O           3.3290   -2.4330    0.0000 O.2     1  LIG1       -0.1503
     12 N           4.7000   -2.0750    0.0000 N.3     1  LIG1        0.0392
     13 C           2.1040   -1.5670    0.0000 C.ar    1  LIG1        0.0197
     14 C           1.2290   -1.0670    0.0000 C.ar    1  LIG1       -0.0014
     15 O          -1.8710   -0.4210    0.0000 O.2     1  LIG1       -0.1515
     16 O          -0.8630    1.3000    0.0000 O.2     1  LIG1       -0.1515
     17 C          -3.1000    0.4380    0.0000 C.ar    1  LIG1        0.1271
     18 C          -3.9630    0.9290    0.0000 C.ar    1  LIG1        0.1102
     19 N          -4.7040    0.2630    0.0000 N.ar    1  LIG1       -0.1901
     20 S          -4.3000   -0.6540    0.0000 S.2     1  LIG1        0.1165
     21 N          -3.3080   -0.5460    0.0000 N.ar    1  LIG1       -0.1888
     22 C          -3.9630    1.9210    0.0000 C.ar    1  LIG1        0.0211
     23 C          -3.1000    2.4380    0.0000 C.ar    1  LIG1       -0.0013
     24 C          -2.2380    1.9210    0.0000 C.ar    1  LIG1       -0.0016
     25 C          -1.3670    2.4380    0.0000 C.3     1  LIG1        0.0325
@<TRIPOS>BOND
     1     1     2    1
     2     1    17   ar
     3     1    24   ar
     4     2     3    1
     5     2    15    2
     6     2    16    2
     7     3     4    1
     8     4     5    1
     9     5     6   ar
    10     5    14   ar
    11     6     7   ar
    12     7     8   ar
    13     8     9    1
    14     8    13   ar
    15     9    10    2
    16     9    11    2
    17     9    12    1
    18    13    14   ar
    19    17    18   ar
    20    17    21   ar
    21    18    19   ar
    22    18    22   ar
    23    19    20   ar
    24    20    21   ar
    25    22    23   ar
    26    23    24   ar
    27    24    25    1
