@<TRIPOS>MOLECULE
34248_ChemDiv_8013-5633
 30 33 0 0 0
SMALL
GASTEIGER
Energy = 0

@<TRIPOS>ATOM
      1 C           2.0630    0.7710    0.0000 C.ar    1  LIG1        0.1585
      2 N           2.5830    1.6250    0.0000 N.ar    1  LIG1       -0.2759
      3 C           3.5540    1.3750    0.0000 C.ar    1  LIG1        0.1487
      4 N           3.6080    0.3920    0.0000 N.ar    1  LIG1       -0.2251
      5 C           2.6960    0.0000    0.0000 C.ar    1  LIG1        0.1149
      6 C           2.5040   -0.9580    0.0000 C.ar    1  LIG1        0.0205
      7 C           1.5670   -1.2670    0.0000 C.ar    1  LIG1        0.0016
      8 C           1.3710   -2.2290    0.0000 C.ar    1  LIG1        0.0000
      9 C           2.1210   -2.8920    0.0000 C.ar    1  LIG1        0.0000
     10 C           3.0540   -2.5880    0.0000 C.ar    1  LIG1        0.0000
     11 C           3.2500   -1.5960    0.0000 C.ar    1  LIG1        0.0016
     12 C           4.2420    2.0960    0.0000 C.ar    1  LIG1        0.0375
     13 C           3.9670    3.0580    0.0000 C.ar    1  LIG1        0.0046
     14 C           3.0000    3.3080    0.0000 C.ar    1  LIG1        0.0192
     15 C           2.3080    2.5920    0.0000 C.ar    1  LIG1        0.0826
     16 N           1.0420    0.6880    0.0000 N.am    1  LIG1       -0.1594
     17 C           0.6290   -0.2170    0.0000 C.2     1  LIG1        0.2583
     18 O           1.2080   -1.0460    0.0000 O.2     1  LIG1       -0.2720
     19 C          -0.3630   -0.3290    0.0000 C.3     1  LIG1        0.1520
     20 S          -0.7790   -1.2330    0.0000 S.3     1  LIG1       -0.0657
     21 C          -1.7960   -1.3500    0.0000 C.ar    1  LIG1        0.1930
     22 N          -2.2080   -2.2580    0.0000 N.ar    1  LIG1       -0.1828
     23 C          -3.2250   -2.3670    0.0000 C.ar    1  LIG1        0.2822
     24 C          -3.8080   -1.5670    0.0000 C.ar    1  LIG1        0.0773
     25 C          -3.3920   -0.6580    0.0000 C.ar    1  LIG1        0.0659
     26 N          -2.3750   -0.5500    0.0000 N.ar    1  LIG1       -0.2254
     27 C          -4.0290    0.1420    0.0000 C.3     1  LIG1        0.0460
     28 C          -3.6380    1.0460    0.0000 C.3     1  LIG1        0.0063
     29 C          -4.2460    1.8460    0.0000 C.3     1  LIG1        0.0004
     30 O          -3.6380   -3.3040    0.0000 O.3     1  LIG1       -0.2651
@<TRIPOS>BOND
     1     1     2   ar
     2     1     5   ar
     3     1    16    1
     4     2     3   ar
     5     2    15   ar
     6     3     4   ar
     7     3    12   ar
     8     4     5   ar
     9     5     6    1
    10     6     7   ar
    11     6    11   ar
    12     7     8   ar
    13     8     9   ar
    14     9    10   ar
    15    10    11   ar
    16    12    13   ar
    17    13    14   ar
    18    14    15   ar
    19    16    17   am
    20    17    18    2
    21    17    19    1
    22    19    20    1
    23    20    21    1
    24    21    22   ar
    25    21    26   ar
    26    22    23   ar
    27    23    24   ar
    28    23    30    1
    29    24    25   ar
    30    25    26   ar
    31    25    27    1
    32    27    28    1
    33    28    29    1
