@<TRIPOS>MOLECULE
34247_ChemDiv_C481-0450
 31 34 0 0 0
SMALL
GASTEIGER
Energy = 0

@<TRIPOS>ATOM
      1 S          -0.7130   -1.7210    0.0000 S.O2    1  LIG1        0.0791
      2 C          -1.2130   -2.5880    0.0000 C.ar    1  LIG1        0.1433
      3 C          -2.2250   -2.6080    0.0000 C.ar    1  LIG1        0.1274
      4 N          -2.9080   -1.8830    0.0000 N.ar    1  LIG1       -0.1888
      5 S          -3.8000   -2.3040    0.0000 S.2     1  LIG1        0.1165
      6 N          -3.6920   -3.2960    0.0000 N.ar    1  LIG1       -0.1901
      7 C          -2.7000   -3.4920    0.0000 C.ar    1  LIG1        0.1102
      8 C          -2.1790   -4.3500    0.0000 C.ar    1  LIG1        0.0214
      9 C          -1.1790   -4.3170    0.0000 C.ar    1  LIG1        0.0030
     10 C          -0.7040   -3.4380    0.0000 C.ar    1  LIG1        0.0216
     11 N          -0.2130   -0.8500    0.0000 N.3     1  LIG1       -0.0653
     12 C          -0.7040    0.0080    0.0000 C.3     1  LIG1        0.1977
     13 C          -0.2040    0.8750    0.0000 C.2     1  LIG1        0.2675
     14 N           0.7960    0.8750    0.0000 N.am    1  LIG1       -0.1777
     15 C           1.2960    1.7460    0.0000 C.ar    1  LIG1        0.0734
     16 C           0.7960    2.6130    0.0000 C.ar    1  LIG1        0.0163
     17 C           1.2960    3.4830    0.0000 C.ar    1  LIG1       -0.0029
     18 C           2.2960    3.4830    0.0000 C.ar    1  LIG1       -0.0221
     19 C           2.7960    2.6040    0.0000 C.ar    1  LIG1       -0.0029
     20 C           2.2960    1.7330    0.0000 C.ar    1  LIG1        0.0163
     21 C           2.7960    4.3500    0.0000 C.3     1  LIG1        0.0264
     22 C           3.7960    4.3380    0.0000 C.3     1  LIG1        0.0050
     23 O          -0.7040    1.7460    0.0000 O.2     1  LIG1       -0.2710
     24 C          -1.7000    0.0170    0.0000 C.ar    1  LIG1        0.0041
     25 C          -2.1790    0.8750    0.0000 C.ar    1  LIG1       -0.0024
     26 C          -3.1920    0.8750    0.0000 C.ar    1  LIG1       -0.0003
     27 C          -3.6920    0.0170    0.0000 C.ar    1  LIG1       -0.0000
     28 C          -3.2000   -0.8420    0.0000 C.ar    1  LIG1       -0.0003
     29 C          -2.2000   -0.8500    0.0000 C.ar    1  LIG1       -0.0024
     30 O          -1.5830   -1.2080    0.0000 O.2     1  LIG1       -0.1515
     31 O           0.1540   -2.2290    0.0000 O.2     1  LIG1       -0.1515
@<TRIPOS>BOND
     1     1     2    1
     2     1    11    1
     3     1    30    2
     4     1    31    2
     5     2     3   ar
     6     2    10   ar
     7     3     4   ar
     8     3     7   ar
     9     4     5   ar
    10     5     6   ar
    11     6     7   ar
    12     7     8   ar
    13     8     9   ar
    14     9    10   ar
    15    11    12    1
    16    12    13    1
    17    12    24    1
    18    13    14   am
    19    13    23    2
    20    14    15    1
    21    15    16   ar
    22    15    20   ar
    23    16    17   ar
    24    17    18   ar
    25    18    19   ar
    26    18    21    1
    27    19    20   ar
    28    21    22    1
    29    24    25   ar
    30    24    29   ar
    31    25    26   ar
    32    26    27   ar
    33    27    28   ar
    34    28    29   ar
