@<TRIPOS>MOLECULE
34249_ChemDiv_C481-1010
 35 39 0 0 0
SMALL
GASTEIGER
Energy = 0

@<TRIPOS>ATOM
      1 S          -1.7250   -0.4170    0.0000 S.O2    1  LIG1        0.0791
      2 C          -2.2210   -1.2830    0.0000 C.ar    1  LIG1        0.1433
      3 C          -3.2330   -1.3080    0.0000 C.ar    1  LIG1        0.1274
      4 N          -3.9170   -0.5790    0.0000 N.ar    1  LIG1       -0.1888
      5 S          -4.8080   -1.0040    0.0000 S.2     1  LIG1        0.1165
      6 N          -4.7000   -1.9920    0.0000 N.ar    1  LIG1       -0.1901
      7 C          -3.7080   -2.1880    0.0000 C.ar    1  LIG1        0.1102
      8 C          -3.1880   -3.0460    0.0000 C.ar    1  LIG1        0.0214
      9 C          -2.1920   -3.0130    0.0000 C.ar    1  LIG1        0.0030
     10 C          -1.7130   -2.1330    0.0000 C.ar    1  LIG1        0.0216
     11 N          -1.2250    0.4540    0.0000 N.3     1  LIG1       -0.0654
     12 C          -1.7130    1.3130    0.0000 C.3     1  LIG1        0.1958
     13 C          -1.2130    2.1790    0.0000 C.2     1  LIG1        0.2476
     14 N          -0.2130    2.1790    0.0000 N.am    1  LIG1       -0.2781
     15 C           0.2880    3.0380    0.0000 C.3     1  LIG1        0.0935
     16 C           1.2830    3.0380    0.0000 C.3     1  LIG1        0.0219
     17 C           1.7960    2.1790    0.0000 C.3     1  LIG1        0.0078
     18 C           2.8040    2.1790    0.0000 C.3     1  LIG1        0.0265
     19 C           3.3040    1.3130    0.0000 C.ar    1  LIG1       -0.0222
     20 C           4.2920    1.3130    0.0000 C.ar    1  LIG1       -0.0043
     21 C           4.8040    0.4420    0.0000 C.ar    1  LIG1       -0.0003
     22 C           4.3040   -0.4250    0.0000 C.ar    1  LIG1       -0.0000
     23 C           3.2920   -0.4250    0.0000 C.ar    1  LIG1       -0.0003
     24 C           2.7960    0.4420    0.0000 C.ar    1  LIG1       -0.0043
     25 C           1.2830    1.3130    0.0000 C.3     1  LIG1        0.0219
     26 C           0.2880    1.3130    0.0000 C.3     1  LIG1        0.0935
     27 O          -1.7130    3.0500    0.0000 O.2     1  LIG1       -0.2729
     28 C          -2.7130    1.3210    0.0000 C.ar    1  LIG1        0.0041
     29 C          -3.1880    2.1790    0.0000 C.ar    1  LIG1       -0.0024
     30 C          -4.2000    2.1790    0.0000 C.ar    1  LIG1       -0.0003
     31 C          -4.7000    1.3210    0.0000 C.ar    1  LIG1       -0.0000
     32 C          -4.2080    0.4630    0.0000 C.ar    1  LIG1       -0.0003
     33 C          -3.2130    0.4540    0.0000 C.ar    1  LIG1       -0.0024
     34 O          -2.5920    0.0960    0.0000 O.2     1  LIG1       -0.1515
     35 O          -0.8540   -0.9250    0.0000 O.2     1  LIG1       -0.1515
@<TRIPOS>BOND
     1     1     2    1
     2     1    11    1
     3     1    34    2
     4     1    35    2
     5     2     3   ar
     6     2    10   ar
     7     3     4   ar
     8     3     7   ar
     9     4     5   ar
    10     5     6   ar
    11     6     7   ar
    12     7     8   ar
    13     8     9   ar
    14     9    10   ar
    15    11    12    1
    16    12    13    1
    17    12    28    1
    18    13    14   am
    19    13    27    2
    20    14    15    1
    21    14    26    1
    22    15    16    1
    23    16    17    1
    24    17    18    1
    25    17    25    1
    26    18    19    1
    27    19    20   ar
    28    19    24   ar
    29    20    21   ar
    30    21    22   ar
    31    22    23   ar
    32    23    24   ar
    33    25    26    1
    34    28    29   ar
    35    28    33   ar
    36    29    30   ar
    37    30    31   ar
    38    31    32   ar
    39    32    33   ar
