@<TRIPOS>MOLECULE
34245_ChemDiv_C113-0540
 28 31 0 0 0
SMALL
GASTEIGER
Energy = 0

@<TRIPOS>ATOM
      1 S          -1.3000    0.7540    0.0000 S.O2    1  LIG1        0.0651
      2 C          -1.3000    1.7540    0.0000 C.ar    1  LIG1        0.1419
      3 C          -0.4380    2.2540    0.0000 C.ar    1  LIG1        0.1273
      4 N           0.5130    1.9540    0.0000 N.ar    1  LIG1       -0.1888
      5 S           1.0960    2.7540    0.0000 S.2     1  LIG1        0.1165
      6 N           0.5130    3.5630    0.0000 N.ar    1  LIG1       -0.1901
      7 C          -0.4380    3.2540    0.0000 C.ar    1  LIG1        0.1102
      8 C          -1.3000    3.7540    0.0000 C.ar    1  LIG1        0.0214
      9 C          -2.1670    3.2540    0.0000 C.ar    1  LIG1        0.0030
     10 C          -2.1670    2.2540    0.0000 C.ar    1  LIG1        0.0216
     11 N          -1.3000   -0.2460    0.0000 N.3     1  LIG1       -0.1507
     12 C          -2.1670   -0.7460    0.0000 C.3     1  LIG1        0.1221
     13 C          -2.1670   -1.7500    0.0000 C.ar    1  LIG1       -0.0045
     14 C          -3.0380   -2.2500    0.0000 C.ar    1  LIG1       -0.0029
     15 C          -3.0380   -3.2500    0.0000 C.ar    1  LIG1       -0.0003
     16 C          -2.1670   -3.7500    0.0000 C.ar    1  LIG1       -0.0000
     17 C          -1.3000   -3.2500    0.0000 C.ar    1  LIG1       -0.0003
     18 C          -1.3000   -2.2500    0.0000 C.ar    1  LIG1       -0.0029
     19 C          -0.4330   -0.7460    0.0000 C.3     1  LIG1        0.1009
     20 C           0.4380   -0.2460    0.0000 C.3     1  LIG1        0.0455
     21 C           1.3000   -0.7460    0.0000 C.ar    1  LIG1       -0.0207
     22 C           2.1630   -0.2460    0.0000 C.ar    1  LIG1       -0.0042
     23 C           3.0330   -0.7460    0.0000 C.ar    1  LIG1       -0.0003
     24 C           3.0330   -1.7500    0.0000 C.ar    1  LIG1       -0.0000
     25 C           2.1630   -2.2500    0.0000 C.ar    1  LIG1       -0.0003
     26 C           1.3000   -1.7500    0.0000 C.ar    1  LIG1       -0.0042
     27 O          -0.3000    0.7540    0.0000 O.2     1  LIG1       -0.1527
     28 O          -2.3000    0.7540    0.0000 O.2     1  LIG1       -0.1527
@<TRIPOS>BOND
     1     1     2    1
     2     1    11    1
     3     1    27    2
     4     1    28    2
     5     2     3   ar
     6     2    10   ar
     7     3     4   ar
     8     3     7   ar
     9     4     5   ar
    10     5     6   ar
    11     6     7   ar
    12     7     8   ar
    13     8     9   ar
    14     9    10   ar
    15    11    12    1
    16    11    19    1
    17    12    13    1
    18    13    14   ar
    19    13    18   ar
    20    14    15   ar
    21    15    16   ar
    22    16    17   ar
    23    17    18   ar
    24    19    20    1
    25    20    21    1
    26    21    22   ar
    27    21    26   ar
    28    22    23   ar
    29    23    24   ar
    30    24    25   ar
    31    25    26   ar
