@<TRIPOS>MOLECULE
34240_ChemDiv_C430-0812
 19 20 0 0 0
SMALL
GASTEIGER
Energy = 0

@<TRIPOS>ATOM
      1 N           0.4040   -0.8380    0.0000 N.ar    1  LIG1       -0.1940
      2 N          -0.4580   -0.3330    0.0000 N.ar    1  LIG1       -0.1475
      3 C          -1.3170   -0.8380    0.0000 C.ar    1  LIG1        0.1520
      4 C          -1.3170   -1.8460    0.0000 C.ar    1  LIG1        0.0393
      5 C          -0.4580   -2.3330    0.0000 C.ar    1  LIG1        0.0436
      6 C           0.4080   -1.8330    0.0000 C.ar    1  LIG1        0.1864
      7 N           1.3580   -2.1380    0.0000 N.ar    1  LIG1       -0.1273
      8 N           1.9420   -1.3210    0.0000 N.ar    1  LIG1       -0.1315
      9 C           1.3420   -0.5290    0.0000 C.ar    1  LIG1        0.1642
     10 C           1.6630    0.4290    0.0000 C.3     1  LIG1        0.0736
     11 C           2.6380    0.6420    0.0000 C.3     1  LIG1        0.0497
     12 C           2.9380    1.5960    0.0000 C.2     1  LIG1        0.0508
     13 O           2.2630    2.3380    0.0000 O.co2   1  LIG1       -0.5492
     14 O           3.9210    1.8170    0.0000 O.co2   1  LIG1       -0.5492
     15 N          -2.1880   -0.3330    0.0000 N.pl3   1  LIG1       -0.2919
     16 C          -2.1920    0.6710    0.0000 C.3     1  LIG1        0.0923
     17 C          -3.0630    1.1710    0.0000 C.3     1  LIG1        0.0232
     18 C          -3.0540   -0.8380    0.0000 C.3     1  LIG1        0.0923
     19 C          -3.9250   -0.3420    0.0000 C.3     1  LIG1        0.0232
@<TRIPOS>BOND
     1     1     2   ar
     2     1     6   ar
     3     1     9   ar
     4     2     3   ar
     5     3     4   ar
     6     3    15    1
     7     4     5   ar
     8     5     6   ar
     9     6     7   ar
    10     7     8   ar
    11     8     9   ar
    12     9    10    1
    13    10    11    1
    14    11    12    1
    15    12    13   ar
    16    12    14   ar
    17    15    16    1
    18    15    18    1
    19    16    17    1
    20    18    19    1
