@<TRIPOS>MOLECULE
34259_ChemDiv_8012-8006
 31 33 0 0 0
SMALL
GASTEIGER
Energy = 0

@<TRIPOS>ATOM
      1 S           1.2880   -1.2540    0.0000 S.O2    1  LIG1        0.0768
      2 C           2.1630   -0.7380    0.0000 C.ar    1  LIG1        0.1237
      3 C           3.0250   -1.2540    0.0000 C.ar    1  LIG1        0.0216
      4 C           3.8880   -0.7380    0.0000 C.ar    1  LIG1        0.0353
      5 C           3.8880    0.2540    0.0000 C.ar    1  LIG1        0.1385
      6 C           3.0250    0.7420    0.0000 C.ar    1  LIG1        0.0383
      7 C           2.1630    0.2540    0.0000 C.ar    1  LIG1        0.0231
      8 O           4.7630    0.7420    0.0000 O.3     1  LIG1       -0.4755
      9 C           5.6210    0.2540    0.0000 C.3     1  LIG1        0.2055
     10 C           6.5000    0.7420    0.0000 C.3     1  LIG1        0.0512
     11 C           4.7630   -1.2330    0.0000 C.ar    1  LIG1        0.0031
     12 C           4.7710   -2.2330    0.0000 C.ar    1  LIG1        0.0001
     13 C           3.9000   -2.7420    0.0000 C.ar    1  LIG1        0.0000
     14 C           3.0250   -2.2460    0.0000 C.ar    1  LIG1        0.0014
     15 O           0.7920   -0.3750    0.0000 O.2     1  LIG1       -0.1516
     16 O           1.7920   -2.1080    0.0000 O.2     1  LIG1       -0.1516
     17 N           0.4290   -1.7460    0.0000 N.3     1  LIG1       -0.0774
     18 C          -0.4460   -1.2540    0.0000 C.3     1  LIG1        0.1201
     19 C          -1.3080   -1.7460    0.0000 C.3     1  LIG1        0.0473
     20 C          -2.1790   -1.2540    0.0000 C.ar    1  LIG1       -0.0175
     21 C          -2.1790   -0.2420    0.0000 C.ar    1  LIG1        0.0358
     22 C          -3.0460    0.2540    0.0000 C.ar    1  LIG1        0.1719
     23 C          -3.9170   -0.2420    0.0000 C.ar    1  LIG1        0.1722
     24 C          -3.9170   -1.2540    0.0000 C.ar    1  LIG1        0.0397
     25 C          -3.0460   -1.7460    0.0000 C.ar    1  LIG1       -0.0009
     26 O          -4.7670    0.2540    0.0000 O.3     1  LIG1       -0.4724
     27 C          -5.6290   -0.2420    0.0000 C.3     1  LIG1        0.2057
     28 C          -6.5000    0.2540    0.0000 C.3     1  LIG1        0.0512
     29 O          -3.0460    1.2500    0.0000 O.3     1  LIG1       -0.4724
     30 C          -3.9170    1.7460    0.0000 C.3     1  LIG1        0.2057
     31 C          -3.9170    2.7460    0.0000 C.3     1  LIG1        0.0512
@<TRIPOS>BOND
     1     1     2    1
     2     1    15    2
     3     1    16    2
     4     1    17    1
     5     2     3   ar
     6     2     7   ar
     7     3     4   ar
     8     3    14   ar
     9     4     5   ar
    10     4    11   ar
    11     5     6   ar
    12     5     8    1
    13     6     7   ar
    14     8     9    1
    15     9    10    1
    16    11    12   ar
    17    12    13   ar
    18    13    14   ar
    19    17    18    1
    20    18    19    1
    21    19    20    1
    22    20    21   ar
    23    20    25   ar
    24    21    22   ar
    25    22    23   ar
    26    22    29    1
    27    23    24   ar
    28    23    26    1
    29    24    25   ar
    30    26    27    1
    31    27    28    1
    32    29    30    1
    33    30    31    1
