@<TRIPOS>MOLECULE
34251_ChemDiv_C481-1144
 32 35 0 0 0
SMALL
GASTEIGER
Energy = 0

@<TRIPOS>ATOM
      1 S          -1.6670   -0.8580    0.0000 S.O2    1  LIG1        0.0788
      2 C          -2.1790   -1.7170    0.0000 C.ar    1  LIG1        0.1433
      3 C          -3.1920   -1.7290    0.0000 C.ar    1  LIG1        0.1274
      4 N          -3.8630   -0.9830    0.0000 N.ar    1  LIG1       -0.1888
      5 S          -4.7790   -1.3920    0.0000 S.2     1  LIG1        0.1165
      6 N          -4.6710   -2.3920    0.0000 N.ar    1  LIG1       -0.1901
      7 C          -3.6880   -2.5960    0.0000 C.ar    1  LIG1        0.1102
      8 C          -3.1830   -3.4750    0.0000 C.ar    1  LIG1        0.0214
      9 C          -2.1710   -3.4580    0.0000 C.ar    1  LIG1        0.0030
     10 C          -1.6750   -2.5710    0.0000 C.ar    1  LIG1        0.0216
     11 N          -1.1500    0.0210    0.0000 N.3     1  LIG1       -0.0695
     12 C          -0.1500    0.0130    0.0000 C.3     1  LIG1        0.1798
     13 C           0.3500   -0.8580    0.0000 C.2     1  LIG1        0.2636
     14 N           1.3580   -0.8580    0.0000 N.am    1  LIG1       -0.1780
     15 C           1.8540    0.0130    0.0000 C.ar    1  LIG1        0.0731
     16 C           2.8670    0.0000    0.0000 C.ar    1  LIG1        0.0123
     17 C           3.3830    0.8790    0.0000 C.ar    1  LIG1       -0.0209
     18 C           2.8670    1.7500    0.0000 C.ar    1  LIG1       -0.0042
     19 C           1.8830    1.7420    0.0000 C.ar    1  LIG1        0.0010
     20 C           1.3750    0.8630    0.0000 C.ar    1  LIG1        0.0166
     21 C           4.2960    0.8710    0.0000 C.3     1  LIG1        0.0264
     22 C           4.7750    0.0290    0.0000 C.3     1  LIG1        0.0050
     23 O          -0.1500   -1.7290    0.0000 O.2     1  LIG1       -0.2714
     24 C           0.3580    0.8790    0.0000 C.3     1  LIG1        0.0551
     25 C          -0.1380    1.7500    0.0000 C.ar    1  LIG1       -0.0202
     26 C          -1.1420    1.7500    0.0000 C.ar    1  LIG1       -0.0042
     27 C          -1.6380    2.6080    0.0000 C.ar    1  LIG1       -0.0003
     28 C          -1.1330    3.4790    0.0000 C.ar    1  LIG1       -0.0000
     29 C          -0.1290    3.4710    0.0000 C.ar    1  LIG1       -0.0003
     30 C           0.3580    2.6000    0.0000 C.ar    1  LIG1       -0.0042
     31 O          -0.7960   -1.3630    0.0000 O.2     1  LIG1       -0.1515
     32 O          -2.5330   -0.3460    0.0000 O.2     1  LIG1       -0.1515
@<TRIPOS>BOND
     1     1     2    1
     2     1    11    1
     3     1    31    2
     4     1    32    2
     5     2     3   ar
     6     2    10   ar
     7     3     4   ar
     8     3     7   ar
     9     4     5   ar
    10     5     6   ar
    11     6     7   ar
    12     7     8   ar
    13     8     9   ar
    14     9    10   ar
    15    11    12    1
    16    12    13    1
    17    12    24    1
    18    13    14   am
    19    13    23    2
    20    14    15    1
    21    15    16   ar
    22    15    20   ar
    23    16    17   ar
    24    17    18   ar
    25    17    21    1
    26    18    19   ar
    27    19    20   ar
    28    21    22    1
    29    24    25    1
    30    25    26   ar
    31    25    30   ar
    32    26    27   ar
    33    27    28   ar
    34    28    29   ar
    35    29    30   ar
