@<TRIPOS>MOLECULE
34257_ChemDiv_K808-0316
 26 29 0 0 0
SMALL
GASTEIGER
Energy = 0

@<TRIPOS>ATOM
      1 S           0.5130   -1.2710    0.0000 S.O2    1  LIG1        0.0634
      2 N           0.0000   -0.4040    0.0000 N.3     1  LIG1       -0.1520
      3 C           0.5000    0.4580    0.0000 C.3     1  LIG1        0.1173
      4 C          -0.0290    1.3330    0.0000 C.3     1  LIG1        0.1126
      5 N          -1.0250    1.3170    0.0000 N.am    1  LIG1       -0.2766
      6 C          -1.5380    2.1540    0.0000 C.2     1  LIG1        0.2257
      7 C          -1.0420    3.0460    0.0000 C.3     1  LIG1        0.0853
      8 C          -0.0130    3.0710    0.0000 C.3     1  LIG1        0.0091
      9 C           0.8710    3.6960    0.0000 C.3     1  LIG1        0.0005
     10 C           2.1420    3.0880    0.0000 C.3     1  LIG1        0.0000
     11 C           1.4790    3.1500    0.0000 C.3     1  LIG1        0.0000
     12 C           0.6330    2.6380    0.0000 C.3     1  LIG1        0.0005
     13 C           1.6710    4.2790    0.0000 C.3     1  LIG1        0.0000
     14 C           1.0040    4.7250    0.0000 C.3     1  LIG1        0.0000
     15 O          -2.5540    2.1420    0.0000 O.2     1  LIG1       -0.2749
     16 C          -1.5130    0.4420    0.0000 C.3     1  LIG1        0.1126
     17 C          -1.0080   -0.4170    0.0000 C.3     1  LIG1        0.1173
     18 C           1.0250   -2.1460    0.0000 C.ar    1  LIG1        0.1223
     19 C           0.5380   -3.0130    0.0000 C.ar    1  LIG1        0.0222
     20 C           1.0500   -3.8710    0.0000 C.ar    1  LIG1        0.0310
     21 C           2.0500   -3.8540    0.0000 C.ar    1  LIG1        0.1402
     22 C           2.5330   -2.9960    0.0000 C.ar    1  LIG1        0.0310
     23 C           2.0380   -2.1380    0.0000 C.ar    1  LIG1        0.0222
     24 F           2.5500   -4.7250    0.0000 F       1  LIG1       -0.2042
     25 O           1.3830   -0.7630    0.0000 O.2     1  LIG1       -0.1528
     26 O          -0.3460   -1.8000    0.0000 O.2     1  LIG1       -0.1528
@<TRIPOS>BOND
     1     1     2    1
     2     1    18    1
     3     1    25    2
     4     1    26    2
     5     2     3    1
     6     2    17    1
     7     3     4    1
     8     4     5    1
     9     5     6   am
    10     5    16    1
    11     6     7    1
    12     6    15    2
    13     7     8    1
    14     8     9    1
    15     8    12    1
    16     9    10    1
    17     9    14    1
    18    10    11    1
    19    11    12    1
    20    11    13    1
    21    13    14    1
    22    16    17    1
    23    18    19   ar
    24    18    23   ar
    25    19    20   ar
    26    20    21   ar
    27    21    22   ar
    28    21    24    1
    29    22    23   ar
