@<TRIPOS>MOLECULE
34260_ChemDiv_C747-0013
 32 36 0 0 0
SMALL
GASTEIGER
Energy = 0

@<TRIPOS>ATOM
      1 N           2.4040    2.3080    0.0000 N.ar    1  LIG1       -0.1940
      2 C           2.9000    3.1750    0.0000 C.ar    1  LIG1        0.1864
      3 N           3.8830    2.9670    0.0000 N.ar    1  LIG1       -0.1273
      4 N           3.9830    1.9710    0.0000 N.ar    1  LIG1       -0.1315
      5 C           3.0670    1.5670    0.0000 C.ar    1  LIG1        0.1643
      6 C           2.8630    0.5830    0.0000 C.3     1  LIG1        0.0773
      7 C           3.6040   -0.0790    0.0000 C.3     1  LIG1        0.0952
      8 C           3.4000   -1.0630    0.0000 C.2     1  LIG1        0.2460
      9 N           4.1420   -1.7290    0.0000 N.am    1  LIG1       -0.1792
     10 C           3.9330   -2.7040    0.0000 C.ar    1  LIG1        0.0733
     11 C           2.9880   -3.0170    0.0000 C.ar    1  LIG1        0.0163
     12 C           2.7710   -3.9920    0.0000 C.ar    1  LIG1       -0.0029
     13 C           3.5170   -4.6630    0.0000 C.ar    1  LIG1       -0.0218
     14 C           4.4670   -4.3540    0.0000 C.ar    1  LIG1       -0.0029
     15 C           4.6750   -3.3750    0.0000 C.ar    1  LIG1        0.0163
     16 C           3.3130   -5.6420    0.0000 C.3     1  LIG1        0.0310
     17 O           2.4460   -1.3710    0.0000 O.2     1  LIG1       -0.2730
     18 C           2.4040    4.0370    0.0000 C.ar    1  LIG1        0.0436
     19 C           1.4040    4.0370    0.0000 C.ar    1  LIG1        0.0407
     20 C           0.9000    3.1750    0.0000 C.ar    1  LIG1        0.1681
     21 N           1.4040    2.3080    0.0000 N.ar    1  LIG1       -0.1460
     22 N          -0.0960    3.1750    0.0000 N.pl3   1  LIG1       -0.2140
     23 C          -0.6000    4.0370    0.0000 C.3     1  LIG1        0.1403
     24 C          -1.5960    4.0370    0.0000 C.ar    1  LIG1        0.0026
     25 C          -2.0960    4.9040    0.0000 C.ar    1  LIG1        0.0376
     26 C          -3.0960    4.9040    0.0000 C.ar    1  LIG1        0.1762
     27 C          -3.5960    4.0370    0.0000 C.ar    1  LIG1        0.1764
     28 O          -4.5710    4.2420    0.0000 O.3     1  LIG1       -0.4346
     29 C          -4.6790    5.2380    0.0000 C.3     1  LIG1        0.4294
     30 O          -3.7630    5.6420    0.0000 O.3     1  LIG1       -0.4346
     31 C          -3.0960    3.1750    0.0000 C.ar    1  LIG1        0.0399
     32 C          -2.0960    3.1750    0.0000 C.ar    1  LIG1        0.0008
@<TRIPOS>BOND
     1     1     2   ar
     2     1     5   ar
     3     1    21   ar
     4     2     3   ar
     5     2    18   ar
     6     3     4   ar
     7     4     5   ar
     8     5     6    1
     9     6     7    1
    10     7     8    1
    11     8     9   am
    12     8    17    2
    13     9    10    1
    14    10    11   ar
    15    10    15   ar
    16    11    12   ar
    17    12    13   ar
    18    13    14   ar
    19    13    16    1
    20    14    15   ar
    21    18    19   ar
    22    19    20   ar
    23    20    21   ar
    24    20    22    1
    25    22    23    1
    26    23    24    1
    27    24    25   ar
    28    24    32   ar
    29    25    26   ar
    30    26    27   ar
    31    26    30    1
    32    27    28    1
    33    27    31   ar
    34    28    29    1
    35    29    30    1
    36    31    32   ar
