@<TRIPOS>MOLECULE
34266_ChemDiv_E560-0210
 29 31 0 0 0
SMALL
GASTEIGER
Energy = 0

@<TRIPOS>ATOM
      1 N          -1.3630    0.8960    0.0000 N.ar    1  LIG1       -0.1939
      2 C          -1.8710    1.7580    0.0000 C.ar    1  LIG1        0.1864
      3 N          -1.1880    2.5040    0.0000 N.ar    1  LIG1       -0.1273
      4 N          -0.2830    2.0920    0.0000 N.ar    1  LIG1       -0.1315
      5 C          -0.3710    1.1080    0.0000 C.ar    1  LIG1        0.1656
      6 C           0.3790    0.4500    0.0000 C.3     1  LIG1        0.0911
      7 C           1.3210    0.7670    0.0000 C.3     1  LIG1        0.1235
      8 N           2.0630    0.0960    0.0000 N.am    1  LIG1       -0.2012
      9 C           3.0170    0.4130    0.0000 C.2     1  LIG1        0.2648
     10 C           3.2130    1.3880    0.0000 C.ar    1  LIG1        0.0550
     11 C           4.1630    1.7000    0.0000 C.ar    1  LIG1        0.0042
     12 C           4.3630    2.6710    0.0000 C.ar    1  LIG1       -0.0041
     13 C           3.6210    3.3250    0.0000 C.ar    1  LIG1       -0.0218
     14 C           2.6830    3.0250    0.0000 C.ar    1  LIG1       -0.0041
     15 C           2.4710    2.0630    0.0000 C.ar    1  LIG1        0.0042
     16 C           3.8330    4.3040    0.0000 C.3     1  LIG1        0.0310
     17 O           3.7540   -0.2630    0.0000 O.2     1  LIG1       -0.2684
     18 C          -2.8670    1.7580    0.0000 C.ar    1  LIG1        0.0436
     19 C          -3.3670    0.8960    0.0000 C.ar    1  LIG1        0.0407
     20 C          -2.8670    0.0250    0.0000 C.ar    1  LIG1        0.1680
     21 N          -1.8710    0.0250    0.0000 N.ar    1  LIG1       -0.1461
     22 N          -3.3830   -0.8380    0.0000 N.pl3   1  LIG1       -0.2125
     23 C          -2.8670   -1.7040    0.0000 C.3     1  LIG1        0.1762
     24 C          -3.3670   -2.5670    0.0000 C.3     1  LIG1        0.1623
     25 N          -2.8670   -3.4380    0.0000 N.4     1  LIG1        0.3786
     26 C          -3.3580   -4.3040    0.0000 C.3     1  LIG1        0.1388
     27 C          -4.3670   -4.3040    0.0000 C.3     1  LIG1        0.0688
     28 C          -1.8580   -3.4290    0.0000 C.3     1  LIG1        0.1388
     29 C          -1.3710   -2.5500    0.0000 C.3     1  LIG1        0.0688
@<TRIPOS>BOND
     1     1     2   ar
     2     1     5   ar
     3     1    21   ar
     4     2     3   ar
     5     2    18   ar
     6     3     4   ar
     7     4     5   ar
     8     5     6    1
     9     6     7    1
    10     7     8    1
    11     8     9   am
    12     9    10    1
    13     9    17    2
    14    10    11   ar
    15    10    15   ar
    16    11    12   ar
    17    12    13   ar
    18    13    14   ar
    19    13    16    1
    20    14    15   ar
    21    18    19   ar
    22    19    20   ar
    23    20    21   ar
    24    20    22    1
    25    22    23    1
    26    23    24    1
    27    24    25    1
    28    25    26    1
    29    25    28    1
    30    26    27    1
    31    28    29    1
