@<TRIPOS>MOLECULE
34269_ChemDiv_8012-8314
 21 23 0 0 0
SMALL
GASTEIGER
Energy = 0

@<TRIPOS>ATOM
      1 P           0.1580    1.0920    0.0000 P.3     1  LIG1        0.3579
      2 N          -0.7210    0.6040    0.0000 N.pl3   1  LIG1       -0.1237
      3 C          -1.5920    1.1170    0.0000 C.2     1  LIG1        0.3038
      4 N          -2.5380    0.8170    0.0000 N.2     1  LIG1       -0.0690
      5 C          -3.0880    1.6210    0.0000 C.3     1  LIG1        0.2634
      6 C          -2.5130    2.4040    0.0000 C.3     1  LIG1        0.0705
      7 C          -1.5710    2.1040    0.0000 C.3     1  LIG1        0.1220
      8 C          -0.7210   -0.3830    0.0000 C.ar    1  LIG1        0.1444
      9 C          -1.5710   -0.8670    0.0000 C.ar    1  LIG1        0.0406
     10 C          -1.5830   -1.8830    0.0000 C.ar    1  LIG1        0.0035
     11 C          -0.7210   -2.4000    0.0000 C.ar    1  LIG1        0.0002
     12 C           0.1380   -1.9040    0.0000 C.ar    1  LIG1        0.0035
     13 C           0.1380   -0.8920    0.0000 C.ar    1  LIG1        0.0406
     14 O           0.6630    0.2170    0.0000 O.3     1  LIG1       -0.2863
     15 C           1.6580    0.2170    0.0000 C.3     1  LIG1        0.1547
     16 C           2.1630    1.0920    0.0000 C.3     1  LIG1        0.0558
     17 C           1.6580    1.9710    0.0000 C.3     1  LIG1        0.1547
     18 O           0.6630    1.9710    0.0000 O.3     1  LIG1       -0.2863
     19 C           2.8540    0.3540    0.0000 C.3     1  LIG1        0.0050
     20 C           3.0830    1.5250    0.0000 C.3     1  LIG1        0.0050
     21 S          -0.3250    1.9880    0.0000 S.2     1  LIG1        0.0395
@<TRIPOS>BOND
     1     1     2    1
     2     1    14    1
     3     1    18    1
     4     1    21    2
     5     2     3    1
     6     2     8    1
     7     3     4    2
     8     3     7    1
     9     4     5    1
    10     5     6    1
    11     6     7    1
    12     8     9   ar
    13     8    13   ar
    14     9    10   ar
    15    10    11   ar
    16    11    12   ar
    17    12    13   ar
    18    14    15    1
    19    15    16    1
    20    16    17    1
    21    16    19    1
    22    16    20    1
    23    17    18    1
