@<TRIPOS>MOLECULE
34261_ChemDiv_8012-8079
 15 16 0 0 0
SMALL
GASTEIGER
Energy = 0

@<TRIPOS>ATOM
      1 C          -1.3040   -0.2710    0.0000 C.ar    1  LIG1        0.1721
      2 C          -0.4250    0.2330    0.0000 C.ar    1  LIG1        0.0383
      3 C           0.4210   -0.2710    0.0000 C.ar    1  LIG1        0.0142
      4 C           0.4210   -1.3040    0.0000 C.ar    1  LIG1        0.0016
      5 C          -0.4250   -1.7750    0.0000 C.ar    1  LIG1        0.0398
      6 C          -1.3040   -1.2710    0.0000 C.ar    1  LIG1        0.1724
      7 O          -2.1540   -1.7750    0.0000 O.3     1  LIG1       -0.4684
      8 C          -3.0000   -1.3040    0.0000 C.3     1  LIG1        0.2526
      9 C          -3.0000   -0.2710    0.0000 C.3     1  LIG1        0.2526
     10 O          -2.1540    0.2330    0.0000 O.3     1  LIG1       -0.4684
     11 C           1.2710    0.2960    0.0000 C.3     1  LIG1        0.2116
     12 O           1.2500    1.2880    0.0000 O.3     1  LIG1       -0.3425
     13 C           0.3540    1.7790    0.0000 C.3     1  LIG1        0.1748
     14 C           2.1790   -0.1750    0.0000 C.3     1  LIG1        0.3493
     15 N           2.9960    0.3580    0.0000 N.4     1  LIG1        0.6000
@<TRIPOS>BOND
     1     1     2   ar
     2     1     6   ar
     3     1    10    1
     4     2     3   ar
     5     3     4   ar
     6     3    11    1
     7     4     5   ar
     8     5     6   ar
     9     6     7    1
    10     7     8    1
    11     8     9    1
    12     9    10    1
    13    11    12    1
    14    11    14    1
    15    12    13    1
    16    14    15    1
