@<TRIPOS>MOLECULE
34264_ChemDiv_C747-0098
 32 36 0 0 0
SMALL
GASTEIGER
Energy = 0

@<TRIPOS>ATOM
      1 N           2.1380    3.1210    0.0000 N.ar    1  LIG1       -0.1940
      2 N           1.1420    3.1210    0.0000 N.ar    1  LIG1       -0.1475
      3 C           0.6250    3.9920    0.0000 C.ar    1  LIG1        0.1520
      4 N          -0.3710    3.9920    0.0000 N.pl3   1  LIG1       -0.2915
      5 C          -0.9580    3.1920    0.0000 C.3     1  LIG1        0.0965
      6 C          -1.9000    3.4960    0.0000 C.3     1  LIG1        0.0438
      7 C          -1.9000    4.4880    0.0000 C.3     1  LIG1        0.0275
      8 C          -0.9580    4.8040    0.0000 C.3     1  LIG1        0.0926
      9 C          -2.7080    2.9130    0.0000 C.ar    1  LIG1       -0.0208
     10 C          -3.6170    3.3170    0.0000 C.ar    1  LIG1       -0.0042
     11 C          -4.4210    2.7380    0.0000 C.ar    1  LIG1       -0.0003
     12 C          -4.3130    1.7420    0.0000 C.ar    1  LIG1       -0.0000
     13 C          -3.4040    1.3420    0.0000 C.ar    1  LIG1       -0.0003
     14 C          -2.6040    1.9250    0.0000 C.ar    1  LIG1       -0.0042
     15 C           1.1420    4.8540    0.0000 C.ar    1  LIG1        0.0393
     16 C           2.1380    4.8540    0.0000 C.ar    1  LIG1        0.0436
     17 C           2.6330    3.9920    0.0000 C.ar    1  LIG1        0.1864
     18 N           3.6170    3.7880    0.0000 N.ar    1  LIG1       -0.1273
     19 N           3.7210    2.7830    0.0000 N.ar    1  LIG1       -0.1315
     20 C           2.8130    2.3750    0.0000 C.ar    1  LIG1        0.1643
     21 C           2.6000    1.3960    0.0000 C.3     1  LIG1        0.0773
     22 C           3.3460    0.7330    0.0000 C.3     1  LIG1        0.0952
     23 C           3.1420   -0.2500    0.0000 C.2     1  LIG1        0.2460
     24 N           3.8880   -0.9290    0.0000 N.am    1  LIG1       -0.1792
     25 C           3.6750   -1.8960    0.0000 C.ar    1  LIG1        0.0733
     26 C           4.4170   -2.5750    0.0000 C.ar    1  LIG1        0.0163
     27 C           4.2040   -3.5540    0.0000 C.ar    1  LIG1       -0.0029
     28 C           3.2540   -3.8670    0.0000 C.ar    1  LIG1       -0.0218
     29 C           2.5080   -3.1920    0.0000 C.ar    1  LIG1       -0.0029
     30 C           2.7250   -2.2130    0.0000 C.ar    1  LIG1        0.0163
     31 C           3.0540   -4.8540    0.0000 C.3     1  LIG1        0.0310
     32 O           2.1830   -0.5670    0.0000 O.2     1  LIG1       -0.2730
@<TRIPOS>BOND
     1     1     2   ar
     2     1    17   ar
     3     1    20   ar
     4     2     3   ar
     5     3     4    1
     6     3    15   ar
     7     4     5    1
     8     4     8    1
     9     5     6    1
    10     6     7    1
    11     6     9    1
    12     7     8    1
    13     9    10   ar
    14     9    14   ar
    15    10    11   ar
    16    11    12   ar
    17    12    13   ar
    18    13    14   ar
    19    15    16   ar
    20    16    17   ar
    21    17    18   ar
    22    18    19   ar
    23    19    20   ar
    24    20    21    1
    25    21    22    1
    26    22    23    1
    27    23    24   am
    28    23    32    2
    29    24    25    1
    30    25    26   ar
    31    25    30   ar
    32    26    27   ar
    33    27    28   ar
    34    28    29   ar
    35    28    31    1
    36    29    30   ar
