@<TRIPOS>MOLECULE
34279_ChemDiv_8013-1541
 33 38 0 0 0
SMALL
GASTEIGER
Energy = 0

@<TRIPOS>ATOM
      1 S           3.1960    2.1670    0.0000 S.O2    1  LIG1        0.0274
      2 C           2.2920    1.6210    0.0000 C.ar    1  LIG1        0.1103
      3 C           1.4420    2.1250    0.0000 C.ar    1  LIG1        0.0189
      4 C           0.5750    1.6710    0.0000 C.ar    1  LIG1        0.0058
      5 C           0.5750    0.6290    0.0000 C.ar    1  LIG1        0.0537
      6 C          -0.2790    0.0420    0.0000 C.2     1  LIG1        0.2494
      7 N          -1.0040   -0.9790    0.0000 N.am    1  LIG1       -0.2645
      8 C          -1.1170   -1.9710    0.0000 C.3     1  LIG1        0.1567
      9 C          -1.9540   -2.3750    0.0000 C.3     1  LIG1        0.1600
     10 N          -2.8130   -2.0170    0.0000 N.4     1  LIG1        0.3718
     11 C          -3.6250   -2.3750    0.0000 C.3     1  LIG1        0.0457
     12 C          -3.7670   -3.2380    0.0000 C.3     1  LIG1        0.0512
     13 C          -4.7580   -3.3250    0.0000 C.3     1  LIG1        0.0055
     14 C          -5.3880   -4.1420    0.0000 C.3     1  LIG1        0.0004
     15 C          -5.2130   -3.2790    0.0000 C.3     1  LIG1        0.0055
     16 C          -4.1460   -3.0750    0.0000 C.3     1  LIG1        0.0512
     17 C          -5.7790   -2.3330    0.0000 C.3     1  LIG1        0.0004
     18 C          -5.1670   -1.4500    0.0000 C.3     1  LIG1        0.0055
     19 C          -4.1250   -1.5170    0.0000 C.3     1  LIG1        0.0512
     20 C          -5.4540   -2.2000    0.0000 C.3     1  LIG1        0.0004
     21 C          -2.7170   -1.0670    0.0000 C.3     1  LIG1        0.1600
     22 C          -1.9080   -0.6130    0.0000 C.3     1  LIG1        0.1567
     23 O          -1.1380    0.4920    0.0000 O.2     1  LIG1       -0.2699
     24 C           1.4420    0.1290    0.0000 C.ar    1  LIG1        0.0058
     25 C           2.2920    0.6290    0.0000 C.ar    1  LIG1        0.0189
     26 O           3.6880    1.2630    0.0000 O.2     1  LIG1       -0.1642
     27 O           2.6580    3.0290    0.0000 O.2     1  LIG1       -0.1642
     28 C           4.0540    2.6630    0.0000 C.ar    1  LIG1        0.1103
     29 C           4.0540    3.6580    0.0000 C.ar    1  LIG1        0.0187
     30 C           4.9130    4.1420    0.0000 C.ar    1  LIG1        0.0013
     31 C           5.7750    3.7040    0.0000 C.ar    1  LIG1        0.0001
     32 C           5.7750    2.6630    0.0000 C.ar    1  LIG1        0.0013
     33 C           4.9130    2.1670    0.0000 C.ar    1  LIG1        0.0187
@<TRIPOS>BOND
     1     1     2    1
     2     1    26    2
     3     1    27    2
     4     1    28    1
     5     2     3   ar
     6     2    25   ar
     7     3     4   ar
     8     4     5   ar
     9     5     6    1
    10     5    24   ar
    11     6     7   am
    12     6    23    2
    13     7     8    1
    14     7    22    1
    15     8     9    1
    16     9    10    1
    17    10    11    1
    18    10    21    1
    19    11    12    1
    20    11    16    1
    21    11    19    1
    22    12    13    1
    23    13    14    1
    24    13    20    1
    25    14    15    1
    26    15    16    1
    27    15    17    1
    28    17    18    1
    29    18    19    1
    30    18    20    1
    31    21    22    1
    32    24    25   ar
    33    28    29   ar
    34    28    33   ar
    35    29    30   ar
    36    30    31   ar
    37    31    32   ar
    38    32    33   ar
