@<TRIPOS>MOLECULE
34277_ChemDiv_8012-6893
 30 35 0 0 0
SMALL
GASTEIGER
Energy = 0

@<TRIPOS>ATOM
      1 C           1.4540    0.7040    0.0000 C.ar    1  LIG1        0.0875
      2 C           0.5830    1.1880    0.0000 C.2     1  LIG1        0.2523
      3 N          -0.2500    0.6710    0.0000 N.am    1  LIG1       -0.2644
      4 C          -0.2630   -0.3460    0.0000 C.3     1  LIG1        0.1567
      5 C          -1.1380   -0.8330    0.0000 C.3     1  LIG1        0.1600
      6 N          -2.0040   -0.3130    0.0000 N.4     1  LIG1        0.3718
      7 C          -2.8920   -0.7710    0.0000 C.3     1  LIG1        0.0457
      8 C          -3.2040   -1.8130    0.0000 C.3     1  LIG1        0.0512
      9 C          -4.1710   -1.6460    0.0000 C.3     1  LIG1        0.0055
     10 C          -4.8330   -2.2250    0.0000 C.3     1  LIG1        0.0004
     11 C          -4.6420   -1.2080    0.0000 C.3     1  LIG1        0.0055
     12 C          -3.6540   -1.3290    0.0000 C.3     1  LIG1        0.0512
     13 C          -4.9420   -0.2290    0.0000 C.3     1  LIG1        0.0004
     14 C          -4.2210    0.3670    0.0000 C.3     1  LIG1        0.0055
     15 C          -3.1540    0.1330    0.0000 C.3     1  LIG1        0.0512
     16 C          -4.4580   -0.6540    0.0000 C.3     1  LIG1        0.0004
     17 C          -1.9710    0.6790    0.0000 C.3     1  LIG1        0.1600
     18 C          -1.0880    1.1380    0.0000 C.3     1  LIG1        0.1567
     19 O           0.5960    2.2290    0.0000 O.2     1  LIG1       -0.2698
     20 C           2.3290    1.1880    0.0000 C.ar    1  LIG1        0.0076
     21 C           3.2000    0.6540    0.0000 C.ar    1  LIG1        0.0003
     22 C           3.1750   -0.3330    0.0000 C.ar    1  LIG1        0.0030
     23 C           2.3040   -0.8080    0.0000 C.ar    1  LIG1        0.0370
     24 C           1.4460   -0.2710    0.0000 C.ar    1  LIG1        0.1430
     25 O           0.5750   -0.7380    0.0000 O.3     1  LIG1       -0.4713
     26 C           0.5380   -1.7250    0.0000 C.3     1  LIG1        0.2525
     27 C           4.0460   -0.8670    0.0000 C.ar    1  LIG1        0.0001
     28 C           4.9250   -0.3830    0.0000 C.ar    1  LIG1        0.0000
     29 C           4.9380    0.6170    0.0000 C.ar    1  LIG1        0.0000
     30 C           4.0670    1.1540    0.0000 C.ar    1  LIG1        0.0000
@<TRIPOS>BOND
     1     1     2    1
     2     1    20   ar
     3     1    24   ar
     4     2     3   am
     5     2    19    2
     6     3     4    1
     7     3    18    1
     8     4     5    1
     9     5     6    1
    10     6     7    1
    11     6    17    1
    12     7     8    1
    13     7    12    1
    14     7    15    1
    15     8     9    1
    16     9    10    1
    17     9    16    1
    18    10    11    1
    19    11    12    1
    20    11    13    1
    21    13    14    1
    22    14    15    1
    23    14    16    1
    24    17    18    1
    25    20    21   ar
    26    21    22   ar
    27    21    30   ar
    28    22    23   ar
    29    22    27   ar
    30    23    24   ar
    31    24    25    1
    32    25    26    1
    33    27    28   ar
    34    28    29   ar
    35    29    30   ar
