@<TRIPOS>MOLECULE
34278_ChemDiv_8013-5967
 25 29 0 0 0
SMALL
GASTEIGER
Energy = 0

@<TRIPOS>ATOM
      1 C           0.9000   -0.5080    0.0000 C.ar    1  LIG1        0.0648
      2 C           1.6960   -0.0080    0.0000 C.2     1  LIG1        0.0828
      3 N           1.6960    0.9630    0.0000 N.2     1  LIG1       -0.2734
      4 C           2.5080    1.4170    0.0000 C.3     1  LIG1        0.0888
      5 C           3.3130    0.9250    0.0000 C.3     1  LIG1        0.0488
      6 C           3.3130   -0.0170    0.0000 C.ar    1  LIG1       -0.0188
      7 C           2.5080   -0.4500    0.0000 C.ar    1  LIG1        0.0139
      8 C           2.5080   -1.3710    0.0000 C.ar    1  LIG1        0.0012
      9 C           3.3130   -1.8750    0.0000 C.ar    1  LIG1        0.0000
     10 C           4.1170   -1.3960    0.0000 C.ar    1  LIG1       -0.0003
     11 C           4.1170   -0.4580    0.0000 C.ar    1  LIG1       -0.0042
     12 C           3.3540    1.9670    0.0000 C.3     1  LIG1        0.0247
     13 C           1.6670    1.9920    0.0000 C.3     1  LIG1        0.0247
     14 S           0.9000   -1.4580    0.0000 S.2     1  LIG1       -0.0651
     15 C          -0.7540   -1.4580    0.0000 C.ar    1  LIG1        0.1116
     16 C          -0.7540   -0.5630    0.0000 C.ar    1  LIG1        0.0408
     17 C           0.0250   -0.0960    0.0000 C.ar    1  LIG1        0.0984
     18 N           0.0250    0.8170    0.0000 N.pl3   1  LIG1       -0.1274
     19 C          -1.5830   -0.0880    0.0000 C.ar    1  LIG1        0.0003
     20 C          -2.4380   -0.5210    0.0000 C.ar    1  LIG1       -0.0085
     21 C          -2.4380   -1.4960    0.0000 C.ar    1  LIG1        0.0556
     22 N          -1.5920   -1.9880    0.0000 N.ar    1  LIG1       -0.2434
     23 C          -4.1210   -1.4960    0.0000 C.3     1  LIG1        0.0458
     24 C          -4.1210   -0.5210    0.0000 C.3     1  LIG1        0.0110
     25 C          -3.2750   -0.0330    0.0000 C.3     1  LIG1        0.0279
@<TRIPOS>BOND
     1     1     2    1
     2     1    14   ar
     3     1    17   ar
     4     2     3    2
     5     2     7    1
     6     3     4    1
     7     4     5    1
     8     4    12    1
     9     4    13    1
    10     5     6    1
    11     6     7   ar
    12     6    11   ar
    13     7     8   ar
    14     8     9   ar
    15     9    10   ar
    16    10    11   ar
    17    14    15   ar
    18    15    16   ar
    19    15    22   ar
    20    16    17   ar
    21    16    19   ar
    22    17    18    1
    23    19    20   ar
    24    20    21   ar
    25    20    25    1
    26    21    22   ar
    27    21    23    1
    28    23    24    1
    29    24    25    1
