@<TRIPOS>MOLECULE
34275_ChemDiv_K906-1236
 36 40 0 0 0
SMALL
GASTEIGER
Energy = 0

@<TRIPOS>ATOM
      1 S          -0.4250    1.5080    0.0000 S.O2    1  LIG1        0.0788
      2 C          -0.4250    2.5080    0.0000 C.ar    1  LIG1        0.1433
      3 C           0.4380    3.0080    0.0000 C.ar    1  LIG1        0.1274
      4 N           1.3880    2.7000    0.0000 N.ar    1  LIG1       -0.1888
      5 S           1.9670    3.5040    0.0000 S.2     1  LIG1        0.1165
      6 N           1.3880    4.3170    0.0000 N.ar    1  LIG1       -0.1901
      7 C           0.4380    4.0040    0.0000 C.ar    1  LIG1        0.1102
      8 C          -0.4250    4.5040    0.0000 C.ar    1  LIG1        0.0214
      9 C          -1.2960    4.0040    0.0000 C.ar    1  LIG1        0.0030
     10 C          -1.2960    3.0080    0.0000 C.ar    1  LIG1        0.0216
     11 N          -0.4250    0.5080    0.0000 N.3     1  LIG1       -0.0696
     12 C          -1.2880    0.0080    0.0000 C.3     1  LIG1        0.1780
     13 C          -1.2880   -0.9960    0.0000 C.2     1  LIG1        0.2437
     14 N          -0.4250   -1.4960    0.0000 N.am    1  LIG1       -0.2783
     15 C          -0.4250   -2.4960    0.0000 C.3     1  LIG1        0.0938
     16 C           0.4380   -2.9960    0.0000 C.3     1  LIG1        0.0259
     17 C           1.3130   -2.4960    0.0000 C.3     1  LIG1        0.0257
     18 C           2.1750   -2.9960    0.0000 C.ar    1  LIG1       -0.0222
     19 C           2.1630   -3.9960    0.0000 C.ar    1  LIG1       -0.0020
     20 C           3.0290   -4.4960    0.0000 C.ar    1  LIG1        0.0293
     21 C           3.8920   -4.0040    0.0000 C.ar    1  LIG1        0.1401
     22 C           3.8920   -2.9960    0.0000 C.ar    1  LIG1        0.0293
     23 C           3.0290   -2.4960    0.0000 C.ar    1  LIG1       -0.0020
     24 F           4.7540   -4.5040    0.0000 F       1  LIG1       -0.2042
     25 C           1.3130   -1.4960    0.0000 C.3     1  LIG1        0.0259
     26 C           0.4380   -0.9920    0.0000 C.3     1  LIG1        0.0938
     27 O          -2.1540   -1.4960    0.0000 O.2     1  LIG1       -0.2733
     28 C          -2.1580    0.5080    0.0000 C.3     1  LIG1        0.0550
     29 C          -3.0210    0.0080    0.0000 C.ar    1  LIG1       -0.0202
     30 C          -3.8830    0.5080    0.0000 C.ar    1  LIG1       -0.0042
     31 C          -4.7580    0.0080    0.0000 C.ar    1  LIG1       -0.0003
     32 C          -4.7580   -0.9960    0.0000 C.ar    1  LIG1       -0.0000
     33 C          -3.8830   -1.4960    0.0000 C.ar    1  LIG1       -0.0003
     34 C          -3.0210   -0.9960    0.0000 C.ar    1  LIG1       -0.0042
     35 O          -1.4250    1.5080    0.0000 O.2     1  LIG1       -0.1515
     36 O           0.5750    1.5080    0.0000 O.2     1  LIG1       -0.1515
@<TRIPOS>BOND
     1     1     2    1
     2     1    11    1
     3     1    35    2
     4     1    36    2
     5     2     3   ar
     6     2    10   ar
     7     3     4   ar
     8     3     7   ar
     9     4     5   ar
    10     5     6   ar
    11     6     7   ar
    12     7     8   ar
    13     8     9   ar
    14     9    10   ar
    15    11    12    1
    16    12    13    1
    17    12    28    1
    18    13    14   am
    19    13    27    2
    20    14    15    1
    21    14    26    1
    22    15    16    1
    23    16    17    1
    24    17    18    1
    25    17    25    1
    26    18    19   ar
    27    18    23   ar
    28    19    20   ar
    29    20    21   ar
    30    21    22   ar
    31    21    24    1
    32    22    23   ar
    33    25    26    1
    34    28    29    1
    35    29    30   ar
    36    29    34   ar
    37    30    31   ar
    38    31    32   ar
    39    32    33   ar
    40    33    34   ar
