@<TRIPOS>MOLECULE
34273_ChemDiv_C481-2208
 39 43 0 0 0
SMALL
GASTEIGER
Energy = 0

@<TRIPOS>ATOM
      1 S          -2.4670   -1.7250    0.0000 S.O2    1  LIG1        0.0788
      2 C          -2.9790   -2.5830    0.0000 C.ar    1  LIG1        0.1433
      3 C          -3.9920   -2.5830    0.0000 C.ar    1  LIG1        0.1274
      4 N          -4.6630   -1.8460    0.0000 N.ar    1  LIG1       -0.1888
      5 S          -5.5710   -2.2580    0.0000 S.2     1  LIG1        0.1165
      6 N          -5.4580   -3.2460    0.0000 N.ar    1  LIG1       -0.1901
      7 C          -4.4790   -3.4540    0.0000 C.ar    1  LIG1        0.1102
      8 C          -3.9710   -4.3250    0.0000 C.ar    1  LIG1        0.0214
      9 C          -2.9710   -4.3130    0.0000 C.ar    1  LIG1        0.0030
     10 C          -2.4830   -3.4330    0.0000 C.ar    1  LIG1        0.0216
     11 N          -1.9630   -0.8540    0.0000 N.3     1  LIG1       -0.0695
     12 C          -0.9630   -0.8630    0.0000 C.3     1  LIG1        0.1794
     13 C          -0.4670   -1.7250    0.0000 C.2     1  LIG1        0.2596
     14 O          -0.9630   -2.5830    0.0000 O.2     1  LIG1       -0.2718
     15 N           0.5380   -1.7250    0.0000 N.am    1  LIG1       -0.1978
     16 C           1.0420   -0.8630    0.0000 C.3     1  LIG1        0.1775
     17 C           2.0420   -0.8630    0.0000 C.3     1  LIG1        0.1626
     18 N           2.5460   -0.0040    0.0000 N.4     1  LIG1        0.3814
     19 C           3.5460   -0.0040    0.0000 C.3     1  LIG1        0.1605
     20 C           4.0630    0.8580    0.0000 C.3     1  LIG1        0.1544
     21 N           3.5580    1.7170    0.0000 N.pl3   1  LIG1       -0.2954
     22 C           4.0630    2.5880    0.0000 C.ar    1  LIG1        0.0760
     23 C           3.5580    3.4670    0.0000 C.ar    1  LIG1        0.1533
     24 F           2.5830    3.2040    0.0000 F       1  LIG1       -0.2029
     25 C           4.0630    4.3250    0.0000 C.ar    1  LIG1        0.0309
     26 C           5.0630    4.3250    0.0000 C.ar    1  LIG1        0.0024
     27 C           5.5670    3.4580    0.0000 C.ar    1  LIG1        0.0014
     28 C           5.0630    2.5880    0.0000 C.ar    1  LIG1        0.0168
     29 C           2.5540    1.7380    0.0000 C.3     1  LIG1        0.1544
     30 C           2.0500    0.8670    0.0000 C.3     1  LIG1        0.1605
     31 C          -0.4670    0.0080    0.0000 C.3     1  LIG1        0.0551
     32 C          -0.9500    0.8670    0.0000 C.ar    1  LIG1       -0.0202
     33 C          -1.9500    0.8670    0.0000 C.ar    1  LIG1       -0.0042
     34 C          -2.4460    1.7290    0.0000 C.ar    1  LIG1       -0.0003
     35 C          -1.9420    2.5880    0.0000 C.ar    1  LIG1       -0.0000
     36 C          -0.9420    2.5790    0.0000 C.ar    1  LIG1       -0.0003
     37 C          -0.4540    1.7170    0.0000 C.ar    1  LIG1       -0.0042
     38 O          -1.6040   -2.2290    0.0000 O.2     1  LIG1       -0.1515
     39 O          -3.3380   -1.2080    0.0000 O.2     1  LIG1       -0.1515
@<TRIPOS>BOND
     1     1     2    1
     2     1    11    1
     3     1    38    2
     4     1    39    2
     5     2     3   ar
     6     2    10   ar
     7     3     4   ar
     8     3     7   ar
     9     4     5   ar
    10     5     6   ar
    11     6     7   ar
    12     7     8   ar
    13     8     9   ar
    14     9    10   ar
    15    11    12    1
    16    12    13    1
    17    12    31    1
    18    13    14    2
    19    13    15   am
    20    15    16    1
    21    16    17    1
    22    17    18    1
    23    18    19    1
    24    18    30    1
    25    19    20    1
    26    20    21    1
    27    21    22    1
    28    21    29    1
    29    22    23   ar
    30    22    28   ar
    31    23    24    1
    32    23    25   ar
    33    25    26   ar
    34    26    27   ar
    35    27    28   ar
    36    29    30    1
    37    31    32    1
    38    32    33   ar
    39    32    37   ar
    40    33    34   ar
    41    34    35   ar
    42    35    36   ar
    43    36    37   ar
