@<TRIPOS>MOLECULE
34282_ChemDiv_8013-6238
 20 21 0 0 0
SMALL
GASTEIGER
Energy = 0

@<TRIPOS>ATOM
      1 N          -0.0380    0.3790    0.0000 N.ar    1  LIG1       -0.1808
      2 C          -0.0380   -0.6040    0.0000 C.ar    1  LIG1        0.2602
      3 N           0.8210   -1.0960    0.0000 N.ar    1  LIG1       -0.1768
      4 C           0.8210   -2.0920    0.0000 C.ar    1  LIG1        0.2266
      5 N          -0.0380   -2.5920    0.0000 N.ar    1  LIG1       -0.1609
      6 C          -0.8920   -2.0920    0.0000 C.ar    1  LIG1        0.3250
      7 N          -0.8920   -1.0960    0.0000 N.ar    1  LIG1       -0.1571
      8 O          -1.7500   -2.5920    0.0000 O.3     1  LIG1       -0.4425
      9 C          -2.5960   -2.1080    0.0000 C.3     1  LIG1        0.2559
     10 N           1.7040   -2.6330    0.0000 N.pl3   1  LIG1       -0.2745
     11 C           1.7040   -3.6290    0.0000 C.3     1  LIG1        0.1151
     12 C           2.5920   -2.1380    0.0000 C.3     1  LIG1        0.1151
     13 N          -0.8670    0.9330    0.0000 N.ar    1  LIG1       -0.0572
     14 N          -0.6040    1.9170    0.0000 N.ar    1  LIG1       -0.1258
     15 C           0.3790    1.9290    0.0000 C.ar    1  LIG1        0.1526
     16 C           0.7080    0.9750    0.0000 C.ar    1  LIG1        0.0877
     17 C           1.7040    0.7250    0.0000 C.3     1  LIG1        0.0541
     18 C           0.9290    2.7580    0.0000 C.2     1  LIG1        0.1939
     19 O           0.4880    3.6330    0.0000 O.2     1  LIG1       -0.2896
     20 C           2.0210    2.7460    0.0000 C.3     1  LIG1        0.0790
@<TRIPOS>BOND
     1     1     2    1
     2     1    13   ar
     3     1    16   ar
     4     2     3   ar
     5     2     7   ar
     6     3     4   ar
     7     4     5   ar
     8     4    10    1
     9     5     6   ar
    10     6     7   ar
    11     6     8    1
    12     8     9    1
    13    10    11    1
    14    10    12    1
    15    13    14   ar
    16    14    15   ar
    17    15    16   ar
    18    15    18    1
    19    16    17    1
    20    18    19    2
    21    18    20    1
