@<TRIPOS>MOLECULE
34280_ChemDiv_8013-6111
 24 26 0 0 0
SMALL
GASTEIGER
Energy = 0

@<TRIPOS>ATOM
      1 C           0.0290   -0.4170    0.0000 C.2     1  LIG1        0.2691
      2 N           0.4670   -1.2540    0.0000 N.am    1  LIG1       -0.1755
      3 C           1.4630   -1.2460    0.0000 C.ar    1  LIG1        0.0735
      4 C           1.9500   -0.4170    0.0000 C.ar    1  LIG1        0.0172
      5 C           2.9290   -0.4170    0.0000 C.ar    1  LIG1        0.0349
      6 C           3.4170    0.4080    0.0000 C.3     1  LIG1        0.2601
      7 O           4.3750    0.4080    0.0000 O.3     1  LIG1       -0.3244
      8 C           4.3750    2.0880    0.0000 C.3     1  LIG1        0.1772
      9 C           3.4250    2.0960    0.0000 C.3     1  LIG1        0.1772
     10 O           2.9380    1.2420    0.0000 O.3     1  LIG1       -0.3244
     11 C           3.4250   -1.2460    0.0000 C.ar    1  LIG1        0.0006
     12 C           2.9080   -2.0920    0.0000 C.ar    1  LIG1        0.0012
     13 C           1.9380   -2.0920    0.0000 C.ar    1  LIG1        0.0166
     14 C          -0.9420   -0.4170    0.0000 C.ar    1  LIG1        0.0586
     15 C          -1.4250    0.4500    0.0000 C.ar    1  LIG1        0.0446
     16 C          -2.4130    0.4500    0.0000 C.ar    1  LIG1        0.1725
     17 C          -2.9080   -0.4170    0.0000 C.ar    1  LIG1        0.1724
     18 C          -2.4330   -1.2670    0.0000 C.ar    1  LIG1        0.0402
     19 C          -1.4540   -1.2670    0.0000 C.ar    1  LIG1        0.0079
     20 O          -3.8920   -0.4170    0.0000 O.3     1  LIG1       -0.4684
     21 C          -4.3790    0.3790    0.0000 C.3     1  LIG1        0.2526
     22 O          -2.8880    1.3000    0.0000 O.3     1  LIG1       -0.4684
     23 C          -3.8080    1.3000    0.0000 C.3     1  LIG1        0.2526
     24 O           0.6380    0.4080    0.0000 O.2     1  LIG1       -0.2680
@<TRIPOS>BOND
     1     1     2   am
     2     1    14    1
     3     1    24    2
     4     2     3    1
     5     3     4   ar
     6     3    13   ar
     7     4     5   ar
     8     5     6    1
     9     5    11   ar
    10     6     7    1
    11     6    10    1
    12     7     8    1
    13     8     9    1
    14     9    10    1
    15    11    12   ar
    16    12    13   ar
    17    14    15   ar
    18    14    19   ar
    19    15    16   ar
    20    16    17   ar
    21    16    22    1
    22    17    18   ar
    23    17    20    1
    24    18    19   ar
    25    20    21    1
    26    22    23    1
