@<TRIPOS>MOLECULE
34289_ChemDiv_8012-8541
 14 15 0 0 0
SMALL
GASTEIGER
Energy = 0

@<TRIPOS>ATOM
      1 C          -0.0080   -1.1830    0.0000 C.ar    1  LIG1        0.1860
      2 C          -0.0080   -0.2290    0.0000 C.ar    1  LIG1        0.0725
      3 C           1.6380   -0.2290    0.0000 C.ar    1  LIG1        0.1938
      4 N           1.6420   -1.1960    0.0000 N.ar    1  LIG1       -0.1280
      5 N           0.8210   -1.6670    0.0000 N.ar    1  LIG1       -0.1271
      6 N           2.4830    0.2500    0.0000 N.pl3   1  LIG1       -0.1052
      7 C          -0.8330    0.2500    0.0000 C.ar    1  LIG1        0.0143
      8 C          -1.6540   -0.2290    0.0000 C.ar    1  LIG1        0.0131
      9 C          -1.6540   -1.1830    0.0000 C.ar    1  LIG1        0.0608
     10 N          -0.8330   -1.6670    0.0000 N.ar    1  LIG1       -0.2294
     11 C          -2.4880   -1.6670    0.0000 C.3     1  LIG1        0.0521
     12 C          -0.8330    1.2000    0.0000 C.3     1  LIG1        0.1689
     13 O          -1.6460    1.6710    0.0000 O.3     1  LIG1       -0.3463
     14 C          -2.4420    1.1750    0.0000 C.3     1  LIG1        0.1746
@<TRIPOS>BOND
     1     1     2   ar
     2     1     5   ar
     3     1    10   ar
     4     2     3   ar
     5     2     7   ar
     6     3     4   ar
     7     3     6    1
     8     4     5   ar
     9     7     8   ar
    10     7    12    1
    11     8     9   ar
    12     9    10   ar
    13     9    11    1
    14    12    13    1
    15    13    14    1
