@<TRIPOS>MOLECULE
34281_ChemDiv_8012-6969
 25 28 0 0 0
SMALL
GASTEIGER
Energy = 0

@<TRIPOS>ATOM
      1 C          -2.8750    0.8000    0.0000 C.3     1  LIG1        0.0989
      2 N          -2.0040    0.2880    0.0000 N.am    1  LIG1       -0.1877
      3 C          -1.1380    0.7790    0.0000 C.2     1  LIG1        0.3238
      4 N          -0.2880    0.2710    0.0000 N.am    1  LIG1       -0.2509
      5 C          -0.3000   -0.7290    0.0000 C.3     1  LIG1        0.1578
      6 C           0.5250   -1.2630    0.0000 C.3     1  LIG1        0.1610
      7 N           1.4290   -0.7630    0.0000 N.4     1  LIG1        0.3834
      8 C           2.3170   -1.2500    0.0000 C.3     1  LIG1        0.1663
      9 C           3.1880   -0.7170    0.0000 C.ar    1  LIG1        0.0344
     10 C           3.1630    0.2750    0.0000 C.ar    1  LIG1        0.0014
     11 C           4.0040    0.8000    0.0000 C.ar    1  LIG1       -0.0001
     12 C           4.8790    0.3130    0.0000 C.ar    1  LIG1       -0.0000
     13 C           4.9040   -0.6500    0.0000 C.ar    1  LIG1       -0.0001
     14 C           4.0500   -1.2000    0.0000 C.ar    1  LIG1        0.0014
     15 C           1.4330    0.2330    0.0000 C.3     1  LIG1        0.1610
     16 C           0.5830    0.7500    0.0000 C.3     1  LIG1        0.1578
     17 O          -1.1380    1.7710    0.0000 O.2     1  LIG1       -0.2508
     18 C          -3.7500    1.3080    0.0000 C.3     1  LIG1        0.0263
     19 C          -2.8750    1.8000    0.0000 C.3     1  LIG1        0.0263
     20 C          -3.3920   -0.0580    0.0000 C.ar    1  LIG1       -0.0044
     21 C          -2.8960   -0.9330    0.0000 C.ar    1  LIG1       -0.0027
     22 C          -3.3920   -1.7750    0.0000 C.ar    1  LIG1       -0.0003
     23 C          -4.4080   -1.7960    0.0000 C.ar    1  LIG1       -0.0000
     24 C          -4.9080   -0.9130    0.0000 C.ar    1  LIG1       -0.0003
     25 C          -4.3920   -0.0580    0.0000 C.ar    1  LIG1       -0.0027
@<TRIPOS>BOND
     1     1     2    1
     2     1    18    1
     3     1    19    1
     4     1    20    1
     5     2     3   am
     6     3     4   am
     7     3    17    2
     8     4     5    1
     9     4    16    1
    10     5     6    1
    11     6     7    1
    12     7     8    1
    13     7    15    1
    14     8     9    1
    15     9    10   ar
    16     9    14   ar
    17    10    11   ar
    18    11    12   ar
    19    12    13   ar
    20    13    14   ar
    21    15    16    1
    22    18    19    1
    23    20    21   ar
    24    20    25   ar
    25    21    22   ar
    26    22    23   ar
    27    23    24   ar
    28    24    25   ar
