@<TRIPOS>MOLECULE
34285_ChemDiv_8012-7661
 23 25 0 0 0
SMALL
GASTEIGER
Energy = 0

@<TRIPOS>ATOM
      1 C          -3.3830   -1.2130    0.0000 C.3     1  LIG1        0.0990
      2 N          -2.5540   -1.6920    0.0000 N.am    1  LIG1       -0.1862
      3 C          -1.6630   -1.2130    0.0000 C.2     1  LIG1        0.3437
      4 N          -0.8000   -1.7210    0.0000 N.am    1  LIG1       -0.1610
      5 C           0.0460   -1.2290    0.0000 C.ar    1  LIG1        0.0751
      6 C           0.8960   -1.7210    0.0000 C.ar    1  LIG1        0.0180
      7 C           1.7830   -1.2580    0.0000 C.ar    1  LIG1        0.0179
      8 C           1.8130   -0.2250    0.0000 C.ar    1  LIG1        0.0734
      9 N           2.6790    0.2830    0.0000 N.am    1  LIG1       -0.1792
     10 C           3.5380   -0.1790    0.0000 C.2     1  LIG1        0.2461
     11 O           4.3580    0.3670    0.0000 O.2     1  LIG1       -0.2730
     12 C           3.5790   -1.1880    0.0000 C.3     1  LIG1        0.0968
     13 C           0.9540    0.2830    0.0000 C.ar    1  LIG1        0.0179
     14 C           0.0750   -0.2250    0.0000 C.ar    1  LIG1        0.0180
     15 O          -1.6630   -0.2130    0.0000 O.2     1  LIG1       -0.2488
     16 C          -4.3630   -1.4920    0.0000 C.3     1  LIG1        0.0263
     17 C          -4.1040   -0.5250    0.0000 C.3     1  LIG1        0.0263
     18 C          -3.1750   -0.2420    0.0000 C.ar    1  LIG1       -0.0044
     19 C          -3.8920    0.4540    0.0000 C.ar    1  LIG1       -0.0027
     20 C          -3.6540    1.4290    0.0000 C.ar    1  LIG1       -0.0003
     21 C          -2.7080    1.7250    0.0000 C.ar    1  LIG1       -0.0000
     22 C          -1.9750    1.0040    0.0000 C.ar    1  LIG1       -0.0003
     23 C          -2.1960    0.0420    0.0000 C.ar    1  LIG1       -0.0027
@<TRIPOS>BOND
     1     1     2    1
     2     1    16    1
     3     1    17    1
     4     1    18    1
     5     2     3   am
     6     3     4   am
     7     3    15    2
     8     4     5    1
     9     5     6   ar
    10     5    14   ar
    11     6     7   ar
    12     7     8   ar
    13     8     9    1
    14     8    13   ar
    15     9    10   am
    16    10    11    2
    17    10    12    1
    18    13    14   ar
    19    16    17    1
    20    18    19   ar
    21    18    23   ar
    22    19    20   ar
    23    20    21   ar
    24    21    22   ar
    25    22    23   ar
