@<TRIPOS>MOLECULE
34287_ChemDiv_8012-7662
 24 26 0 0 0
SMALL
GASTEIGER
Energy = 0

@<TRIPOS>ATOM
      1 C          -3.4580   -0.7500    0.0000 C.3     1  LIG1        0.0990
      2 N          -2.6210   -1.2330    0.0000 N.am    1  LIG1       -0.1862
      3 C          -1.7290   -0.7500    0.0000 C.2     1  LIG1        0.3437
      4 N          -0.8710   -1.2580    0.0000 N.am    1  LIG1       -0.1610
      5 C          -0.0250   -0.7710    0.0000 C.ar    1  LIG1        0.0752
      6 C           0.8250   -1.2580    0.0000 C.ar    1  LIG1        0.0198
      7 C           1.7130   -0.8000    0.0000 C.ar    1  LIG1        0.0382
      8 C           1.7420    0.2380    0.0000 C.ar    1  LIG1        0.1386
      9 C           0.8830    0.7420    0.0000 C.ar    1  LIG1        0.0382
     10 C           0.0040    0.2380    0.0000 C.ar    1  LIG1        0.0198
     11 O           2.6080    0.7420    0.0000 O.3     1  LIG1       -0.4755
     12 C           3.4670    0.2790    0.0000 C.3     1  LIG1        0.2054
     13 C           3.5080   -0.7290    0.0000 C.3     1  LIG1        0.0473
     14 C           4.3880   -1.1750    0.0000 C.3     1  LIG1        0.0038
     15 C           4.4290   -2.1790    0.0000 C.3     1  LIG1        0.0001
     16 O          -1.7290    0.2500    0.0000 O.2     1  LIG1       -0.2488
     17 C          -4.4330   -1.0330    0.0000 C.3     1  LIG1        0.0263
     18 C          -4.1750   -0.0630    0.0000 C.3     1  LIG1        0.0263
     19 C          -3.2420    0.2210    0.0000 C.ar    1  LIG1       -0.0044
     20 C          -3.9630    0.9170    0.0000 C.ar    1  LIG1       -0.0027
     21 C          -3.7250    1.8830    0.0000 C.ar    1  LIG1       -0.0003
     22 C          -2.7790    2.1830    0.0000 C.ar    1  LIG1       -0.0000
     23 C          -2.0460    1.4580    0.0000 C.ar    1  LIG1       -0.0003
     24 C          -2.2670    0.5040    0.0000 C.ar    1  LIG1       -0.0027
@<TRIPOS>BOND
     1     1     2    1
     2     1    17    1
     3     1    18    1
     4     1    19    1
     5     2     3   am
     6     3     4   am
     7     3    16    2
     8     4     5    1
     9     5     6   ar
    10     5    10   ar
    11     6     7   ar
    12     7     8   ar
    13     8     9   ar
    14     8    11    1
    15     9    10   ar
    16    11    12    1
    17    12    13    1
    18    13    14    1
    19    14    15    1
    20    17    18    1
    21    19    20   ar
    22    19    24   ar
    23    20    21   ar
    24    21    22   ar
    25    22    23   ar
    26    23    24   ar
