@<TRIPOS>MOLECULE
34291_ChemDiv_C066-3267
 15 17 0 0 0
SMALL
GASTEIGER
Energy = 0

@<TRIPOS>ATOM
      1 C           1.3880    0.1670    0.0000 C.ar    1  LIG1        0.0741
      2 C           1.3960   -0.8330    0.0000 C.ar    1  LIG1        0.1865
      3 N           0.5250   -1.3420    0.0000 N.ar    1  LIG1       -0.2250
      4 C          -0.3420   -0.8420    0.0000 C.ar    1  LIG1        0.0838
      5 C          -0.3420    0.1540    0.0000 C.ar    1  LIG1        0.0180
      6 C           0.5250    0.6670    0.0000 C.ar    1  LIG1        0.0076
      7 C          -1.2040    0.6540    0.0000 C.ar    1  LIG1        0.0024
      8 C          -2.0670    0.1540    0.0000 C.ar    1  LIG1        0.0115
      9 C          -2.0670   -0.8420    0.0000 C.ar    1  LIG1        0.0592
     10 C          -1.2040   -1.3420    0.0000 C.ar    1  LIG1        0.0305
     11 CL         -2.9380   -1.3330    0.0000 Cl      1  LIG1       -0.0822
     12 N           2.3500   -1.1380    0.0000 N.ar    1  LIG1       -0.1271
     13 N           2.9330   -0.3290    0.0000 N.ar    1  LIG1       -0.1280
     14 C           2.3420    0.4830    0.0000 C.ar    1  LIG1        0.1940
     15 N           2.8380    1.3460    0.0000 N.pl3   1  LIG1       -0.1052
@<TRIPOS>BOND
     1     1     2   ar
     2     1     6   ar
     3     1    14   ar
     4     2     3   ar
     5     2    12   ar
     6     3     4   ar
     7     4     5   ar
     8     4    10   ar
     9     5     6   ar
    10     5     7   ar
    11     7     8   ar
    12     8     9   ar
    13     9    10   ar
    14     9    11    1
    15    12    13   ar
    16    13    14   ar
    17    14    15    1
