@<TRIPOS>MOLECULE
34293_ChemDiv_C066-3324
 21 24 0 0 0
SMALL
GASTEIGER
Energy = 0

@<TRIPOS>ATOM
      1 C           0.4880   -1.3080    0.0000 C.ar    1  LIG1        0.0723
      2 C           0.4920   -2.3080    0.0000 C.ar    1  LIG1        0.1865
      3 N          -0.3710   -2.8210    0.0000 N.ar    1  LIG1       -0.2251
      4 C          -1.2330   -2.3210    0.0000 C.ar    1  LIG1        0.0827
      5 C          -1.2330   -1.3210    0.0000 C.ar    1  LIG1        0.0179
      6 C          -0.3750   -0.8170    0.0000 C.ar    1  LIG1        0.0075
      7 C          -2.1000   -0.8250    0.0000 C.ar    1  LIG1        0.0012
      8 C          -2.9670   -1.3210    0.0000 C.ar    1  LIG1       -0.0042
      9 C          -2.9670   -2.3210    0.0000 C.ar    1  LIG1       -0.0204
     10 C          -2.1000   -2.8210    0.0000 C.ar    1  LIG1        0.0149
     11 C          -3.8380   -2.8210    0.0000 C.3     1  LIG1        0.0311
     12 N           1.4460   -2.6080    0.0000 N.ar    1  LIG1       -0.1271
     13 N           2.0330   -1.8040    0.0000 N.ar    1  LIG1       -0.1299
     14 C           1.4290   -1.0000    0.0000 C.ar    1  LIG1        0.1725
     15 N           1.6880   -0.0210    0.0000 N.pl3   1  LIG1       -0.2134
     16 C           2.6540    0.2420    0.0000 C.3     1  LIG1        0.1466
     17 C           2.9000    1.2130    0.0000 C.ar    1  LIG1        0.0290
     18 S           3.8330    1.5710    0.0000 S.2     1  LIG1       -0.0890
     19 C           3.7750    2.5670    0.0000 C.ar    1  LIG1        0.0352
     20 C           2.8080    2.8250    0.0000 C.ar    1  LIG1        0.0072
     21 C           2.2630    1.9790    0.0000 C.ar    1  LIG1        0.0044
@<TRIPOS>BOND
     1     1     2   ar
     2     1     6   ar
     3     1    14   ar
     4     2     3   ar
     5     2    12   ar
     6     3     4   ar
     7     4     5   ar
     8     4    10   ar
     9     5     6   ar
    10     5     7   ar
    11     7     8   ar
    12     8     9   ar
    13     9    10   ar
    14     9    11    1
    15    12    13   ar
    16    13    14   ar
    17    14    15    1
    18    15    16    1
    19    16    17    1
    20    17    18   ar
    21    17    21   ar
    22    18    19   ar
    23    19    20   ar
    24    20    21   ar
