@<TRIPOS>MOLECULE
34290_ChemDiv_E591-0311
 31 35 0 0 0
SMALL
GASTEIGER
Energy = 0

@<TRIPOS>ATOM
      1 N          -0.9540   -2.2080    0.0000 N.ar    1  LIG1       -0.1940
      2 N          -0.2130   -2.8750    0.0000 N.ar    1  LIG1       -0.1475
      3 C          -0.4210   -3.8500    0.0000 C.ar    1  LIG1        0.1520
      4 N           0.4460   -4.3500    0.0000 N.pl3   1  LIG1       -0.2919
      5 C           1.3630   -3.9460    0.0000 C.3     1  LIG1        0.0923
      6 C           2.0290   -4.6920    0.0000 C.3     1  LIG1        0.0232
      7 C           1.5290   -5.5580    0.0000 C.3     1  LIG1        0.0232
      8 C           0.5500   -5.3500    0.0000 C.3     1  LIG1        0.0923
      9 C          -1.3710   -4.1630    0.0000 C.ar    1  LIG1        0.0393
     10 C          -2.1170   -3.4920    0.0000 C.ar    1  LIG1        0.0436
     11 C          -1.9040   -2.5130    0.0000 C.ar    1  LIG1        0.1864
     12 N          -2.4920   -1.7040    0.0000 N.ar    1  LIG1       -0.1273
     13 N          -1.9040   -0.8960    0.0000 N.ar    1  LIG1       -0.1315
     14 C          -0.9540   -1.2040    0.0000 C.ar    1  LIG1        0.1643
     15 C          -0.1460   -0.6170    0.0000 C.3     1  LIG1        0.0773
     16 C           0.7670   -1.0250    0.0000 C.3     1  LIG1        0.0933
     17 C           1.5790   -0.4380    0.0000 C.2     1  LIG1        0.2261
     18 N           1.5790    0.5630    0.0000 N.am    1  LIG1       -0.2795
     19 C           2.4420    1.0630    0.0000 C.3     1  LIG1        0.0934
     20 C           2.4420    2.0630    0.0000 C.3     1  LIG1        0.0219
     21 C           1.5790    2.5630    0.0000 C.3     1  LIG1        0.0078
     22 C           1.5790    3.5630    0.0000 C.3     1  LIG1        0.0265
     23 C           0.7130    4.0580    0.0000 C.ar    1  LIG1       -0.0222
     24 C          -0.1580    3.5630    0.0000 C.ar    1  LIG1       -0.0043
     25 C          -1.0210    4.0580    0.0000 C.ar    1  LIG1       -0.0003
     26 C          -1.0210    5.0580    0.0000 C.ar    1  LIG1       -0.0000
     27 C          -0.1580    5.5580    0.0000 C.ar    1  LIG1       -0.0003
     28 C           0.7130    5.0580    0.0000 C.ar    1  LIG1       -0.0043
     29 C           0.7130    2.0630    0.0000 C.3     1  LIG1        0.0219
     30 C           0.7130    1.0630    0.0000 C.3     1  LIG1        0.0934
     31 O           2.4880   -0.8420    0.0000 O.2     1  LIG1       -0.2749
@<TRIPOS>BOND
     1     1     2   ar
     2     1    11   ar
     3     1    14   ar
     4     2     3   ar
     5     3     4    1
     6     3     9   ar
     7     4     5    1
     8     4     8    1
     9     5     6    1
    10     6     7    1
    11     7     8    1
    12     9    10   ar
    13    10    11   ar
    14    11    12   ar
    15    12    13   ar
    16    13    14   ar
    17    14    15    1
    18    15    16    1
    19    16    17    1
    20    17    18   am
    21    17    31    2
    22    18    19    1
    23    18    30    1
    24    19    20    1
    25    20    21    1
    26    21    22    1
    27    21    29    1
    28    22    23    1
    29    23    24   ar
    30    23    28   ar
    31    24    25   ar
    32    25    26   ar
    33    26    27   ar
    34    27    28   ar
    35    29    30    1
