@<TRIPOS>MOLECULE
34297_ChemDiv_D042-0326
 26 29 0 0 0
SMALL
GASTEIGER
Energy = 0

@<TRIPOS>ATOM
      1 C           0.3710    0.8040    0.0000 C.ar    1  LIG1        0.1771
      2 C          -0.5830    0.4920    0.0000 C.ar    1  LIG1        0.0706
      3 C          -0.5830   -0.5000    0.0000 C.ar    1  LIG1        0.1621
      4 N           0.3710   -0.8130    0.0000 N.ar    1  LIG1       -0.2328
      5 N           0.9580   -0.0080    0.0000 N.ar    1  LIG1       -0.1510
      6 C           0.6830   -1.7630    0.0000 C.3     1  LIG1        0.1292
      7 C           1.6580   -1.9750    0.0000 C.3     1  LIG1        0.0264
      8 C           1.9710   -2.9250    0.0000 C.3     1  LIG1        0.0021
      9 N          -1.4500   -1.0040    0.0000 N.ar    1  LIG1       -0.2268
     10 C          -2.3170   -0.5000    0.0000 C.ar    1  LIG1        0.0829
     11 C          -2.3170    0.4920    0.0000 C.ar    1  LIG1        0.0179
     12 C          -1.4500    0.9920    0.0000 C.ar    1  LIG1        0.0074
     13 C          -3.1880    0.9920    0.0000 C.ar    1  LIG1        0.0015
     14 C          -4.0460    0.4920    0.0000 C.ar    1  LIG1        0.0001
     15 C          -4.0460   -0.5000    0.0000 C.ar    1  LIG1        0.0015
     16 C          -3.1880   -1.0040    0.0000 C.ar    1  LIG1        0.0192
     17 N           0.6830    1.7580    0.0000 N.am    1  LIG1       -0.1547
     18 C           1.6580    1.9670    0.0000 C.2     1  LIG1        0.2704
     19 C           2.3670    1.2500    0.0000 C.ar    1  LIG1        0.0563
     20 C           2.1040    0.2830    0.0000 C.ar    1  LIG1        0.0160
     21 C           2.8170   -0.4080    0.0000 C.ar    1  LIG1        0.0578
     22 CL          2.5580   -1.3830    0.0000 Cl      1  LIG1       -0.0822
     23 C           3.7830   -0.1540    0.0000 C.ar    1  LIG1        0.0114
     24 C           4.0420    0.8040    0.0000 C.ar    1  LIG1        0.0010
     25 C           3.3380    1.5170    0.0000 C.ar    1  LIG1        0.0046
     26 O           1.9170    2.9290    0.0000 O.2     1  LIG1       -0.2680
@<TRIPOS>BOND
     1     1     2   ar
     2     1     5   ar
     3     1    17    1
     4     2     3   ar
     5     2    12   ar
     6     3     4   ar
     7     3     9   ar
     8     4     5   ar
     9     4     6    1
    10     6     7    1
    11     7     8    1
    12     9    10   ar
    13    10    11   ar
    14    10    16   ar
    15    11    12   ar
    16    11    13   ar
    17    13    14   ar
    18    14    15   ar
    19    15    16   ar
    20    17    18   am
    21    18    19    1
    22    18    26    2
    23    19    20   ar
    24    19    25   ar
    25    20    21   ar
    26    21    22    1
    27    21    23   ar
    28    23    24   ar
    29    24    25   ar
