@<TRIPOS>MOLECULE
34294_ChemDiv_E591-0377
 35 39 0 0 0
SMALL
GASTEIGER
Energy = 0

@<TRIPOS>ATOM
      1 N          -1.7960   -2.9540    0.0000 N.ar    1  LIG1       -0.1940
      2 N          -1.0540   -3.6250    0.0000 N.ar    1  LIG1       -0.1475
      3 C          -1.2630   -4.6040    0.0000 C.ar    1  LIG1        0.1520
      4 N          -0.3960   -5.1080    0.0000 N.pl3   1  LIG1       -0.2919
      5 C          -0.2920   -6.1000    0.0000 C.3     1  LIG1        0.0923
      6 C           0.6830   -6.3080    0.0000 C.3     1  LIG1        0.0232
      7 C           1.1830   -5.4420    0.0000 C.3     1  LIG1        0.0232
      8 C           0.5170   -4.7000    0.0000 C.3     1  LIG1        0.0923
      9 C          -2.2130   -4.9170    0.0000 C.ar    1  LIG1        0.0393
     10 C          -2.9580   -4.2460    0.0000 C.ar    1  LIG1        0.0436
     11 C          -2.7500   -3.2670    0.0000 C.ar    1  LIG1        0.1864
     12 N          -3.3380   -2.4540    0.0000 N.ar    1  LIG1       -0.1273
     13 N          -2.7500   -1.6500    0.0000 N.ar    1  LIG1       -0.1315
     14 C          -1.7960   -1.9580    0.0000 C.ar    1  LIG1        0.1643
     15 C          -0.9920   -1.3710    0.0000 C.3     1  LIG1        0.0773
     16 C          -0.0750   -1.7750    0.0000 C.3     1  LIG1        0.0948
     17 C           0.7330   -1.1880    0.0000 C.2     1  LIG1        0.2418
     18 N           0.7330   -0.1880    0.0000 N.am    1  LIG1       -0.2054
     19 C          -0.1290    0.3130    0.0000 C.3     1  LIG1        0.1155
     20 C          -0.1290    1.3130    0.0000 C.3     1  LIG1        0.0336
     21 C           0.7330    1.8130    0.0000 C.3     1  LIG1        0.0647
     22 C           0.7330    2.8080    0.0000 C.3     1  LIG1        0.1391
     23 N          -0.1290    3.3080    0.0000 N.4     1  LIG1        0.3807
     24 C          -0.1290    4.3080    0.0000 C.3     1  LIG1        0.1658
     25 C           0.7330    4.8080    0.0000 C.ar    1  LIG1        0.0301
     26 C           0.7330    5.8080    0.0000 C.ar    1  LIG1       -0.0203
     27 C           1.6000    6.3080    0.0000 C.ar    1  LIG1       -0.0047
     28 C           2.4670    5.8080    0.0000 C.ar    1  LIG1       -0.0046
     29 C           2.4670    4.8080    0.0000 C.ar    1  LIG1       -0.0220
     30 C           1.6000    4.3080    0.0000 C.ar    1  LIG1       -0.0031
     31 C           3.3330    4.3080    0.0000 C.3     1  LIG1        0.0310
     32 C          -0.1290    6.3080    0.0000 C.3     1  LIG1        0.0309
     33 C          -0.9960    2.8080    0.0000 C.3     1  LIG1        0.1391
     34 C          -0.9960    1.8130    0.0000 C.3     1  LIG1        0.0647
     35 O           1.6500   -1.5960    0.0000 O.2     1  LIG1       -0.2733
@<TRIPOS>BOND
     1     1     2   ar
     2     1    11   ar
     3     1    14   ar
     4     2     3   ar
     5     3     4    1
     6     3     9   ar
     7     4     5    1
     8     4     8    1
     9     5     6    1
    10     6     7    1
    11     7     8    1
    12     9    10   ar
    13    10    11   ar
    14    11    12   ar
    15    12    13   ar
    16    13    14   ar
    17    14    15    1
    18    15    16    1
    19    16    17    1
    20    17    18   am
    21    17    35    2
    22    18    19    1
    23    19    20    1
    24    20    21    1
    25    20    34    1
    26    21    22    1
    27    22    23    1
    28    23    24    1
    29    23    33    1
    30    24    25    1
    31    25    26   ar
    32    25    30   ar
    33    26    27   ar
    34    26    32    1
    35    27    28   ar
    36    28    29   ar
    37    29    30   ar
    38    29    31    1
    39    33    34    1
