@<TRIPOS>MOLECULE
34305_ChemDiv_D012-0375
 21 23 0 0 0
SMALL
GASTEIGER
Energy = 0

@<TRIPOS>ATOM
      1 C           0.2790    0.9040    0.0000 C.2     1  LIG1        0.3437
      2 N           0.8080    0.0460    0.0000 N.am    1  LIG1       -0.1616
      3 C           1.8080    0.0460    0.0000 C.ar    1  LIG1        0.0670
      4 C           2.3000   -0.8210    0.0000 C.ar    1  LIG1       -0.0068
      5 C           3.3040   -0.8080    0.0000 C.ar    1  LIG1       -0.0030
      6 C           3.8040    0.0540    0.0000 C.ar    1  LIG1       -0.0006
      7 C           3.2960    0.9210    0.0000 C.ar    1  LIG1       -0.0030
      8 C           2.3000    0.9130    0.0000 C.ar    1  LIG1       -0.0068
      9 C           1.7960    1.7750    0.0000 C.3     1  LIG1        0.0324
     10 C           1.8000   -1.6830    0.0000 C.3     1  LIG1        0.0324
     11 N          -0.7210    0.8750    0.0000 N.am    1  LIG1       -0.1842
     12 C          -1.0750   -0.0670    0.0000 C.3     1  LIG1        0.1191
     13 C          -2.0420   -0.3250    0.0000 C.ar    1  LIG1       -0.0065
     14 C          -2.0880   -1.3250    0.0000 C.ar    1  LIG1       -0.0245
     15 C          -1.1500   -1.6830    0.0000 C.3     1  LIG1        0.0282
     16 C          -0.5250   -0.9000    0.0000 C.3     1  LIG1        0.0309
     17 C          -2.9670   -1.7830    0.0000 C.ar    1  LIG1       -0.0045
     18 C          -3.8080   -1.2500    0.0000 C.ar    1  LIG1       -0.0003
     19 C          -3.7630   -0.2500    0.0000 C.ar    1  LIG1       -0.0003
     20 C          -2.8750    0.2080    0.0000 C.ar    1  LIG1       -0.0029
     21 O           0.7630    1.7880    0.0000 O.2     1  LIG1       -0.2488
@<TRIPOS>BOND
     1     1     2   am
     2     1    11   am
     3     1    21    2
     4     2     3    1
     5     3     4   ar
     6     3     8   ar
     7     4     5   ar
     8     4    10    1
     9     5     6   ar
    10     6     7   ar
    11     7     8   ar
    12     8     9    1
    13    11    12    1
    14    12    13    1
    15    12    16    1
    16    13    14   ar
    17    13    20   ar
    18    14    15    1
    19    14    17   ar
    20    15    16    1
    21    17    18   ar
    22    18    19   ar
    23    19    20   ar
