@<TRIPOS>MOLECULE
34302_ChemDiv_E591-0845
 28 31 0 0 0
SMALL
GASTEIGER
Energy = 0

@<TRIPOS>ATOM
      1 N          -0.9580   -1.3040    0.0000 N.ar    1  LIG1       -0.1940
      2 N          -0.2130   -1.9750    0.0000 N.ar    1  LIG1       -0.1475
      3 C          -0.4210   -2.9540    0.0000 C.ar    1  LIG1        0.1520
      4 N           0.4460   -3.4540    0.0000 N.pl3   1  LIG1       -0.2919
      5 C           1.3080   -2.9540    0.0000 C.3     1  LIG1        0.0922
      6 C           2.1790   -3.4540    0.0000 C.3     1  LIG1        0.0215
      7 C           2.1790   -4.4540    0.0000 C.3     1  LIG1        0.0035
      8 C           1.3080   -4.9540    0.0000 C.3     1  LIG1        0.0215
      9 C           0.4460   -4.4540    0.0000 C.3     1  LIG1        0.0922
     10 C          -1.3710   -3.2630    0.0000 C.ar    1  LIG1        0.0393
     11 C          -2.1130   -2.5960    0.0000 C.ar    1  LIG1        0.0436
     12 C          -1.9080   -1.6170    0.0000 C.ar    1  LIG1        0.1864
     13 N          -2.4960   -0.8080    0.0000 N.ar    1  LIG1       -0.1273
     14 N          -1.9080    0.0040    0.0000 N.ar    1  LIG1       -0.1315
     15 C          -0.9580   -0.3080    0.0000 C.ar    1  LIG1        0.1643
     16 C          -0.1460    0.2830    0.0000 C.3     1  LIG1        0.0773
     17 C           0.7670   -0.1250    0.0000 C.3     1  LIG1        0.0948
     18 C           1.5750    0.4630    0.0000 C.2     1  LIG1        0.2418
     19 O           2.4920    0.0540    0.0000 O.2     1  LIG1       -0.2733
     20 N           1.5750    1.4630    0.0000 N.am    1  LIG1       -0.2051
     21 C           0.7080    1.9630    0.0000 C.3     1  LIG1        0.1195
     22 C           0.7080    2.9580    0.0000 C.3     1  LIG1        0.0451
     23 C          -0.1540    3.4580    0.0000 C.2     1  LIG1       -0.0467
     24 C          -1.0250    2.9580    0.0000 C.2     1  LIG1       -0.0346
     25 C          -1.8880    3.4580    0.0000 C.3     1  LIG1        0.0254
     26 C          -1.8880    4.4540    0.0000 C.3     1  LIG1        0.0050
     27 C          -1.0250    4.9540    0.0000 C.3     1  LIG1        0.0047
     28 C          -0.1540    4.4540    0.0000 C.3     1  LIG1        0.0218
@<TRIPOS>BOND
     1     1     2   ar
     2     1    12   ar
     3     1    15   ar
     4     2     3   ar
     5     3     4    1
     6     3    10   ar
     7     4     5    1
     8     4     9    1
     9     5     6    1
    10     6     7    1
    11     7     8    1
    12     8     9    1
    13    10    11   ar
    14    11    12   ar
    15    12    13   ar
    16    13    14   ar
    17    14    15   ar
    18    15    16    1
    19    16    17    1
    20    17    18    1
    21    18    19    2
    22    18    20   am
    23    20    21    1
    24    21    22    1
    25    22    23    1
    26    23    24    2
    27    23    28    1
    28    24    25    1
    29    25    26    1
    30    26    27    1
    31    27    28    1
