@<TRIPOS>MOLECULE
34308_ChemDiv_8013-6389
 29 31 0 0 0
SMALL
GASTEIGER
Energy = 0

@<TRIPOS>ATOM
      1 S          -2.0670   -0.4920    0.0000 S.O2    1  LIG1       -0.0550
      2 N          -1.0920   -0.7540    0.0000 N.am    1  LIG1       -0.4882
      3 C          -0.1250   -0.4960    0.0000 C.2     1  LIG1        0.1699
      4 N           0.7460   -0.9960    0.0000 N.am    1  LIG1       -0.1596
      5 C           1.6170   -0.5040    0.0000 C.ar    1  LIG1        0.2472
      6 N           2.4790   -1.0040    0.0000 N.ar    1  LIG1       -0.1928
      7 C           3.3460   -0.5040    0.0000 C.ar    1  LIG1        0.1698
      8 N           3.3460    0.5040    0.0000 N.ar    1  LIG1       -0.1750
      9 C           2.4790    0.9920    0.0000 C.ar    1  LIG1        0.3237
     10 N           1.6170    0.4960    0.0000 N.ar    1  LIG1       -0.1594
     11 O           2.4710    2.0000    0.0000 O.3     1  LIG1       -0.4466
     12 C           3.3290    2.5080    0.0000 C.3     1  LIG1        0.2088
     13 C           4.1920    2.0080    0.0000 C.3     1  LIG1        0.0513
     14 C           4.2080   -1.0040    0.0000 C.ar    1  LIG1        0.0360
     15 C           5.0710   -0.5130    0.0000 C.ar    1  LIG1        0.0030
     16 C           5.9380   -1.0130    0.0000 C.ar    1  LIG1        0.0001
     17 C           5.9250   -2.0080    0.0000 C.ar    1  LIG1        0.0000
     18 C           5.0630   -2.5040    0.0000 C.ar    1  LIG1        0.0001
     19 C           4.2040   -2.0040    0.0000 C.ar    1  LIG1        0.0030
     20 O          -0.1330    0.5040    0.0000 O.2     1  LIG1       -0.2941
     21 C          -3.0380   -0.2210    0.0000 C.ar    1  LIG1        0.0895
     22 C          -3.3000    0.7460    0.0000 C.ar    1  LIG1        0.0192
     23 C          -4.2670    1.0000    0.0000 C.ar    1  LIG1        0.0309
     24 C          -4.9710    0.2880    0.0000 C.ar    1  LIG1        0.1402
     25 C          -4.6960   -0.6790    0.0000 C.ar    1  LIG1        0.0309
     26 C          -3.7420   -0.9330    0.0000 C.ar    1  LIG1        0.0192
     27 F          -5.9380    0.5500    0.0000 F       1  LIG1       -0.2042
     28 O          -1.8080    0.4750    0.0000 O.2     1  LIG1       -0.1841
     29 O          -2.3210   -1.4580    0.0000 O.2     1  LIG1       -0.1841
@<TRIPOS>BOND
     1     1     2    1
     2     1    21    1
     3     1    28    2
     4     1    29    2
     5     2     3   am
     6     3     4   am
     7     3    20    2
     8     4     5    1
     9     5     6   ar
    10     5    10   ar
    11     6     7   ar
    12     7     8   ar
    13     7    14    1
    14     8     9   ar
    15     9    10   ar
    16     9    11    1
    17    11    12    1
    18    12    13    1
    19    14    15   ar
    20    14    19   ar
    21    15    16   ar
    22    16    17   ar
    23    17    18   ar
    24    18    19   ar
    25    21    22   ar
    26    21    26   ar
    27    22    23   ar
    28    23    24   ar
    29    24    25   ar
    30    24    27    1
    31    25    26   ar
