@<TRIPOS>MOLECULE
34304_ChemDiv_E591-0885
 36 40 0 0 0
SMALL
GASTEIGER
Energy = 0

@<TRIPOS>ATOM
      1 N          -1.7960   -2.8080    0.0000 N.ar    1  LIG1       -0.1940
      2 N          -1.0540   -3.4790    0.0000 N.ar    1  LIG1       -0.1475
      3 C          -1.2630   -4.4540    0.0000 C.ar    1  LIG1        0.1520
      4 N          -0.3960   -4.9580    0.0000 N.pl3   1  LIG1       -0.2919
      5 C          -0.3960   -5.9580    0.0000 C.3     1  LIG1        0.0922
      6 C           0.4710   -6.4580    0.0000 C.3     1  LIG1        0.0215
      7 C           1.3330   -5.9580    0.0000 C.3     1  LIG1        0.0035
      8 C           1.3330   -4.9580    0.0000 C.3     1  LIG1        0.0215
      9 C           0.4710   -4.4540    0.0000 C.3     1  LIG1        0.0922
     10 C          -2.2130   -4.7670    0.0000 C.ar    1  LIG1        0.0393
     11 C          -2.9580   -4.0960    0.0000 C.ar    1  LIG1        0.0436
     12 C          -2.7500   -3.1170    0.0000 C.ar    1  LIG1        0.1864
     13 N          -3.3380   -2.3080    0.0000 N.ar    1  LIG1       -0.1273
     14 N          -2.7500   -1.5000    0.0000 N.ar    1  LIG1       -0.1315
     15 C          -1.7960   -1.8080    0.0000 C.ar    1  LIG1        0.1643
     16 C          -0.9920   -1.2210    0.0000 C.3     1  LIG1        0.0773
     17 C          -0.0750   -1.6250    0.0000 C.3     1  LIG1        0.0948
     18 C           0.7330   -1.0420    0.0000 C.2     1  LIG1        0.2418
     19 N           0.7330   -0.0420    0.0000 N.am    1  LIG1       -0.2054
     20 C          -0.1290    0.4630    0.0000 C.3     1  LIG1        0.1155
     21 C          -0.1290    1.4580    0.0000 C.3     1  LIG1        0.0336
     22 C           0.7330    1.9580    0.0000 C.3     1  LIG1        0.0647
     23 C           0.7330    2.9580    0.0000 C.3     1  LIG1        0.1391
     24 N          -0.1290    3.4580    0.0000 N.4     1  LIG1        0.3807
     25 C          -0.1290    4.4580    0.0000 C.3     1  LIG1        0.1658
     26 C           0.7330    4.9580    0.0000 C.ar    1  LIG1        0.0301
     27 C           0.7330    5.9540    0.0000 C.ar    1  LIG1       -0.0203
     28 C           1.6000    6.4580    0.0000 C.ar    1  LIG1       -0.0047
     29 C           2.4670    5.9540    0.0000 C.ar    1  LIG1       -0.0046
     30 C           2.4670    4.9580    0.0000 C.ar    1  LIG1       -0.0220
     31 C           1.6000    4.4580    0.0000 C.ar    1  LIG1       -0.0031
     32 C           3.3330    4.4580    0.0000 C.3     1  LIG1        0.0310
     33 C          -0.1290    6.4580    0.0000 C.3     1  LIG1        0.0309
     34 C          -0.9960    2.9580    0.0000 C.3     1  LIG1        0.1391
     35 C          -0.9960    1.9580    0.0000 C.3     1  LIG1        0.0647
     36 O           1.6500   -1.4460    0.0000 O.2     1  LIG1       -0.2733
@<TRIPOS>BOND
     1     1     2   ar
     2     1    12   ar
     3     1    15   ar
     4     2     3   ar
     5     3     4    1
     6     3    10   ar
     7     4     5    1
     8     4     9    1
     9     5     6    1
    10     6     7    1
    11     7     8    1
    12     8     9    1
    13    10    11   ar
    14    11    12   ar
    15    12    13   ar
    16    13    14   ar
    17    14    15   ar
    18    15    16    1
    19    16    17    1
    20    17    18    1
    21    18    19   am
    22    18    36    2
    23    19    20    1
    24    20    21    1
    25    21    22    1
    26    21    35    1
    27    22    23    1
    28    23    24    1
    29    24    25    1
    30    24    34    1
    31    25    26    1
    32    26    27   ar
    33    26    31   ar
    34    27    28   ar
    35    27    33    1
    36    28    29   ar
    37    29    30   ar
    38    30    31   ar
    39    30    32    1
    40    34    35    1
