@<TRIPOS>MOLECULE
34316_ChemDiv_8013-8185
 15 16 0 0 0
SMALL
GASTEIGER
Energy = 0

@<TRIPOS>ATOM
      1 N          -0.9500    0.0080    0.0000 N.am    1  LIG1       -0.2258
      2 C          -1.4380   -0.8170    0.0000 C.2     1  LIG1        0.1210
      3 S          -2.3880   -0.8170    0.0000 S.3     1  LIG1       -0.0818
      4 C          -2.8750    0.0080    0.0000 C.3     1  LIG1        0.1495
      5 C          -2.3880    0.8330    0.0000 C.2     1  LIG1        0.2452
      6 O          -2.8750    1.6790    0.0000 O.2     1  LIG1       -0.2732
      7 S          -0.9630   -1.6750    0.0000 S.2     1  LIG1       -0.0272
      8 C          -0.0040    0.0080    0.0000 C.ar    1  LIG1        0.0599
      9 C           0.4830   -0.8170    0.0000 C.ar    1  LIG1        0.0263
     10 C           1.4330   -0.8170    0.0000 C.ar    1  LIG1        0.0550
     11 C           1.9210    0.0080    0.0000 C.ar    1  LIG1       -0.0112
     12 C           1.4330    0.8330    0.0000 C.ar    1  LIG1       -0.0021
     13 C           0.4830    0.8330    0.0000 C.ar    1  LIG1        0.0150
     14 C           2.8710    0.0080    0.0000 C.3     1  LIG1        0.0319
     15 CL          1.8960   -1.6380    0.0000 Cl      1  LIG1       -0.0825
@<TRIPOS>BOND
     1     1     2    1
     2     1     5   am
     3     1     8    1
     4     2     3    1
     5     2     7    2
     6     3     4    1
     7     4     5    1
     8     5     6    2
     9     8     9   ar
    10     8    13   ar
    11     9    10   ar
    12    10    11   ar
    13    10    15    1
    14    11    12   ar
    15    11    14    1
    16    12    13   ar
