@<TRIPOS>MOLECULE
34311_ChemDiv_8012-7139
 40 43 0 0 0
SMALL
GASTEIGER
Energy = 0

@<TRIPOS>ATOM
      1 N           4.0960   -0.5710    0.0000 N.am    1  LIG1       -0.2229
      2 C           4.2000    0.4540    0.0000 C.2     1  LIG1        0.2551
      3 C           5.1790    0.6670    0.0000 C.ar    1  LIG1        0.0584
      4 C           5.7000   -0.2210    0.0000 C.ar    1  LIG1        0.0584
      5 C           5.0380   -0.9630    0.0000 C.2     1  LIG1        0.2551
      6 O           5.2460   -1.9290    0.0000 O.2     1  LIG1       -0.2695
      7 C           6.6920   -0.2210    0.0000 C.ar    1  LIG1        0.0047
      8 C           7.2170    0.6540    0.0000 C.ar    1  LIG1        0.0001
      9 C           6.6920    1.5290    0.0000 C.ar    1  LIG1        0.0001
     10 C           5.6920    1.5540    0.0000 C.ar    1  LIG1        0.0047
     11 O           3.4290    1.1250    0.0000 O.2     1  LIG1       -0.2695
     12 C           3.1960   -1.0420    0.0000 C.3     1  LIG1        0.1015
     13 C           2.2960   -0.5540    0.0000 C.3     1  LIG1        0.0220
     14 C           1.4210   -1.0130    0.0000 C.3     1  LIG1        0.0023
     15 C           0.5710   -0.5290    0.0000 C.3     1  LIG1        0.0097
     16 C          -0.2750   -1.0000    0.0000 C.3     1  LIG1        0.0872
     17 C          -1.1500   -0.5080    0.0000 C.2     1  LIG1        0.2456
     18 N          -2.0290   -0.9880    0.0000 N.am    1  LIG1       -0.1760
     19 C          -2.9000   -0.4920    0.0000 C.ar    1  LIG1        0.1103
     20 C          -2.9000    0.5000    0.0000 C.ar    1  LIG1        0.0579
     21 C          -3.7710    1.0080    0.0000 C.ar    1  LIG1        0.1552
     22 C          -4.6330    0.5170    0.0000 C.ar    1  LIG1        0.1106
     23 N          -5.4920    0.9960    0.0000 N.am    1  LIG1       -0.1723
     24 C          -6.3380    0.5000    0.0000 C.2     1  LIG1        0.2691
     25 O          -7.2170    0.9960    0.0000 O.2     1  LIG1       -0.2680
     26 C          -6.3380   -0.5080    0.0000 C.ar    1  LIG1        0.0554
     27 C          -5.4830   -1.0000    0.0000 C.ar    1  LIG1        0.0046
     28 C          -5.4670   -2.0080    0.0000 C.ar    1  LIG1        0.0001
     29 C          -6.3290   -2.5040    0.0000 C.ar    1  LIG1        0.0000
     30 C          -7.1880   -2.0210    0.0000 C.ar    1  LIG1        0.0001
     31 C          -7.1580   -1.0130    0.0000 C.ar    1  LIG1        0.0046
     32 C          -4.6210   -0.4830    0.0000 C.ar    1  LIG1        0.0579
     33 C          -3.7500   -0.9500    0.0000 C.ar    1  LIG1        0.1552
     34 O          -3.7210   -1.9420    0.0000 O.3     1  LIG1       -0.4741
     35 C          -2.8330   -2.4080    0.0000 C.3     1  LIG1        0.2056
     36 C          -1.9880   -1.8790    0.0000 C.3     1  LIG1        0.0512
     37 O          -3.7710    1.9960    0.0000 O.3     1  LIG1       -0.4741
     38 C          -2.9080    2.5080    0.0000 C.3     1  LIG1        0.2056
     39 C          -2.0420    2.0580    0.0000 C.3     1  LIG1        0.0512
     40 O          -1.1500    0.5290    0.0000 O.2     1  LIG1       -0.2730
@<TRIPOS>BOND
     1     1     2   am
     2     1     5   am
     3     1    12    1
     4     2     3    1
     5     2    11    2
     6     3     4   ar
     7     3    10   ar
     8     4     5    1
     9     4     7   ar
    10     5     6    2
    11     7     8   ar
    12     8     9   ar
    13     9    10   ar
    14    12    13    1
    15    13    14    1
    16    14    15    1
    17    15    16    1
    18    16    17    1
    19    17    18   am
    20    17    40    2
    21    18    19    1
    22    19    20   ar
    23    19    33   ar
    24    20    21   ar
    25    21    22   ar
    26    21    37    1
    27    22    23    1
    28    22    32   ar
    29    23    24   am
    30    24    25    2
    31    24    26    1
    32    26    27   ar
    33    26    31   ar
    34    27    28   ar
    35    28    29   ar
    36    29    30   ar
    37    30    31   ar
    38    32    33   ar
    39    33    34    1
    40    34    35    1
    41    35    36    1
    42    37    38    1
    43    38    39    1
