@<TRIPOS>MOLECULE
34313_ChemDiv_8012-7187
 31 35 0 0 0
SMALL
GASTEIGER
Energy = 0

@<TRIPOS>ATOM
      1 C           2.7000    2.0790    0.0000 C.ar    1  LIG1        0.1696
      2 C           1.7000    2.0460    0.0000 C.ar    1  LIG1        0.1531
      3 C           1.1630    2.8830    0.0000 C.ar    1  LIG1        0.2832
      4 N           1.6170    3.7670    0.0000 N.ar    1  LIG1       -0.2454
      5 C           2.6250    3.8170    0.0000 C.ar    1  LIG1        0.3350
      6 N           3.1750    2.9830    0.0000 N.ar    1  LIG1       -0.2628
      7 C           4.1630    3.0290    0.0000 C.3     1  LIG1        0.1366
      8 O           3.0750    4.7040    0.0000 O.2     1  LIG1       -0.2461
      9 C           1.0790    4.6040    0.0000 C.3     1  LIG1        0.1383
     10 O           0.1670    2.8380    0.0000 O.2     1  LIG1       -0.2652
     11 N           1.4330    1.0790    0.0000 N.ar    1  LIG1       -0.2954
     12 C           2.2750    0.5330    0.0000 C.ar    1  LIG1        0.1805
     13 N           3.0500    1.1580    0.0000 N.ar    1  LIG1       -0.2063
     14 C           0.4920    0.7290    0.0000 C.3     1  LIG1        0.1936
     15 C           0.5460   -0.2710    0.0000 C.2     1  LIG1        0.2524
     16 N          -0.2960   -0.8210    0.0000 N.am    1  LIG1       -0.2583
     17 C          -1.2210   -0.4540    0.0000 C.3     1  LIG1        0.0955
     18 C          -1.8540   -1.2330    0.0000 C.3     1  LIG1        0.0991
     19 C          -1.3080   -2.0630    0.0000 C.ar    1  LIG1       -0.0017
     20 C          -0.3420   -1.8080    0.0000 C.ar    1  LIG1        0.0500
     21 C           0.3630   -2.5130    0.0000 C.ar    1  LIG1        0.0143
     22 C           0.0920   -3.4710    0.0000 C.ar    1  LIG1       -0.0030
     23 C          -0.8710   -3.7420    0.0000 C.ar    1  LIG1       -0.0221
     24 C          -1.5750   -3.0250    0.0000 C.ar    1  LIG1       -0.0070
     25 C          -1.1330   -4.7040    0.0000 C.3     1  LIG1        0.0310
     26 C          -2.8380   -1.0630    0.0000 C.3     1  LIG1        0.1448
     27 N          -3.1960   -0.1210    0.0000 N.4     1  LIG1        0.3823
     28 C          -2.5630    0.6540    0.0000 C.3     1  LIG1        0.1406
     29 C          -1.5630    0.4830    0.0000 C.3     1  LIG1        0.0834
     30 C          -4.1670    0.0460    0.0000 C.3     1  LIG1        0.2022
     31 O           1.4460   -0.7330    0.0000 O.2     1  LIG1       -0.2724
@<TRIPOS>BOND
     1     1     2   ar
     2     1     6   ar
     3     1    13   ar
     4     2     3   ar
     5     2    11   ar
     6     3     4   ar
     7     3    10    2
     8     4     5   ar
     9     4     9    1
    10     5     6   ar
    11     5     8    2
    12     6     7    1
    13    11    12   ar
    14    11    14    1
    15    12    13   ar
    16    14    15    1
    17    15    16   am
    18    15    31    2
    19    16    17    1
    20    16    20    1
    21    17    18    1
    22    17    29    1
    23    18    19    1
    24    18    26    1
    25    19    20   ar
    26    19    24   ar
    27    20    21   ar
    28    21    22   ar
    29    22    23   ar
    30    23    24   ar
    31    23    25    1
    32    26    27    1
    33    27    28    1
    34    27    30    1
    35    28    29    1
