@<TRIPOS>MOLECULE
34321_ChemDiv_8012-8678
 22 24 0 0 0
SMALL
GASTEIGER
Energy = 0

@<TRIPOS>ATOM
      1 N          -0.8960    0.4420    0.0000 N.ar    1  LIG1       -0.2120
      2 C          -1.7630    0.9380    0.0000 C.ar    1  LIG1        0.2766
      3 C          -2.6460    0.4420    0.0000 C.ar    1  LIG1        0.0591
      4 C          -2.6460   -0.5460    0.0000 C.ar    1  LIG1        0.0255
      5 C          -1.7630   -1.0380    0.0000 C.ar    1  LIG1        0.1203
      6 N          -0.8960   -0.5460    0.0000 N.ar    1  LIG1       -0.1649
      7 C          -3.5130   -1.0380    0.0000 C.ar    1  LIG1        0.0018
      8 C          -4.3830   -0.5460    0.0000 C.ar    1  LIG1        0.0001
      9 C          -4.3830    0.4420    0.0000 C.ar    1  LIG1        0.0002
     10 C          -3.5130    0.9380    0.0000 C.ar    1  LIG1        0.0048
     11 O          -1.7500    1.9210    0.0000 O.2     1  LIG1       -0.2655
     12 C          -0.0380    0.9250    0.0000 C.3     1  LIG1        0.1571
     13 C           0.9290    0.4330    0.0000 C.ar    1  LIG1        0.0022
     14 C           0.9290   -0.5540    0.0000 C.ar    1  LIG1       -0.0027
     15 C           1.7960   -1.0580    0.0000 C.ar    1  LIG1       -0.0045
     16 C           2.6540   -0.5540    0.0000 C.ar    1  LIG1       -0.0228
     17 C           3.5210   -1.0380    0.0000 C.3     1  LIG1        0.0189
     18 C           4.3790   -1.5170    0.0000 C.3     1  LIG1        0.0044
     19 C           4.0170   -0.1540    0.0000 C.3     1  LIG1        0.0044
     20 C           3.0290   -1.9170    0.0000 C.3     1  LIG1        0.0044
     21 C           2.6540    0.4330    0.0000 C.ar    1  LIG1       -0.0045
     22 C           1.7960    0.9380    0.0000 C.ar    1  LIG1       -0.0027
@<TRIPOS>BOND
     1     1     2   ar
     2     1     6   ar
     3     1    12    1
     4     2     3   ar
     5     2    11    2
     6     3     4   ar
     7     3    10   ar
     8     4     5   ar
     9     4     7   ar
    10     5     6   ar
    11     7     8   ar
    12     8     9   ar
    13     9    10   ar
    14    12    13    1
    15    13    14   ar
    16    13    22   ar
    17    14    15   ar
    18    15    16   ar
    19    16    17    1
    20    16    21   ar
    21    17    18    1
    22    17    19    1
    23    17    20    1
    24    21    22   ar
