@<TRIPOS>MOLECULE
34324_ChemDiv_E591-0946
 32 36 0 0 0
SMALL
GASTEIGER
Energy = 0

@<TRIPOS>ATOM
      1 N          -0.9580   -2.0540    0.0000 N.ar    1  LIG1       -0.1940
      2 N          -0.2130   -2.7250    0.0000 N.ar    1  LIG1       -0.1475
      3 C          -0.4210   -3.7040    0.0000 C.ar    1  LIG1        0.1522
      4 N           0.4460   -4.2040    0.0000 N.pl3   1  LIG1       -0.2867
      5 C           0.4460   -5.2040    0.0000 C.3     1  LIG1        0.1243
      6 C           1.3130   -5.7040    0.0000 C.3     1  LIG1        0.1636
      7 O           2.1790   -5.2040    0.0000 O.3     1  LIG1       -0.3501
      8 C           2.1790   -4.2040    0.0000 C.3     1  LIG1        0.1636
      9 C           1.3130   -3.7040    0.0000 C.3     1  LIG1        0.1243
     10 C          -1.3750   -4.0130    0.0000 C.ar    1  LIG1        0.0393
     11 C          -2.1170   -3.3460    0.0000 C.ar    1  LIG1        0.0436
     12 C          -1.9080   -2.3670    0.0000 C.ar    1  LIG1        0.1864
     13 N          -2.4960   -1.5580    0.0000 N.ar    1  LIG1       -0.1273
     14 N          -1.9080   -0.7460    0.0000 N.ar    1  LIG1       -0.1315
     15 C          -0.9580   -1.0580    0.0000 C.ar    1  LIG1        0.1643
     16 C          -0.1460   -0.4670    0.0000 C.3     1  LIG1        0.0773
     17 C           0.7670   -0.8750    0.0000 C.3     1  LIG1        0.0933
     18 C           1.5750   -0.2880    0.0000 C.2     1  LIG1        0.2261
     19 N           1.5750    0.7130    0.0000 N.am    1  LIG1       -0.2795
     20 C           2.4420    1.2130    0.0000 C.3     1  LIG1        0.0934
     21 C           2.4420    2.2080    0.0000 C.3     1  LIG1        0.0219
     22 C           1.5750    2.7080    0.0000 C.3     1  LIG1        0.0078
     23 C           1.5750    3.7130    0.0000 C.3     1  LIG1        0.0265
     24 C           0.7130    4.2080    0.0000 C.ar    1  LIG1       -0.0222
     25 C          -0.1540    3.7130    0.0000 C.ar    1  LIG1       -0.0043
     26 C          -1.0250    4.2080    0.0000 C.ar    1  LIG1       -0.0003
     27 C          -1.0250    5.2040    0.0000 C.ar    1  LIG1       -0.0000
     28 C          -0.1540    5.7040    0.0000 C.ar    1  LIG1       -0.0003
     29 C           0.7130    5.2040    0.0000 C.ar    1  LIG1       -0.0043
     30 C           0.7130    2.2080    0.0000 C.3     1  LIG1        0.0219
     31 C           0.7130    1.2130    0.0000 C.3     1  LIG1        0.0934
     32 O           2.4920   -0.6960    0.0000 O.2     1  LIG1       -0.2749
@<TRIPOS>BOND
     1     1     2   ar
     2     1    12   ar
     3     1    15   ar
     4     2     3   ar
     5     3     4    1
     6     3    10   ar
     7     4     5    1
     8     4     9    1
     9     5     6    1
    10     6     7    1
    11     7     8    1
    12     8     9    1
    13    10    11   ar
    14    11    12   ar
    15    12    13   ar
    16    13    14   ar
    17    14    15   ar
    18    15    16    1
    19    16    17    1
    20    17    18    1
    21    18    19   am
    22    18    32    2
    23    19    20    1
    24    19    31    1
    25    20    21    1
    26    21    22    1
    27    22    23    1
    28    22    30    1
    29    23    24    1
    30    24    25   ar
    31    24    29   ar
    32    25    26   ar
    33    26    27   ar
    34    27    28   ar
    35    28    29   ar
    36    30    31    1
