@<TRIPOS>MOLECULE
34323_ChemDiv_8012-8685
 29 33 0 0 0
SMALL
GASTEIGER
Energy = 0

@<TRIPOS>ATOM
      1 S          -1.2540    0.0630    0.0000 S.O2    1  LIG1        0.0633
      2 N          -2.2000   -0.2080    0.0000 N.3     1  LIG1       -0.1555
      3 C          -2.8880    0.4710    0.0000 C.3     1  LIG1        0.0958
      4 C          -3.8170    0.2130    0.0000 C.3     1  LIG1        0.0192
      5 C          -4.0670   -0.7290    0.0000 C.3     1  LIG1        0.0029
      6 C          -3.3880   -1.4040    0.0000 C.3     1  LIG1        0.0192
      7 C          -2.4540   -1.1670    0.0000 C.3     1  LIG1        0.0958
      8 C          -5.0040   -1.0170    0.0000 C.3     1  LIG1        0.0001
      9 C          -0.2960    0.3130    0.0000 C.ar    1  LIG1        0.1222
     10 C          -0.0460    1.2670    0.0000 C.ar    1  LIG1        0.0201
     11 C           0.8710    1.5250    0.0000 C.ar    1  LIG1        0.0059
     12 C           1.5540    0.8330    0.0000 C.ar    1  LIG1        0.0551
     13 C           2.5210    1.1080    0.0000 C.2     1  LIG1        0.2647
     14 N           3.1960    0.4250    0.0000 N.am    1  LIG1       -0.2051
     15 C           2.9330   -0.4960    0.0000 C.3     1  LIG1        0.0789
     16 C           3.6170    0.3790    0.0000 C.3     1  LIG1        0.0200
     17 C           4.5670    0.1880    0.0000 C.3     1  LIG1        0.0017
     18 C           3.8040   -0.0880    0.0000 C.3     1  LIG1        0.0001
     19 C           2.9330   -1.2080    0.0000 C.3     1  LIG1        0.0017
     20 C           1.8040   -0.7290    0.0000 C.3     1  LIG1        0.0200
     21 C           3.6170   -2.0630    0.0000 C.3     1  LIG1        0.0001
     22 C           4.2830   -1.5830    0.0000 C.3     1  LIG1        0.0017
     23 C           3.3420   -1.2580    0.0000 C.3     1  LIG1        0.0200
     24 C           5.0000   -0.6540    0.0000 C.3     1  LIG1        0.0001
     25 O           2.7710    2.0670    0.0000 O.2     1  LIG1       -0.2684
     26 C           1.3040   -0.0960    0.0000 C.ar    1  LIG1        0.0059
     27 C           0.3830   -0.3330    0.0000 C.ar    1  LIG1        0.0201
     28 O          -0.9880   -0.8830    0.0000 O.2     1  LIG1       -0.1528
     29 O          -1.5210    1.0170    0.0000 O.2     1  LIG1       -0.1528
@<TRIPOS>BOND
     1     1     2    1
     2     1     9    1
     3     1    28    2
     4     1    29    2
     5     2     3    1
     6     2     7    1
     7     3     4    1
     8     4     5    1
     9     5     6    1
    10     5     8    1
    11     6     7    1
    12     9    10   ar
    13     9    27   ar
    14    10    11   ar
    15    11    12   ar
    16    12    13    1
    17    12    26   ar
    18    13    14   am
    19    13    25    2
    20    14    15    1
    21    15    16    1
    22    15    20    1
    23    15    23    1
    24    16    17    1
    25    17    18    1
    26    17    24    1
    27    18    19    1
    28    19    20    1
    29    19    21    1
    30    21    22    1
    31    22    23    1
    32    22    24    1
    33    26    27   ar
