@<TRIPOS>MOLECULE
34332_ChemDiv_8013-1494
 20 23 0 0 0
SMALL
GASTEIGER
Energy = 0

@<TRIPOS>ATOM
      1 C          -0.0960   -1.7040    0.0000 C.ar    1  LIG1        0.1367
      2 N          -0.0960   -0.7960    0.0000 N.ar    1  LIG1       -0.2320
      3 C          -1.6790   -0.7960    0.0000 C.ar    1  LIG1        0.0884
      4 C          -1.6790   -1.7040    0.0000 C.ar    1  LIG1        0.0490
      5 S          -0.8830   -2.1540    0.0000 S.2     1  LIG1       -0.0603
      6 C          -2.4710   -2.1540    0.0000 C.ar    1  LIG1        0.0080
      7 C          -3.2580   -1.7040    0.0000 C.ar    1  LIG1        0.0006
      8 C          -3.2580   -0.7960    0.0000 C.ar    1  LIG1        0.0016
      9 C          -2.4710   -0.3540    0.0000 C.ar    1  LIG1        0.0196
     10 S           0.7500   -2.1830    0.0000 S.3     1  LIG1       -0.0837
     11 C           1.5880   -1.6880    0.0000 C.3     1  LIG1        0.0904
     12 C           1.5880   -0.7290    0.0000 C.ar    1  LIG1       -0.0092
     13 C           2.4040   -0.2380    0.0000 C.ar    1  LIG1        0.0207
     14 C           2.4130    0.7210    0.0000 C.ar    1  LIG1        0.1429
     15 C           1.5710    1.2080    0.0000 C.ar    1  LIG1        0.1431
     16 N           1.5710    2.1880    0.0000 N.ar    1  LIG1       -0.0483
     17 O           3.2540    2.1790    0.0000 O.2     1  LIG1       -0.2415
     18 N           3.2460    1.2000    0.0000 N.ar    1  LIG1       -0.0483
     19 C           0.7630    0.7040    0.0000 C.ar    1  LIG1        0.0238
     20 C           0.7630   -0.2500    0.0000 C.ar    1  LIG1       -0.0016
@<TRIPOS>BOND
     1     1     2   ar
     2     1     5   ar
     3     1    10    1
     4     2     3   ar
     5     3     4   ar
     6     3     9   ar
     7     4     5   ar
     8     4     6   ar
     9     6     7   ar
    10     7     8   ar
    11     8     9   ar
    12    10    11    1
    13    11    12    1
    14    12    13   ar
    15    12    20   ar
    16    13    14   ar
    17    14    15   ar
    18    14    18   ar
    19    15    16   ar
    20    15    19   ar
    21    16    17   ar
    22    17    18   ar
    23    19    20   ar
