@<TRIPOS>MOLECULE
34339_ChemDiv_8012-7259
 17 19 0 0 0
SMALL
GASTEIGER
Energy = 0

@<TRIPOS>ATOM
      1 C           0.2420    0.2170    0.0000 C.3     1  LIG1        0.0990
      2 N           0.1920   -0.7380    0.0000 N.am    1  LIG1       -0.2432
      3 C           1.1080   -1.0830    0.0000 C.2     1  LIG1        0.4048
      4 O           1.7000   -0.3540    0.0000 O.3     1  LIG1       -0.4402
      5 C           1.1790    0.4630    0.0000 C.3     1  LIG1        0.1526
      6 C           1.2330    1.4170    0.0000 C.3     1  LIG1        0.0419
      7 C           0.3460    1.8000    0.0000 C.3     1  LIG1        0.0077
      8 C          -0.2790    1.0330    0.0000 C.3     1  LIG1        0.0452
      9 C          -1.2500    1.1420    0.0000 C.3     1  LIG1        0.0945
     10 O          -1.9250    0.4460    0.0000 O.3     1  LIG1       -0.3567
     11 C          -1.5290   -1.0500    0.0000 C.3     1  LIG1        0.1635
     12 C          -0.5920   -1.3080    0.0000 C.3     1  LIG1        0.1287
     13 C          -2.1170    1.5750    0.0000 C.3     1  LIG1        0.0297
     14 C          -0.8210    2.0250    0.0000 C.3     1  LIG1        0.0297
     15 C           2.1130    0.7250    0.0000 C.3     1  LIG1        0.0454
     16 O           1.3710   -2.0210    0.0000 O.2     1  LIG1       -0.2262
     17 C          -0.6080   -0.2670    0.0000 C.3     1  LIG1        0.0236
@<TRIPOS>BOND
     1     1     2    1
     2     1     5    1
     3     1     8    1
     4     1    17    1
     5     2     3   am
     6     2    12    1
     7     3     4    1
     8     3    16    2
     9     4     5    1
    10     5     6    1
    11     5    15    1
    12     6     7    1
    13     7     8    1
    14     8     9    1
    15     9    10    1
    16     9    13    1
    17     9    14    1
    18    10    11    1
    19    11    12    1
