@<TRIPOS>MOLECULE
34344_ChemDiv_8014-1041
 24 27 0 0 0
SMALL
GASTEIGER
Energy = 0

@<TRIPOS>ATOM
      1 C           0.4170    0.7420    0.0000 C.3     1  LIG1        0.1159
      2 N           0.7250    1.7130    0.0000 N.am    1  LIG1       -0.2421
      3 C           1.7290    1.7130    0.0000 C.2     1  LIG1        0.4050
      4 O           2.0330    0.7630    0.0000 O.3     1  LIG1       -0.4394
      5 C           1.2170    0.1710    0.0000 C.3     1  LIG1        0.1670
      6 C           1.8830   -0.6080    0.0000 C.3     1  LIG1        0.0989
      7 C           1.5380   -1.5420    0.0000 C.3     1  LIG1        0.1005
      8 N           0.5330   -1.7080    0.0000 N.4     1  LIG1        0.4300
      9 C          -0.1170   -0.9500    0.0000 C.3     1  LIG1        0.1005
     10 C           0.2290    0.0000    0.0000 C.3     1  LIG1        0.0989
     11 C          -0.8000   -1.6920    0.0000 C.3     1  LIG1        0.0628
     12 C          -1.1210   -0.8630    0.0000 C.3     1  LIG1        0.0628
     13 C           2.5500   -1.6330    0.0000 C.3     1  LIG1        0.0628
     14 C           1.4460   -2.5460    0.0000 C.3     1  LIG1        0.0628
     15 O           2.3210    2.5500    0.0000 O.2     1  LIG1       -0.2262
     16 C           0.1500    2.4750    0.0000 C.3     1  LIG1        0.1017
     17 C          -0.8380    2.3040    0.0000 C.3     1  LIG1        0.0477
     18 C          -1.2000    1.3710    0.0000 C.ar    1  LIG1       -0.0228
     19 C          -0.5710    0.5920    0.0000 C.ar    1  LIG1       -0.0066
     20 C          -0.9330   -0.3630    0.0000 C.ar    1  LIG1       -0.0029
     21 C          -1.9210   -0.5130    0.0000 C.ar    1  LIG1       -0.0003
     22 C          -2.5540    0.2670    0.0000 C.ar    1  LIG1       -0.0003
     23 C          -2.1880    1.2000    0.0000 C.ar    1  LIG1       -0.0045
     24 C          -0.1420    1.4170    0.0000 C.3     1  LIG1        0.0281
@<TRIPOS>BOND
     1     1     2    1
     2     1     5    1
     3     1    19    1
     4     1    24    1
     5     2     3   am
     6     2    16    1
     7     3     4    1
     8     3    15    2
     9     4     5    1
    10     5     6    1
    11     5    10    1
    12     6     7    1
    13     7     8    1
    14     7    13    1
    15     7    14    1
    16     8     9    1
    17     9    10    1
    18     9    11    1
    19     9    12    1
    20    16    17    1
    21    17    18    1
    22    18    19   ar
    23    18    23   ar
    24    19    20   ar
    25    20    21   ar
    26    21    22   ar
    27    22    23   ar
