@<TRIPOS>MOLECULE
34346_ChemDiv_8014-1077
 26 29 0 0 0
SMALL
GASTEIGER
Energy = 0

@<TRIPOS>ATOM
      1 P          -0.4290    0.3630    0.0000 P.3     1  LIG1        0.2836
      2 C           0.0540   -0.5000    0.0000 C.3     1  LIG1        0.1959
      3 C          -0.4420   -1.3630    0.0000 C.ar    1  LIG1        0.0676
      4 S          -0.0420   -2.2880    0.0000 S.2     1  LIG1       -0.0846
      5 C          -0.7830   -2.9540    0.0000 C.ar    1  LIG1        0.0353
      6 C          -1.6540   -2.4540    0.0000 C.ar    1  LIG1        0.0074
      7 C          -1.4380   -1.4710    0.0000 C.ar    1  LIG1        0.0088
      8 N           1.0580   -0.5000    0.0000 N.4     1  LIG1        0.3837
      9 C           1.5630   -1.3750    0.0000 C.3     1  LIG1        0.1395
     10 C           2.5420   -1.3750    0.0000 C.3     1  LIG1        0.0630
     11 C           3.0500   -0.5130    0.0000 C.3     1  LIG1        0.0123
     12 C           2.5540    0.3630    0.0000 C.3     1  LIG1        0.0630
     13 C           1.5630    0.3630    0.0000 C.3     1  LIG1        0.1395
     14 N          -0.9290    1.2380    0.0000 N.3     1  LIG1       -0.2152
     15 C          -1.9330    1.2380    0.0000 C.3     1  LIG1        0.0796
     16 C          -2.4210    2.0960    0.0000 C.3     1  LIG1        0.0178
     17 C          -1.9250    2.9580    0.0000 C.3     1  LIG1        0.0029
     18 C          -0.9170    2.9580    0.0000 C.3     1  LIG1        0.0178
     19 C          -0.4170    2.0790    0.0000 C.3     1  LIG1        0.0796
     20 N          -1.3040   -0.1330    0.0000 N.3     1  LIG1       -0.2152
     21 C          -2.1790    0.3750    0.0000 C.3     1  LIG1        0.0796
     22 C          -3.0420   -0.1250    0.0000 C.3     1  LIG1        0.0178
     23 C          -3.0540   -1.1170    0.0000 C.3     1  LIG1        0.0029
     24 C          -2.1920   -1.6290    0.0000 C.3     1  LIG1        0.0178
     25 C          -1.3170   -1.1290    0.0000 C.3     1  LIG1        0.0796
     26 O           0.4420    0.8460    0.0000 O.2     1  LIG1       -0.2799
@<TRIPOS>BOND
     1     1     2    1
     2     1    14    1
     3     1    20    1
     4     1    26    2
     5     2     3    1
     6     2     8    1
     7     3     4   ar
     8     3     7   ar
     9     4     5   ar
    10     5     6   ar
    11     6     7   ar
    12     8     9    1
    13     8    13    1
    14     9    10    1
    15    10    11    1
    16    11    12    1
    17    12    13    1
    18    14    15    1
    19    14    19    1
    20    15    16    1
    21    16    17    1
    22    17    18    1
    23    18    19    1
    24    20    21    1
    25    20    25    1
    26    21    22    1
    27    22    23    1
    28    23    24    1
    29    24    25    1
