@<TRIPOS>MOLECULE
34342_ChemDiv_8014-0401
 19 21 0 0 0
SMALL
GASTEIGER
Energy = 0

@<TRIPOS>ATOM
      1 C           0.4290   -0.2710    0.0000 C.3     1  LIG1        0.1161
      2 C          -0.3960    0.3210    0.0000 C.2     1  LIG1        0.0887
      3 N          -0.1540    1.2960    0.0000 N.2     1  LIG1       -0.2717
      4 C           0.8710    1.3130    0.0000 C.3     1  LIG1        0.0861
      5 C           1.1500    0.3540    0.0000 C.3     1  LIG1        0.0399
      6 C           1.5830    1.7580    0.0000 C.3     1  LIG1        0.0244
      7 C           1.0210    2.3000    0.0000 C.3     1  LIG1        0.0244
      8 S          -1.3330   -0.0130    0.0000 S.3     1  LIG1       -0.0980
      9 C          -2.0920    0.6330    0.0000 C.3     1  LIG1        0.0754
     10 C          -0.4540   -0.7750    0.0000 C.ar    1  LIG1       -0.0101
     11 C          -0.4540   -1.7920    0.0000 C.ar    1  LIG1       -0.0031
     12 C           0.4290   -2.2960    0.0000 C.2     1  LIG1        0.0027
     13 C           1.3080   -1.7920    0.0000 C.2     1  LIG1        0.0381
     14 C           1.3080   -0.7750    0.0000 C.2     1  LIG1        0.1818
     15 O           2.1960   -0.2710    0.0000 O.2     1  LIG1       -0.2906
     16 C          -1.3210   -2.2960    0.0000 C.ar    1  LIG1       -0.0003
     17 C          -2.2000   -1.7920    0.0000 C.ar    1  LIG1       -0.0000
     18 C          -2.2000   -0.7750    0.0000 C.ar    1  LIG1       -0.0003
     19 C          -1.3210   -0.2710    0.0000 C.ar    1  LIG1       -0.0035
@<TRIPOS>BOND
     1     1     2    1
     2     1     5    1
     3     1    10    1
     4     1    14    1
     5     2     3    2
     6     2     8    1
     7     3     4    1
     8     4     5    1
     9     4     6    1
    10     4     7    1
    11     8     9    1
    12    10    11   ar
    13    10    19   ar
    14    11    12    1
    15    11    16   ar
    16    12    13    2
    17    13    14    1
    18    14    15    2
    19    16    17   ar
    20    17    18   ar
    21    18    19   ar
