@<TRIPOS>MOLECULE
34341_ChemDiv_8012-7362
 32 35 0 0 0
SMALL
GASTEIGER
Energy = 0

@<TRIPOS>ATOM
      1 S          -4.4710   -0.0210    0.0000 S.O2    1  LIG1        0.0637
      2 N          -3.9880    0.8330    0.0000 N.3     1  LIG1       -0.1481
      3 C          -3.0000    0.8330    0.0000 C.3     1  LIG1        0.1571
      4 C          -2.5170   -0.0330    0.0000 C.2     1  LIG1        0.2576
      5 O          -2.9880   -0.8960    0.0000 O.2     1  LIG1       -0.2718
      6 N          -1.5500   -0.0210    0.0000 N.am    1  LIG1       -0.2003
      7 C          -1.0580    0.8790    0.0000 C.3     1  LIG1        0.1623
      8 C          -0.0500    0.8790    0.0000 C.3     1  LIG1        0.2287
      9 O           0.4380    0.0290    0.0000 O.3     1  LIG1       -0.4735
     10 C           1.4130    0.0290    0.0000 C.ar    1  LIG1        0.1386
     11 C           1.9210   -0.8330    0.0000 C.ar    1  LIG1        0.0366
     12 C           2.9040   -0.8330    0.0000 C.ar    1  LIG1       -0.0012
     13 C           3.4040    0.0290    0.0000 C.ar    1  LIG1       -0.0223
     14 C           2.9040    0.8790    0.0000 C.ar    1  LIG1       -0.0012
     15 C           1.9210    0.8790    0.0000 C.ar    1  LIG1        0.0366
     16 C           4.3920    0.0290    0.0000 C.3     1  LIG1        0.0223
     17 C           4.9000   -0.8330    0.0000 C.3     1  LIG1        0.0044
     18 C           5.8830   -0.8330    0.0000 C.3     1  LIG1        0.0003
     19 C           6.3790    0.0290    0.0000 C.3     1  LIG1        0.0000
     20 C           5.8830    0.8790    0.0000 C.3     1  LIG1        0.0003
     21 C           4.9000    0.8790    0.0000 C.3     1  LIG1        0.0044
     22 C          -2.5170    1.6790    0.0000 C.3     1  LIG1        0.0286
     23 C          -3.9880    2.5170    0.0000 C.3     1  LIG1        0.0211
     24 C          -4.4830    1.6790    0.0000 C.3     1  LIG1        0.0964
     25 O          -3.6330   -0.5210    0.0000 O.2     1  LIG1       -0.1528
     26 O          -5.2880    0.4790    0.0000 O.2     1  LIG1       -0.1528
     27 C          -4.9710   -0.8500    0.0000 C.ar    1  LIG1        0.1222
     28 C          -5.9290   -0.8500    0.0000 C.ar    1  LIG1        0.0199
     29 C          -6.3790   -1.6750    0.0000 C.ar    1  LIG1        0.0014
     30 C          -5.8960   -2.5130    0.0000 C.ar    1  LIG1        0.0001
     31 C          -4.9710   -2.5130    0.0000 C.ar    1  LIG1        0.0014
     32 C          -4.5000   -1.7000    0.0000 C.ar    1  LIG1        0.0199
@<TRIPOS>BOND
     1     1     2    1
     2     1    25    2
     3     1    26    2
     4     1    27    1
     5     2     3    1
     6     2    24    1
     7     3     4    1
     8     3    22    1
     9     4     5    2
    10     4     6   am
    11     6     7    1
    12     7     8    1
    13     8     9    1
    14     9    10    1
    15    10    11   ar
    16    10    15   ar
    17    11    12   ar
    18    12    13   ar
    19    13    14   ar
    20    13    16    1
    21    14    15   ar
    22    16    17    1
    23    16    21    1
    24    17    18    1
    25    18    19    1
    26    19    20    1
    27    20    21    1
    28    22    23    1
    29    23    24    1
    30    27    28   ar
    31    27    32   ar
    32    28    29   ar
    33    29    30   ar
    34    30    31   ar
    35    31    32   ar
