@<TRIPOS>MOLECULE
34345_ChemDiv_8016-9819
 29 31 0 0 0
SMALL
GASTEIGER
Energy = 0

@<TRIPOS>ATOM
      1 S          -1.8210   -0.1460    0.0000 S.O2    1  LIG1        0.0637
      2 N          -1.1380   -0.7630    0.0000 N.3     1  LIG1       -0.1481
      3 C          -0.2210   -0.6790    0.0000 C.3     1  LIG1        0.1571
      4 C           0.2540    0.1210    0.0000 C.2     1  LIG1        0.2578
      5 N           1.1750    0.1000    0.0000 N.am    1  LIG1       -0.1994
      6 C           1.6250   -0.7040    0.0000 C.3     1  LIG1        0.1415
      7 C           2.5420   -0.7130    0.0000 C.ar    1  LIG1       -0.0006
      8 C           3.0040    0.0830    0.0000 C.ar    1  LIG1       -0.0029
      9 C           3.9170    0.0830    0.0000 C.ar    1  LIG1       -0.0046
     10 C           4.3790   -0.7250    0.0000 C.ar    1  LIG1       -0.0228
     11 C           5.3040   -0.7330    0.0000 C.3     1  LIG1        0.0189
     12 C           5.7540   -1.5330    0.0000 C.3     1  LIG1        0.0044
     13 C           5.7670    0.0710    0.0000 C.3     1  LIG1        0.0044
     14 C           5.0540   -1.6170    0.0000 C.3     1  LIG1        0.0044
     15 C           3.9130   -1.5170    0.0000 C.ar    1  LIG1       -0.0046
     16 C           2.9920   -1.5130    0.0000 C.ar    1  LIG1       -0.0029
     17 O          -0.2000    0.9170    0.0000 O.2     1  LIG1       -0.2718
     18 C           0.1420   -1.5250    0.0000 C.3     1  LIG1        0.0286
     19 C          -0.5500   -2.1380    0.0000 C.3     1  LIG1        0.0211
     20 C          -1.3460   -1.6630    0.0000 C.3     1  LIG1        0.0964
     21 C          -2.8080    0.4250    0.0000 C.ar    1  LIG1        0.1224
     22 C          -3.7960   -0.1460    0.0000 C.ar    1  LIG1        0.0222
     23 C          -4.7830    0.4250    0.0000 C.ar    1  LIG1        0.0310
     24 C          -4.7830    1.5670    0.0000 C.ar    1  LIG1        0.1402
     25 C          -3.8000    2.1420    0.0000 C.ar    1  LIG1        0.0310
     26 C          -2.8080    1.5750    0.0000 C.ar    1  LIG1        0.0222
     27 F          -5.7710    2.1420    0.0000 F       1  LIG1       -0.2042
     28 O          -2.6000   -0.9920    0.0000 O.2     1  LIG1       -0.1528
     29 O          -0.9210    0.8710    0.0000 O.2     1  LIG1       -0.1528
@<TRIPOS>BOND
     1     1     2    1
     2     1    21    1
     3     1    28    2
     4     1    29    2
     5     2     3    1
     6     2    20    1
     7     3     4    1
     8     3    18    1
     9     4     5   am
    10     4    17    2
    11     5     6    1
    12     6     7    1
    13     7     8   ar
    14     7    16   ar
    15     8     9   ar
    16     9    10   ar
    17    10    11    1
    18    10    15   ar
    19    11    12    1
    20    11    13    1
    21    11    14    1
    22    15    16   ar
    23    18    19    1
    24    19    20    1
    25    21    22   ar
    26    21    26   ar
    27    22    23   ar
    28    23    24   ar
    29    24    25   ar
    30    24    27    1
    31    25    26   ar
