@<TRIPOS>MOLECULE
34343_ChemDiv_8016-2653
 34 37 0 0 0
SMALL
GASTEIGER
Energy = 0

@<TRIPOS>ATOM
      1 S          -1.8080    1.4710    0.0000 S.O2    1  LIG1        0.0637
      2 N          -1.8000    2.4710    0.0000 N.3     1  LIG1       -0.1481
      3 C          -0.9830    3.0580    0.0000 C.3     1  LIG1        0.1571
      4 C          -0.0330    2.7460    0.0000 C.2     1  LIG1        0.2581
      5 N           0.1670    1.7630    0.0000 N.am    1  LIG1       -0.1970
      6 C           1.1290    1.4460    0.0000 C.3     1  LIG1        0.1397
      7 C           1.8710    2.1080    0.0000 C.ar    1  LIG1        0.0016
      8 C           2.8170    1.7960    0.0000 C.ar    1  LIG1       -0.0023
      9 C           3.5580    2.4580    0.0000 C.ar    1  LIG1       -0.0003
     10 C           3.3540    3.4330    0.0000 C.ar    1  LIG1       -0.0000
     11 C           2.4040    3.7460    0.0000 C.ar    1  LIG1       -0.0003
     12 C           1.6580    3.0830    0.0000 C.ar    1  LIG1       -0.0023
     13 C           1.3330    0.4630    0.0000 C.ar    1  LIG1        0.0016
     14 C           0.5830   -0.2040    0.0000 C.ar    1  LIG1       -0.0023
     15 C           0.7830   -1.1790    0.0000 C.ar    1  LIG1       -0.0003
     16 C           1.7460   -1.5000    0.0000 C.ar    1  LIG1       -0.0000
     17 C           2.4960   -0.8170    0.0000 C.ar    1  LIG1       -0.0003
     18 C           2.2830    0.1580    0.0000 C.ar    1  LIG1       -0.0023
     19 O           0.7210    3.4080    0.0000 O.2     1  LIG1       -0.2718
     20 C          -1.2960    4.0080    0.0000 C.3     1  LIG1        0.0286
     21 C          -2.2960    4.0080    0.0000 C.3     1  LIG1        0.0211
     22 C          -2.6080    3.0710    0.0000 C.3     1  LIG1        0.0964
     23 C          -1.8130    0.4710    0.0000 C.ar    1  LIG1        0.1223
     24 C          -0.9580   -0.0290    0.0000 C.ar    1  LIG1        0.0212
     25 C          -0.9580   -1.0170    0.0000 C.ar    1  LIG1        0.0180
     26 C          -1.8330   -1.5250    0.0000 C.ar    1  LIG1        0.0734
     27 N          -1.8420   -2.5170    0.0000 N.am    1  LIG1       -0.1792
     28 C          -2.7000   -3.0130    0.0000 C.2     1  LIG1        0.2461
     29 O          -2.7080   -4.0080    0.0000 O.2     1  LIG1       -0.2730
     30 C          -3.5630   -2.5040    0.0000 C.3     1  LIG1        0.0968
     31 C          -2.6960   -1.0170    0.0000 C.ar    1  LIG1        0.0180
     32 C          -2.6830   -0.0170    0.0000 C.ar    1  LIG1        0.0212
     33 O          -2.8080    1.4710    0.0000 O.2     1  LIG1       -0.1528
     34 O          -0.8080    1.4710    0.0000 O.2     1  LIG1       -0.1528
@<TRIPOS>BOND
     1     1     2    1
     2     1    23    1
     3     1    33    2
     4     1    34    2
     5     2     3    1
     6     2    22    1
     7     3     4    1
     8     3    20    1
     9     4     5   am
    10     4    19    2
    11     5     6    1
    12     6     7    1
    13     6    13    1
    14     7     8   ar
    15     7    12   ar
    16     8     9   ar
    17     9    10   ar
    18    10    11   ar
    19    11    12   ar
    20    13    14   ar
    21    13    18   ar
    22    14    15   ar
    23    15    16   ar
    24    16    17   ar
    25    17    18   ar
    26    20    21    1
    27    21    22    1
    28    23    24   ar
    29    23    32   ar
    30    24    25   ar
    31    25    26   ar
    32    26    27    1
    33    26    31   ar
    34    27    28   am
    35    28    29    2
    36    28    30    1
    37    31    32   ar
