@<TRIPOS>MOLECULE
34357_ChemDiv_8012-9034
 28 31 0 0 0
SMALL
GASTEIGER
Energy = 0

@<TRIPOS>ATOM
      1 N           1.1790   -0.7830    0.0000 N.am    1  LIG1       -0.2169
      2 C           2.0710   -1.2250    0.0000 C.2     1  LIG1        0.2554
      3 C           2.7250   -0.5380    0.0000 C.ar    1  LIG1        0.0584
      4 C           2.2790    0.3250    0.0000 C.ar    1  LIG1        0.0584
      5 C           1.3130    0.1750    0.0000 C.2     1  LIG1        0.2554
      6 O           0.6000    0.8790    0.0000 O.2     1  LIG1       -0.2695
      7 C           2.8080    1.1750    0.0000 C.ar    1  LIG1        0.0047
      8 C           3.7420    1.1330    0.0000 C.ar    1  LIG1        0.0001
      9 C           4.1960    0.2880    0.0000 C.ar    1  LIG1        0.0001
     10 C           3.7080   -0.5380    0.0000 C.ar    1  LIG1        0.0047
     11 O           2.2710   -2.1630    0.0000 O.2     1  LIG1       -0.2695
     12 C           0.6710   -1.6170    0.0000 C.3     1  LIG1        0.1466
     13 C          -0.2710   -1.6170    0.0000 C.2     1  LIG1        0.0740
     14 C          -0.8170   -0.8080    0.0000 C.ar    1  LIG1        0.0141
     15 C          -0.2710    0.0960    0.0000 C.ar    1  LIG1        0.0409
     16 C          -0.8420    0.8580    0.0000 C.ar    1  LIG1        0.1722
     17 C          -1.7830    0.8580    0.0000 C.ar    1  LIG1        0.1719
     18 C          -2.2790    0.0460    0.0000 C.ar    1  LIG1        0.0359
     19 C          -1.7580   -0.8080    0.0000 C.ar    1  LIG1       -0.0158
     20 C          -2.3080   -1.6420    0.0000 C.3     1  LIG1        0.0527
     21 C          -1.7670   -2.5210    0.0000 C.3     1  LIG1        0.1298
     22 N          -0.7540   -2.5290    0.0000 N.2     1  LIG1       -0.2726
     23 O          -2.3380    1.7170    0.0000 O.3     1  LIG1       -0.4724
     24 C          -3.6460    1.7170    0.0000 C.3     1  LIG1        0.2057
     25 C          -4.2000    2.5330    0.0000 C.3     1  LIG1        0.0512
     26 O          -0.2880    1.7420    0.0000 O.3     1  LIG1       -0.4724
     27 C           0.9170    1.7420    0.0000 C.3     1  LIG1        0.2057
     28 C           1.4750    2.5330    0.0000 C.3     1  LIG1        0.0512
@<TRIPOS>BOND
     1     1     2   am
     2     1     5   am
     3     1    12    1
     4     2     3    1
     5     2    11    2
     6     3     4   ar
     7     3    10   ar
     8     4     5    1
     9     4     7   ar
    10     5     6    2
    11     7     8   ar
    12     8     9   ar
    13     9    10   ar
    14    12    13    1
    15    13    14    1
    16    13    22    2
    17    14    15   ar
    18    14    19   ar
    19    15    16   ar
    20    16    17   ar
    21    16    26    1
    22    17    18   ar
    23    17    23    1
    24    18    19   ar
    25    19    20    1
    26    20    21    1
    27    21    22    1
    28    23    24    1
    29    24    25    1
    30    26    27    1
    31    27    28    1
