@<TRIPOS>MOLECULE
34350_ChemDiv_8014-1268
 27 30 0 0 0
SMALL
GASTEIGER
Energy = 0

@<TRIPOS>ATOM
      1 C          -1.7040    0.7290    0.0000 C.ar    1  LIG1        0.1981
      2 N          -0.8580    0.2460    0.0000 N.ar    1  LIG1       -0.1796
      3 C          -0.0080    0.7290    0.0000 C.ar    1  LIG1        0.2126
      4 N          -0.0080    1.7040    0.0000 N.ar    1  LIG1       -0.1207
      5 N          -1.7040    1.7040    0.0000 N.ar    1  LIG1       -0.1282
      6 S           0.8330    0.2460    0.0000 S.3     1  LIG1       -0.0693
      7 C           1.6830    0.7290    0.0000 C.3     1  LIG1        0.0916
      8 C           2.5290    0.2460    0.0000 C.ar    1  LIG1       -0.0046
      9 C           2.5290   -0.7330    0.0000 C.ar    1  LIG1        0.0592
     10 C           3.3750   -1.2210    0.0000 C.ar    1  LIG1        0.2790
     11 N           4.2250   -0.7330    0.0000 N.ar    1  LIG1       -0.2079
     12 C           4.2250    0.2460    0.0000 C.ar    1  LIG1        0.0842
     13 C           3.3750    0.7290    0.0000 C.ar    1  LIG1        0.0148
     14 C           3.3790    1.7130    0.0000 C.ar    1  LIG1        0.0012
     15 C           4.2250    2.2000    0.0000 C.ar    1  LIG1        0.0001
     16 C           5.0670    1.7130    0.0000 C.ar    1  LIG1        0.0015
     17 C           5.0750    0.7290    0.0000 C.ar    1  LIG1        0.0192
     18 O           3.3750   -2.1960    0.0000 O.2     1  LIG1       -0.2652
     19 N          -0.8580   -0.7330    0.0000 N.pl3   1  LIG1       -0.0216
     20 C          -2.5460    0.2460    0.0000 C.3     1  LIG1        0.2337
     21 C          -3.3880    0.7290    0.0000 C.ar    1  LIG1        0.0151
     22 C          -4.2330    0.2460    0.0000 C.ar    1  LIG1       -0.0014
     23 C          -5.0790    0.7290    0.0000 C.ar    1  LIG1       -0.0002
     24 C          -5.0790    1.7040    0.0000 C.ar    1  LIG1       -0.0000
     25 C          -4.2330    2.1960    0.0000 C.ar    1  LIG1       -0.0002
     26 C          -3.3880    1.7040    0.0000 C.ar    1  LIG1       -0.0014
     27 O          -2.5460   -0.7290    0.0000 O.3     1  LIG1       -0.2099
@<TRIPOS>BOND
     1     1     2   ar
     2     1     5   ar
     3     1    20    1
     4     2     3   ar
     5     2    19    1
     6     3     4   ar
     7     3     6    1
     8     4     5   ar
     9     6     7    1
    10     7     8    1
    11     8     9   ar
    12     8    13   ar
    13     9    10   ar
    14    10    11   ar
    15    10    18    2
    16    11    12   ar
    17    12    13   ar
    18    12    17   ar
    19    13    14   ar
    20    14    15   ar
    21    15    16   ar
    22    16    17   ar
    23    20    21    1
    24    20    27    1
    25    21    22   ar
    26    21    26   ar
    27    22    23   ar
    28    23    24   ar
    29    24    25   ar
    30    25    26   ar
