@<TRIPOS>MOLECULE
34353_ChemDiv_8012-8981
 29 34 0 0 0
SMALL
GASTEIGER
Energy = 0

@<TRIPOS>ATOM
      1 C          -1.6210    0.0290    0.0000 C.ar    1  LIG1        0.1577
      2 C          -1.9210   -0.8920    0.0000 C.ar    1  LIG1        0.1713
      3 N          -1.1330   -1.4670    0.0000 N.ar    1  LIG1       -0.1933
      4 C          -0.3630   -0.8920    0.0000 C.ar    1  LIG1        0.2193
      5 N          -0.6580    0.0290    0.0000 N.ar    1  LIG1       -0.2685
      6 C           0.1290    0.5790    0.0000 C.ar    1  LIG1        0.0957
      7 C           0.9210    0.0040    0.0000 C.ar    1  LIG1        0.0566
      8 N           0.6000   -0.8920    0.0000 N.ar    1  LIG1       -0.2982
      9 C           1.1790   -1.7080    0.0000 C.3     1  LIG1        0.1441
     10 C           2.1630   -1.6000    0.0000 C.3     1  LIG1        0.2065
     11 O           2.7210   -2.3880    0.0000 O.3     1  LIG1       -0.2182
     12 C           1.8130    0.3460    0.0000 C.3     1  LIG1        0.0351
     13 C           1.5670    1.2880    0.0000 C.3     1  LIG1        0.0055
     14 C           2.4420    1.9210    0.0000 C.3     1  LIG1        0.0004
     15 C           3.2670    1.4210    0.0000 C.3     1  LIG1        0.0000
     16 C           3.4920    0.4790    0.0000 C.3     1  LIG1        0.0004
     17 C           2.7040   -0.0790    0.0000 C.3     1  LIG1        0.0055
     18 C           4.4580    0.3960    0.0000 C.3     1  LIG1        0.0000
     19 C           3.7580    1.5290    0.0000 C.3     1  LIG1        0.0004
     20 C           2.7750    0.4250    0.0000 C.3     1  LIG1        0.0055
     21 C           3.3000    2.3920    0.0000 C.3     1  LIG1        0.0000
     22 N          -2.8670   -1.1000    0.0000 N.ar    1  LIG1       -0.2628
     23 C          -3.5170   -0.3920    0.0000 C.ar    1  LIG1        0.3350
     24 N          -3.2170    0.5290    0.0000 N.ar    1  LIG1       -0.2454
     25 C          -2.2710    0.7420    0.0000 C.ar    1  LIG1        0.2835
     26 O          -1.9710    1.6580    0.0000 O.2     1  LIG1       -0.2651
     27 C          -3.8670    1.2670    0.0000 C.3     1  LIG1        0.1383
     28 O          -4.4630   -0.6290    0.0000 O.2     1  LIG1       -0.2461
     29 C          -3.1670   -2.0500    0.0000 C.3     1  LIG1        0.1366
@<TRIPOS>BOND
     1     1     2   ar
     2     1     5   ar
     3     1    25   ar
     4     2     3   ar
     5     2    22   ar
     6     3     4   ar
     7     4     5   ar
     8     4     8   ar
     9     5     6   ar
    10     6     7   ar
    11     7     8   ar
    12     7    12    1
    13     8     9    1
    14     9    10    1
    15    10    11    1
    16    12    13    1
    17    12    17    1
    18    12    20    1
    19    13    14    1
    20    14    15    1
    21    14    21    1
    22    15    16    1
    23    16    17    1
    24    16    18    1
    25    18    19    1
    26    19    20    1
    27    19    21    1
    28    22    23   ar
    29    22    29    1
    30    23    24   ar
    31    23    28    2
    32    24    25   ar
    33    24    27    1
    34    25    26    2
