@<TRIPOS>MOLECULE
34356_ChemDiv_8013-1637
 21 24 0 0 0
SMALL
GASTEIGER
Energy = 0

@<TRIPOS>ATOM
      1 N          -0.0040    0.3380    0.0000 N.am    1  LIG1       -0.2304
      2 C          -0.0040   -0.6630    0.0000 C.2     1  LIG1        0.2912
      3 C           0.8460   -1.1630    0.0000 C.ar    1  LIG1        0.1993
      4 O           0.9500   -2.1630    0.0000 O.2     1  LIG1       -0.4458
      5 C           1.9330   -2.3290    0.0000 C.ar    1  LIG1        0.1798
      6 C           2.4040   -1.4790    0.0000 C.ar    1  LIG1        0.0440
      7 C           1.7500   -0.7710    0.0000 C.ar    1  LIG1        0.0455
      8 O          -0.8500   -1.1630    0.0000 O.2     1  LIG1       -0.2659
      9 C          -0.8790    0.8380    0.0000 C.ar    1  LIG1        0.0644
     10 C          -0.8790    1.8330    0.0000 C.ar    1  LIG1        0.0435
     11 S          -0.0040    2.3330    0.0000 S.3     1  LIG1       -0.0844
     12 C           0.8750    1.8330    0.0000 C.ar    1  LIG1        0.0435
     13 C           0.8750    0.8380    0.0000 C.ar    1  LIG1        0.0644
     14 C           1.7500    0.3380    0.0000 C.ar    1  LIG1        0.0157
     15 C           2.6290    0.8380    0.0000 C.ar    1  LIG1        0.0013
     16 C           2.6290    1.8330    0.0000 C.ar    1  LIG1        0.0006
     17 C           1.7500    2.3330    0.0000 C.ar    1  LIG1        0.0077
     18 C          -1.7580    2.3330    0.0000 C.ar    1  LIG1        0.0077
     19 C          -2.6330    1.8330    0.0000 C.ar    1  LIG1        0.0006
     20 C          -2.6330    0.8380    0.0000 C.ar    1  LIG1        0.0013
     21 C          -1.7580    0.3380    0.0000 C.ar    1  LIG1        0.0157
@<TRIPOS>BOND
     1     1     2   am
     2     1     9    1
     3     1    13    1
     4     2     3    1
     5     2     8    2
     6     3     4   ar
     7     3     7   ar
     8     4     5   ar
     9     5     6   ar
    10     6     7   ar
    11     9    10   ar
    12     9    21   ar
    13    10    11    1
    14    10    18   ar
    15    11    12    1
    16    12    13   ar
    17    12    17   ar
    18    13    14   ar
    19    14    15   ar
    20    15    16   ar
    21    16    17   ar
    22    18    19   ar
    23    19    20   ar
    24    20    21   ar
