@<TRIPOS>MOLECULE
34359_ChemDiv_8012-9117
 17 20 0 0 0
SMALL
GASTEIGER
Energy = 0

@<TRIPOS>ATOM
      1 N          -0.0710   -0.8040    0.0000 N.ar    1  LIG1       -0.3244
      2 C           0.7880   -0.3130    0.0000 C.ar    1  LIG1        0.0692
      3 C           0.6880    0.6330    0.0000 C.ar    1  LIG1       -0.0039
      4 C          -0.4000    0.7290    0.0000 C.ar    1  LIG1        0.0129
      5 C          -0.8000   -0.1580    0.0000 C.ar    1  LIG1        0.0596
      6 C          -1.7830   -0.2460    0.0000 C.ar    1  LIG1        0.0169
      7 C          -2.3420    0.5460    0.0000 C.ar    1  LIG1       -0.0028
      8 C          -1.9330    1.4540    0.0000 C.ar    1  LIG1       -0.0218
      9 C          -0.9540    1.5380    0.0000 C.ar    1  LIG1       -0.0031
     10 C          -2.4920    2.2790    0.0000 C.3     1  LIG1        0.0310
     11 C           1.4580    1.2710    0.0000 C.3     1  LIG1        0.0283
     12 C           2.4880    0.7500    0.0000 C.3     1  LIG1        0.0111
     13 C           2.4880   -0.3130    0.0000 C.3     1  LIG1        0.0472
     14 C           1.6380   -0.8040    0.0000 C.2     1  LIG1        0.0691
     15 N           1.6380   -1.7880    0.0000 N.2     1  LIG1       -0.2712
     16 C           0.7880   -2.2750    0.0000 C.3     1  LIG1        0.1495
     17 C          -0.0710   -1.7880    0.0000 C.3     1  LIG1        0.1322
@<TRIPOS>BOND
     1     1     2   ar
     2     1     5   ar
     3     1    17    1
     4     2     3   ar
     5     2    14    1
     6     3     4   ar
     7     3    11    1
     8     4     5   ar
     9     4     9   ar
    10     5     6   ar
    11     6     7   ar
    12     7     8   ar
    13     8     9   ar
    14     8    10    1
    15    11    12    1
    16    12    13    1
    17    13    14    1
    18    14    15    2
    19    15    16    1
    20    16    17    1
