@<TRIPOS>MOLECULE
34358_ChemDiv_8013-1638
 22 25 0 0 0
SMALL
GASTEIGER
Energy = 0

@<TRIPOS>ATOM
      1 N          -0.3710    0.3460    0.0000 N.am    1  LIG1       -0.2304
      2 C          -0.3710   -0.6500    0.0000 C.2     1  LIG1        0.2913
      3 C           0.4790   -1.1580    0.0000 C.ar    1  LIG1        0.1999
      4 O           1.4040   -0.7580    0.0000 O.2     1  LIG1       -0.4423
      5 C           2.0210   -1.5250    0.0000 C.ar    1  LIG1        0.1793
      6 C           1.4960   -2.3500    0.0000 C.ar    1  LIG1        0.0478
      7 C           0.5710   -2.1250    0.0000 C.ar    1  LIG1        0.0459
      8 BR          3.0040   -1.5250    0.0000 Br      1  LIG1       -0.0078
      9 O          -1.2130   -1.1580    0.0000 O.2     1  LIG1       -0.2659
     10 C           0.5130    0.8500    0.0000 C.ar    1  LIG1        0.0644
     11 C           0.5130    1.8460    0.0000 C.ar    1  LIG1        0.0435
     12 S          -0.3710    2.3540    0.0000 S.3     1  LIG1       -0.0844
     13 C          -1.2500    1.8460    0.0000 C.ar    1  LIG1        0.0435
     14 C          -1.2500    0.8500    0.0000 C.ar    1  LIG1        0.0644
     15 C          -2.1250    0.3460    0.0000 C.ar    1  LIG1        0.0157
     16 C          -3.0080    0.8500    0.0000 C.ar    1  LIG1        0.0013
     17 C          -3.0080    1.8460    0.0000 C.ar    1  LIG1        0.0006
     18 C          -2.1250    2.3540    0.0000 C.ar    1  LIG1        0.0077
     19 C           1.3920    2.3540    0.0000 C.ar    1  LIG1        0.0077
     20 C           2.2670    1.8460    0.0000 C.ar    1  LIG1        0.0006
     21 C           2.2670    0.8500    0.0000 C.ar    1  LIG1        0.0013
     22 C           1.3920    0.3460    0.0000 C.ar    1  LIG1        0.0157
@<TRIPOS>BOND
     1     1     2   am
     2     1    10    1
     3     1    14    1
     4     2     3    1
     5     2     9    2
     6     3     4   ar
     7     3     7   ar
     8     4     5   ar
     9     5     6   ar
    10     5     8    1
    11     6     7   ar
    12    10    11   ar
    13    10    22   ar
    14    11    12    1
    15    11    19   ar
    16    12    13    1
    17    13    14   ar
    18    13    18   ar
    19    14    15   ar
    20    15    16   ar
    21    16    17   ar
    22    17    18   ar
    23    19    20   ar
    24    20    21   ar
    25    21    22   ar
