@<TRIPOS>MOLECULE
34362_ChemDiv_8013-1640
 30 34 0 0 0
SMALL
GASTEIGER
Energy = 0

@<TRIPOS>ATOM
      1 N           1.8830   -0.8210    0.0000 N.am    1  LIG1       -0.2229
      2 C           2.0790   -1.7960    0.0000 C.2     1  LIG1        0.2551
      3 C           3.0710   -1.9170    0.0000 C.ar    1  LIG1        0.0584
      4 C           3.4920   -1.0330    0.0000 C.ar    1  LIG1        0.0584
      5 C           2.7670   -0.3420    0.0000 C.2     1  LIG1        0.2551
      6 O           2.8920    0.6670    0.0000 O.2     1  LIG1       -0.2695
      7 C           4.4830   -0.9460    0.0000 C.ar    1  LIG1        0.0047
      8 C           5.0500   -1.7750    0.0000 C.ar    1  LIG1        0.0001
      9 C           4.6290   -2.6630    0.0000 C.ar    1  LIG1        0.0001
     10 C           3.6380   -2.7500    0.0000 C.ar    1  LIG1        0.0047
     11 O           1.4040   -2.5380    0.0000 O.2     1  LIG1       -0.2695
     12 C           1.0330   -0.3080    0.0000 C.3     1  LIG1        0.1020
     13 C           0.1670   -0.8040    0.0000 C.3     1  LIG1        0.0316
     14 C          -0.7040   -0.2710    0.0000 C.3     1  LIG1        0.0877
     15 C          -1.5880   -0.7580    0.0000 C.2     1  LIG1        0.2332
     16 N          -2.4540   -0.2380    0.0000 N.am    1  LIG1       -0.2364
     17 C          -2.4540    0.7750    0.0000 C.ar    1  LIG1        0.0640
     18 C          -3.3210    1.2670    0.0000 C.ar    1  LIG1        0.0435
     19 S          -4.1880    0.7580    0.0000 S.3     1  LIG1       -0.0844
     20 C          -4.1880   -0.2380    0.0000 C.ar    1  LIG1        0.0435
     21 C          -3.3210   -0.7290    0.0000 C.ar    1  LIG1        0.0640
     22 C          -3.3210   -1.7420    0.0000 C.ar    1  LIG1        0.0157
     23 C          -4.1670   -2.2380    0.0000 C.ar    1  LIG1        0.0013
     24 C          -5.0540   -1.7420    0.0000 C.ar    1  LIG1        0.0006
     25 C          -5.0540   -0.7500    0.0000 C.ar    1  LIG1        0.0077
     26 C          -3.3210    2.2580    0.0000 C.ar    1  LIG1        0.0077
     27 C          -2.4540    2.7540    0.0000 C.ar    1  LIG1        0.0006
     28 C          -1.5880    2.2580    0.0000 C.ar    1  LIG1        0.0013
     29 C          -1.5880    1.2670    0.0000 C.ar    1  LIG1        0.0157
     30 O          -1.5880   -1.7580    0.0000 O.2     1  LIG1       -0.2742
@<TRIPOS>BOND
     1     1     2   am
     2     1     5   am
     3     1    12    1
     4     2     3    1
     5     2    11    2
     6     3     4   ar
     7     3    10   ar
     8     4     5    1
     9     4     7   ar
    10     5     6    2
    11     7     8   ar
    12     8     9   ar
    13     9    10   ar
    14    12    13    1
    15    13    14    1
    16    14    15    1
    17    15    16   am
    18    15    30    2
    19    16    17    1
    20    16    21    1
    21    17    18   ar
    22    17    29   ar
    23    18    19    1
    24    18    26   ar
    25    19    20    1
    26    20    21   ar
    27    20    25   ar
    28    21    22   ar
    29    22    23   ar
    30    23    24   ar
    31    24    25   ar
    32    26    27   ar
    33    27    28   ar
    34    28    29   ar
