@<TRIPOS>MOLECULE
34364_ChemDiv_8013-1660
 18 19 0 0 0
SMALL
GASTEIGER
Energy = 0

@<TRIPOS>ATOM
      1 N          -0.0170   -0.9670    0.0000 N.ar    1  LIG1       -0.2237
      2 C           0.8540   -0.4630    0.0000 C.ar    1  LIG1        0.1035
      3 C           0.8540    0.5420    0.0000 C.ar    1  LIG1        0.1019
      4 N          -0.0170    1.0420    0.0000 N.ar    1  LIG1       -0.2406
      5 C          -0.8670    0.5420    0.0000 C.ar    1  LIG1        0.1170
      6 C          -0.8670   -0.4630    0.0000 C.ar    1  LIG1        0.1803
      7 N          -1.7380   -0.9670    0.0000 N.ar    1  LIG1       -0.2238
      8 C          -2.6130   -0.4630    0.0000 C.ar    1  LIG1        0.1007
      9 C          -2.6130    0.5420    0.0000 C.ar    1  LIG1        0.0223
     10 C          -1.7380    1.0420    0.0000 C.ar    1  LIG1        0.0238
     11 C           1.7040    1.0290    0.0000 C.2     1  LIG1        0.0581
     12 C           1.7040    2.0170    0.0000 C.2     1  LIG1        0.1751
     13 O           0.8330    2.5080    0.0000 O.2     1  LIG1       -0.2913
     14 C           2.5670    2.5080    0.0000 C.3     1  LIG1        0.0773
     15 C           1.7460   -1.0460    0.0000 C.2     1  LIG1        0.0581
     16 C           1.7460   -2.0130    0.0000 C.2     1  LIG1        0.1751
     17 O           0.8630   -2.4750    0.0000 O.2     1  LIG1       -0.2913
     18 C           2.6080   -2.5040    0.0000 C.3     1  LIG1        0.0773
@<TRIPOS>BOND
     1     1     2   ar
     2     1     6   ar
     3     2     3   ar
     4     2    15    1
     5     3     4   ar
     6     3    11    1
     7     4     5   ar
     8     5     6   ar
     9     5    10   ar
    10     6     7   ar
    11     7     8   ar
    12     8     9   ar
    13     9    10   ar
    14    11    12    2
    15    12    13    1
    16    12    14    1
    17    15    16    2
    18    16    17    1
    19    16    18    1
