@<TRIPOS>MOLECULE
34370_ChemDiv_8014-1377
 27 30 0 0 0
SMALL
GASTEIGER
Energy = 0

@<TRIPOS>ATOM
      1 N          -4.0290   -0.7630    0.0000 N.ar    1  LIG1       -0.2412
      2 C          -4.0290    0.2630    0.0000 C.ar    1  LIG1        0.1223
      3 C          -4.9920    0.5420    0.0000 C.ar    1  LIG1        0.0571
      4 S          -5.5500   -0.2630    0.0000 S.2     1  LIG1       -0.0704
      5 C          -4.9920   -1.0790    0.0000 C.ar    1  LIG1        0.0885
      6 C          -5.3130   -2.0500    0.0000 C.3     1  LIG1        0.0594
      7 C          -3.1710    0.7630    0.0000 C.3     1  LIG1        0.1861
      8 N          -2.2920    0.2790    0.0000 N.4     1  LIG1        0.3847
      9 C          -2.2790   -0.7170    0.0000 C.3     1  LIG1        0.1611
     10 C          -1.4170   -1.2170    0.0000 C.3     1  LIG1        0.1567
     11 N          -0.5580   -0.7330    0.0000 N.am    1  LIG1       -0.2645
     12 C           0.3420   -1.2170    0.0000 C.2     1  LIG1        0.2494
     13 C           1.1920   -0.7330    0.0000 C.ar    1  LIG1        0.0536
     14 C           1.1920    0.2920    0.0000 C.ar    1  LIG1        0.0045
     15 C           2.0540    0.8040    0.0000 C.ar    1  LIG1        0.0001
     16 C           2.9250    0.2790    0.0000 C.ar    1  LIG1        0.0000
     17 C           2.9330   -0.7170    0.0000 C.ar    1  LIG1        0.0001
     18 C           2.0630   -1.2040    0.0000 C.ar    1  LIG1        0.0045
     19 C           3.7830    0.7540    0.0000 C.ar    1  LIG1        0.0000
     20 C           4.6170    0.2500    0.0000 C.ar    1  LIG1        0.0000
     21 C           5.5080    0.6960    0.0000 C.ar    1  LIG1        0.0000
     22 C           5.5460    1.7080    0.0000 C.ar    1  LIG1        0.0000
     23 C           4.7000    2.2210    0.0000 C.ar    1  LIG1        0.0000
     24 C           3.8250    1.7380    0.0000 C.ar    1  LIG1        0.0000
     25 O           0.3540   -2.2170    0.0000 O.2     1  LIG1       -0.2699
     26 C          -0.5580    0.2920    0.0000 C.3     1  LIG1        0.1567
     27 C          -1.4330    0.7920    0.0000 C.3     1  LIG1        0.1611
@<TRIPOS>BOND
     1     1     2   ar
     2     1     5   ar
     3     2     3   ar
     4     2     7    1
     5     3     4   ar
     6     4     5   ar
     7     5     6    1
     8     7     8    1
     9     8     9    1
    10     8    27    1
    11     9    10    1
    12    10    11    1
    13    11    12   am
    14    11    26    1
    15    12    13    1
    16    12    25    2
    17    13    14   ar
    18    13    18   ar
    19    14    15   ar
    20    15    16   ar
    21    16    17   ar
    22    16    19    1
    23    17    18   ar
    24    19    20   ar
    25    19    24   ar
    26    20    21   ar
    27    21    22   ar
    28    22    23   ar
    29    23    24   ar
    30    26    27    1
