@<TRIPOS>MOLECULE
34372_ChemDiv_8014-1385
 27 31 0 0 0
SMALL
GASTEIGER
Energy = 0

@<TRIPOS>ATOM
      1 C          -1.2500   -1.2540    0.0000 C.ar    1  LIG1        0.1927
      2 C          -2.0830   -0.7920    0.0000 C.ar    1  LIG1        0.1912
      3 N          -2.0920    0.1920    0.0000 N.ar    1  LIG1        0.0805
      4 N          -1.2500    0.6670    0.0000 N.ar    1  LIG1        0.2428
      5 C          -0.4000    0.2040    0.0000 C.ar    1  LIG1        0.4474
      6 N          -0.4000   -0.7670    0.0000 N.ar    1  LIG1       -0.1507
      7 S           0.4380    0.6920    0.0000 S.3     1  LIG1       -0.0086
      8 C           1.2630    0.2130    0.0000 C.3     1  LIG1        0.1150
      9 C           2.1000    0.7130    0.0000 C.2     1  LIG1        0.0647
     10 N           2.1000    1.6920    0.0000 N.2     1  LIG1       -0.2773
     11 C           2.9380    2.1710    0.0000 C.3     1  LIG1        0.0884
     12 C           3.7750    1.6710    0.0000 C.3     1  LIG1        0.0488
     13 C           3.7750    0.7040    0.0000 C.ar    1  LIG1       -0.0192
     14 C           2.9380    0.2380    0.0000 C.ar    1  LIG1        0.0101
     15 C           2.9380   -0.7250    0.0000 C.ar    1  LIG1        0.0009
     16 C           3.7750   -1.2330    0.0000 C.ar    1  LIG1        0.0000
     17 C           4.6130   -0.7540    0.0000 C.ar    1  LIG1       -0.0003
     18 C           4.6130    0.2250    0.0000 C.ar    1  LIG1       -0.0042
     19 C           3.8170    2.7330    0.0000 C.3     1  LIG1        0.0247
     20 C           2.0670    2.7670    0.0000 C.3     1  LIG1        0.0247
     21 C          -2.9420   -1.2790    0.0000 C.ar    1  LIG1        0.0444
     22 C          -2.9330   -2.2710    0.0000 C.ar    1  LIG1        0.0847
     23 N          -1.2500   -2.2710    0.0000 N.ar    1  LIG1       -0.2249
     24 C          -3.7670   -2.7630    0.0000 C.ar    1  LIG1        0.0192
     25 C          -4.6170   -2.2710    0.0000 C.ar    1  LIG1        0.0015
     26 C          -4.6170   -1.3250    0.0000 C.ar    1  LIG1        0.0002
     27 C          -3.7880   -0.8000    0.0000 C.ar    1  LIG1        0.0033
@<TRIPOS>BOND
     1     1     2   ar
     2     1     6   ar
     3     1    23   ar
     4     2     3   ar
     5     2    21   ar
     6     3     4   ar
     7     4     5   ar
     8     5     6   ar
     9     5     7    1
    10     7     8    1
    11     8     9    1
    12     9    10    2
    13     9    14    1
    14    10    11    1
    15    11    12    1
    16    11    19    1
    17    11    20    1
    18    12    13    1
    19    13    14   ar
    20    13    18   ar
    21    14    15   ar
    22    15    16   ar
    23    16    17   ar
    24    17    18   ar
    25    21    22   ar
    26    21    27   ar
    27    22    23   ar
    28    22    24   ar
    29    24    25   ar
    30    25    26   ar
    31    26    27   ar
