@<TRIPOS>MOLECULE
34380_ChemDiv_8014-2057
 23 25 0 0 0
SMALL
GASTEIGER
Energy = 0

@<TRIPOS>ATOM
      1 N          -0.7500    0.2380    0.0000 N.ar    1  LIG1       -0.2739
      2 C          -0.1580    1.0170    0.0000 C.ar    1  LIG1        0.0728
      3 C           0.7880    0.7330    0.0000 C.2     1  LIG1        0.0523
      4 C           0.7880   -0.2830    0.0000 C.2     1  LIG1        0.1390
      5 C          -0.1750   -0.5830    0.0000 C.2     1  LIG1        0.2715
      6 O          -0.4750   -1.5330    0.0000 O.2     1  LIG1       -0.2664
      7 C           1.5710   -0.8710    0.0000 C.2     1  LIG1        0.3464
      8 O           1.4750   -1.8710    0.0000 O.2     1  LIG1       -0.2447
      9 O           2.4710   -0.4630    0.0000 O.3     1  LIG1       -0.4453
     10 C           3.3000   -1.0630    0.0000 C.3     1  LIG1        0.2089
     11 C           4.2080   -0.6750    0.0000 C.3     1  LIG1        0.0513
     12 S           1.5630    1.3420    0.0000 S.3     1  LIG1       -0.1119
     13 C           2.4790    0.9460    0.0000 C.3     1  LIG1        0.0623
     14 C           3.2830    1.5460    0.0000 C.3     1  LIG1        0.0129
     15 C          -0.7420    1.8750    0.0000 C.ar    1  LIG1        0.0196
     16 C          -1.7080    1.5670    0.0000 C.ar    1  LIG1        0.0191
     17 C          -1.7080    0.5380    0.0000 C.ar    1  LIG1        0.0668
     18 C          -2.4960   -0.0580    0.0000 C.ar    1  LIG1        0.0162
     19 C          -2.3880   -1.0460    0.0000 C.ar    1  LIG1        0.0014
     20 C          -3.1710   -1.6500    0.0000 C.ar    1  LIG1        0.0000
     21 C          -4.1000   -1.2750    0.0000 C.ar    1  LIG1        0.0000
     22 C          -4.2130   -0.2830    0.0000 C.ar    1  LIG1        0.0000
     23 C          -3.4130    0.3170    0.0000 C.ar    1  LIG1        0.0014
@<TRIPOS>BOND
     1     1     2   ar
     2     1     5   am
     3     1    17   ar
     4     2     3    1
     5     2    15   ar
     6     3     4    2
     7     3    12    1
     8     4     5    1
     9     4     7    1
    10     5     6    2
    11     7     8    2
    12     7     9    1
    13     9    10    1
    14    10    11    1
    15    12    13    1
    16    13    14    1
    17    15    16   ar
    18    16    17   ar
    19    17    18    1
    20    18    19   ar
    21    18    23   ar
    22    19    20   ar
    23    20    21   ar
    24    21    22   ar
    25    22    23   ar
