@<TRIPOS>MOLECULE
34384_ChemDiv_8014-1509
 20 22 0 0 0
SMALL
GASTEIGER
Energy = 0

@<TRIPOS>ATOM
      1 N           1.9880   -1.7630    0.0000 N.ar    1  LIG1       -0.1298
      2 N           2.5080   -0.9080    0.0000 N.ar    1  LIG1       -0.1298
      3 C           2.0330   -0.0330    0.0000 C.ar    1  LIG1        0.1736
      4 N           2.5250    0.8380    0.0000 N.pl3   1  LIG1       -0.1927
      5 C           2.0170    1.6960    0.0000 C.ar    1  LIG1        0.0722
      6 C           2.5210    2.5670    0.0000 C.ar    1  LIG1        0.0166
      7 C           2.0130    3.4250    0.0000 C.ar    1  LIG1        0.0013
      8 C           1.0080    3.4170    0.0000 C.ar    1  LIG1        0.0001
      9 C           0.5170    2.5420    0.0000 C.ar    1  LIG1        0.0013
     10 C           1.0290    1.6830    0.0000 C.ar    1  LIG1        0.0166
     11 C           1.0290   -0.0040    0.0000 C.ar    1  LIG1        0.0409
     12 C           0.5080   -0.8580    0.0000 C.ar    1  LIG1        0.0409
     13 C           0.9880   -1.7380    0.0000 C.ar    1  LIG1        0.1736
     14 N           0.4630   -2.5920    0.0000 N.pl3   1  LIG1       -0.1927
     15 C          -0.5380   -2.5670    0.0000 C.ar    1  LIG1        0.0722
     16 C          -1.0080   -1.6880    0.0000 C.ar    1  LIG1        0.0166
     17 C          -2.0080   -1.6630    0.0000 C.ar    1  LIG1        0.0013
     18 C          -2.5290   -2.5210    0.0000 C.ar    1  LIG1        0.0001
     19 C          -2.0460   -3.4000    0.0000 C.ar    1  LIG1        0.0013
     20 C          -1.0500   -3.4210    0.0000 C.ar    1  LIG1        0.0166
@<TRIPOS>BOND
     1     1     2   ar
     2     1    13   ar
     3     2     3   ar
     4     3     4    1
     5     3    11   ar
     6     4     5    1
     7     5     6   ar
     8     5    10   ar
     9     6     7   ar
    10     7     8   ar
    11     8     9   ar
    12     9    10   ar
    13    11    12   ar
    14    12    13   ar
    15    13    14    1
    16    14    15    1
    17    15    16   ar
    18    15    20   ar
    19    16    17   ar
    20    17    18   ar
    21    18    19   ar
    22    19    20   ar
