@<TRIPOS>MOLECULE
34385_ChemDiv_8012-9379
 22 24 0 0 0
SMALL
GASTEIGER
Energy = 0

@<TRIPOS>ATOM
      1 C          -0.8080   -0.4000    0.0000 C.ar    1  LIG1        0.2591
      2 N           0.0540   -0.8880    0.0000 N.ar    1  LIG1       -0.1731
      3 C           0.9080   -0.4000    0.0000 C.ar    1  LIG1        0.2591
      4 N           1.7710   -0.8880    0.0000 N.ar    1  LIG1       -0.2007
      5 N           2.7380   -0.5630    0.0000 N.ar    1  LIG1       -0.1673
      6 C           3.3040   -1.3670    0.0000 C.ar    1  LIG1        0.0806
      7 C           2.7380   -2.2130    0.0000 C.ar    1  LIG1        0.0313
      8 C           1.7710   -1.8920    0.0000 C.ar    1  LIG1        0.0651
      9 C           0.9380   -2.5000    0.0000 C.3     1  LIG1        0.0523
     10 C           4.2920   -1.3670    0.0000 C.3     1  LIG1        0.0540
     11 N           0.9080    0.6080    0.0000 N.ar    1  LIG1       -0.1572
     12 C           0.0540    1.1290    0.0000 C.ar    1  LIG1        0.3252
     13 N          -0.8080    0.6080    0.0000 N.ar    1  LIG1       -0.1572
     14 O           0.0540    2.1330    0.0000 O.3     1  LIG1       -0.4425
     15 C          -0.8080    2.6170    0.0000 C.3     1  LIG1        0.2559
     16 N          -1.6580   -0.8880    0.0000 N.ar    1  LIG1       -0.2007
     17 N          -2.5210   -0.3630    0.0000 N.ar    1  LIG1       -0.1673
     18 C          -3.2710   -1.0040    0.0000 C.ar    1  LIG1        0.0806
     19 C          -2.8960   -1.8920    0.0000 C.ar    1  LIG1        0.0313
     20 C          -1.9290   -1.8540    0.0000 C.ar    1  LIG1        0.0651
     21 C          -1.2880   -2.6130    0.0000 C.3     1  LIG1        0.0523
     22 C          -4.2960   -0.8040    0.0000 C.3     1  LIG1        0.0540
@<TRIPOS>BOND
     1     1     2   ar
     2     1    13   ar
     3     1    16    1
     4     2     3   ar
     5     3     4    1
     6     3    11   ar
     7     4     5   ar
     8     4     8   ar
     9     5     6   ar
    10     6     7   ar
    11     6    10    1
    12     7     8   ar
    13     8     9    1
    14    11    12   ar
    15    12    13   ar
    16    12    14    1
    17    14    15    1
    18    16    17   ar
    19    16    20   ar
    20    17    18   ar
    21    18    19   ar
    22    18    22    1
    23    19    20   ar
    24    20    21    1
