@<TRIPOS>MOLECULE
34387_ChemDiv_8012-9391
 34 39 0 0 0
SMALL
GASTEIGER
Energy = 0

@<TRIPOS>ATOM
      1 S          -0.1130   -0.5040    0.0000 S.O2    1  LIG1        0.0637
      2 N          -1.2880   -0.5880    0.0000 N.3     1  LIG1       -0.1433
      3 C          -1.9710    0.1290    0.0000 C.3     1  LIG1        0.1584
      4 C          -2.9040    0.0170    0.0000 C.3     1  LIG1        0.1575
      5 N          -3.3920   -0.8500    0.0000 N.4     1  LIG1        0.3713
      6 C          -4.3170   -0.8580    0.0000 C.3     1  LIG1        0.0457
      7 C          -4.8040   -1.5830    0.0000 C.3     1  LIG1        0.0512
      8 C          -5.7330   -1.3040    0.0000 C.3     1  LIG1        0.0055
      9 C          -6.6710   -1.7830    0.0000 C.3     1  LIG1        0.0004
     10 C          -6.1750   -1.0580    0.0000 C.3     1  LIG1        0.0055
     11 C          -5.1000   -1.3040    0.0000 C.3     1  LIG1        0.0512
     12 C          -6.2830    0.0420    0.0000 C.3     1  LIG1        0.0004
     13 C          -5.3670    0.6290    0.0000 C.3     1  LIG1        0.0055
     14 C          -4.4290    0.1710    0.0000 C.3     1  LIG1        0.0512
     15 C          -5.9130    0.0670    0.0000 C.3     1  LIG1        0.0004
     16 C          -2.7330   -1.5380    0.0000 C.3     1  LIG1        0.1575
     17 C          -1.8080   -1.4710    0.0000 C.3     1  LIG1        0.1584
     18 C           0.8670   -0.3040    0.0000 C.ar    1  LIG1        0.1223
     19 C           1.1630    0.6130    0.0000 C.ar    1  LIG1        0.0213
     20 C           2.1130    0.8040    0.0000 C.ar    1  LIG1        0.0213
     21 C           2.8000    0.0880    0.0000 C.ar    1  LIG1        0.1223
     22 S           3.7500    0.3130    0.0000 S.O2    1  LIG1        0.0634
     23 N           4.7330    0.5790    0.0000 N.3     1  LIG1       -0.1504
     24 C           5.4250   -0.1130    0.0000 C.3     1  LIG1        0.1279
     25 C           6.3750    0.1290    0.0000 C.3     1  LIG1        0.1613
     26 O           6.6710    1.0710    0.0000 O.3     1  LIG1       -0.3507
     27 C           5.9500    1.7880    0.0000 C.3     1  LIG1        0.1613
     28 C           4.9960    1.4960    0.0000 C.3     1  LIG1        0.1279
     29 O           3.9830   -0.6670    0.0000 O.2     1  LIG1       -0.1528
     30 O           3.5170    1.2960    0.0000 O.2     1  LIG1       -0.1528
     31 C           2.5040   -0.8580    0.0000 C.ar    1  LIG1        0.0213
     32 C           1.5500   -1.0580    0.0000 C.ar    1  LIG1        0.0213
     33 O          -0.2790    0.4750    0.0000 O.2     1  LIG1       -0.1528
     34 O           0.0790   -1.4920    0.0000 O.2     1  LIG1       -0.1528
@<TRIPOS>BOND
     1     1     2    1
     2     1    18    1
     3     1    33    2
     4     1    34    2
     5     2     3    1
     6     2    17    1
     7     3     4    1
     8     4     5    1
     9     5     6    1
    10     5    16    1
    11     6     7    1
    12     6    11    1
    13     6    14    1
    14     7     8    1
    15     8     9    1
    16     8    15    1
    17     9    10    1
    18    10    11    1
    19    10    12    1
    20    12    13    1
    21    13    14    1
    22    13    15    1
    23    16    17    1
    24    18    19   ar
    25    18    32   ar
    26    19    20   ar
    27    20    21   ar
    28    21    22    1
    29    21    31   ar
    30    22    23    1
    31    22    29    2
    32    22    30    2
    33    23    24    1
    34    23    28    1
    35    24    25    1
    36    25    26    1
    37    26    27    1
    38    27    28    1
    39    31    32   ar
