@<TRIPOS>MOLECULE
34397_ChemDiv_G119-0758
 22 24 0 0 0
SMALL
GASTEIGER
Energy = 0

@<TRIPOS>ATOM
      1 N           2.2830   -1.5670    0.0000 N.ar    1  LIG1       -0.3309
      2 C           2.8630   -0.7580    0.0000 C.ar    1  LIG1        0.0335
      3 C           2.2750    0.0540    0.0000 C.ar    1  LIG1       -0.0088
      4 C           1.3210   -0.2630    0.0000 C.ar    1  LIG1        0.0130
      5 C           1.3290   -1.2630    0.0000 C.ar    1  LIG1        0.0593
      6 C           0.4540   -1.7750    0.0000 C.ar    1  LIG1        0.0173
      7 C          -0.4080   -1.2750    0.0000 C.ar    1  LIG1        0.0060
      8 C          -0.4080   -0.2750    0.0000 C.ar    1  LIG1        0.0551
      9 C          -1.2710    0.2380    0.0000 C.2     1  LIG1        0.2647
     10 N          -1.2710    1.2250    0.0000 N.am    1  LIG1       -0.2034
     11 C          -2.1420    1.7250    0.0000 C.3     1  LIG1        0.0956
     12 C          -3.0000    1.2380    0.0000 C.3     1  LIG1        0.0217
     13 C          -3.8670    1.7250    0.0000 C.3     1  LIG1        0.0018
     14 C          -3.8670    2.7170    0.0000 C.3     1  LIG1        0.0001
     15 C          -3.0000    3.2330    0.0000 C.3     1  LIG1        0.0018
     16 C          -2.1420    2.7170    0.0000 C.3     1  LIG1        0.0217
     17 O          -2.1420   -0.2750    0.0000 O.2     1  LIG1       -0.2684
     18 C           0.4540    0.2380    0.0000 C.ar    1  LIG1        0.0057
     19 C           2.5750    1.0000    0.0000 C.3     1  LIG1        0.0322
     20 C           3.8630   -0.7500    0.0000 C.3     1  LIG1        0.0497
     21 C           2.5920   -2.5210    0.0000 C.3     1  LIG1        0.1058
     22 C           1.8790   -3.2290    0.0000 C.3     1  LIG1        0.0265
@<TRIPOS>BOND
     1     1     2   ar
     2     1     5   ar
     3     1    21    1
     4     2     3   ar
     5     2    20    1
     6     3     4   ar
     7     3    19    1
     8     4     5   ar
     9     4    18   ar
    10     5     6   ar
    11     6     7   ar
    12     7     8   ar
    13     8     9    1
    14     8    18   ar
    15     9    10   am
    16     9    17    2
    17    10    11    1
    18    11    12    1
    19    11    16    1
    20    12    13    1
    21    13    14    1
    22    14    15    1
    23    15    16    1
    24    21    22    1
