@<TRIPOS>MOLECULE
34391_ChemDiv_E950-0351
 31 35 0 0 0
SMALL
GASTEIGER
Energy = 0

@<TRIPOS>ATOM
      1 N           0.1540    2.9130    0.0000 N.ar    1  LIG1       -0.2392
      2 C           1.1460    2.8000    0.0000 C.ar    1  LIG1        0.1362
      3 C           1.5330    3.7210    0.0000 C.ar    1  LIG1        0.0253
      4 C           0.8130    4.3790    0.0000 C.ar    1  LIG1        0.0208
      5 C          -0.0580    3.9040    0.0000 C.ar    1  LIG1        0.0990
      6 C          -0.9290    4.3790    0.0000 C.ar    1  LIG1        0.0988
      7 N          -1.7790    3.9040    0.0000 N.ar    1  LIG1       -0.2423
      8 C          -2.6500    4.3790    0.0000 C.ar    1  LIG1        0.0989
      9 C          -2.6500    5.4000    0.0000 C.ar    1  LIG1        0.0207
     10 C          -1.7790    5.8790    0.0000 C.ar    1  LIG1        0.0031
     11 C          -0.9290    5.4000    0.0000 C.ar    1  LIG1        0.0192
     12 C          -0.0580    5.8790    0.0000 C.ar    1  LIG1        0.0016
     13 C           0.8130    5.4000    0.0000 C.ar    1  LIG1        0.0016
     14 C           1.6540    1.9290    0.0000 C.2     1  LIG1        0.2825
     15 N           1.1460    1.0580    0.0000 N.am    1  LIG1       -0.2004
     16 C           1.6540    0.2080    0.0000 C.3     1  LIG1        0.1159
     17 C           1.1460   -0.6630    0.0000 C.3     1  LIG1        0.0336
     18 C           1.6540   -1.5330    0.0000 C.3     1  LIG1        0.0647
     19 C           1.1460   -2.4080    0.0000 C.3     1  LIG1        0.1391
     20 N           0.1540   -2.4080    0.0000 N.4     1  LIG1        0.3807
     21 C          -0.3580   -3.2790    0.0000 C.3     1  LIG1        0.1658
     22 C           0.1420   -4.1500    0.0000 C.ar    1  LIG1        0.0304
     23 C          -0.3580   -5.0080    0.0000 C.ar    1  LIG1       -0.0203
     24 C          -1.3580   -5.0080    0.0000 C.3     1  LIG1        0.0309
     25 C           0.1420   -5.8790    0.0000 C.ar    1  LIG1       -0.0044
     26 C           1.1460   -5.8790    0.0000 C.ar    1  LIG1       -0.0003
     27 C           1.6250   -5.0210    0.0000 C.ar    1  LIG1       -0.0001
     28 C           1.1460   -4.1500    0.0000 C.ar    1  LIG1        0.0011
     29 C          -0.3580   -1.5330    0.0000 C.3     1  LIG1        0.1391
     30 C           0.1540   -0.6830    0.0000 C.3     1  LIG1        0.0647
     31 O           2.6460    1.9290    0.0000 O.2     1  LIG1       -0.2667
@<TRIPOS>BOND
     1     1     2   ar
     2     1     5   ar
     3     2     3   ar
     4     2    14    1
     5     3     4   ar
     6     4     5   ar
     7     4    13   ar
     8     5     6   ar
     9     6     7   ar
    10     6    11   ar
    11     7     8   ar
    12     8     9   ar
    13     9    10   ar
    14    10    11   ar
    15    11    12   ar
    16    12    13   ar
    17    14    15   am
    18    14    31    2
    19    15    16    1
    20    16    17    1
    21    17    18    1
    22    17    30    1
    23    18    19    1
    24    19    20    1
    25    20    21    1
    26    20    29    1
    27    21    22    1
    28    22    23   ar
    29    22    28   ar
    30    23    24    1
    31    23    25   ar
    32    25    26   ar
    33    26    27   ar
    34    27    28   ar
    35    29    30    1
