@<TRIPOS>MOLECULE
34396_ChemDiv_8013-1993
 29 31 0 0 0
SMALL
GASTEIGER
Energy = 0

@<TRIPOS>ATOM
      1 C          -4.1460   -0.2080    0.0000 C.ar    1  LIG1        0.3320
      2 N          -3.0580   -0.0460    0.0000 N.ar    1  LIG1       -0.2708
      3 C          -2.5580   -1.0460    0.0000 C.ar    1  LIG1        0.0802
      4 C          -3.3630   -1.8250    0.0000 C.ar    1  LIG1        0.0798
      5 N          -4.3380   -1.3040    0.0000 N.ar    1  LIG1       -0.2779
      6 C          -5.3330   -1.8040    0.0000 C.3     1  LIG1        0.1351
      7 C          -3.0920   -2.9000    0.0000 C.ar    1  LIG1        0.0188
      8 C          -2.0290   -3.2040    0.0000 C.ar    1  LIG1        0.0016
      9 C          -1.2250   -2.4250    0.0000 C.ar    1  LIG1        0.0016
     10 C          -1.4960   -1.3500    0.0000 C.ar    1  LIG1        0.0188
     11 C          -2.6080    0.7540    0.0000 C.3     1  LIG1        0.1971
     12 C          -1.6670    0.7790    0.0000 C.2     1  LIG1        0.2646
     13 O          -1.2130    1.5920    0.0000 O.2     1  LIG1       -0.2712
     14 N          -1.1790   -0.0130    0.0000 N.am    1  LIG1       -0.2034
     15 C          -0.2500   -0.0040    0.0000 C.3     1  LIG1        0.1199
     16 C           0.2040    0.7920    0.0000 C.3     1  LIG1        0.0499
     17 C           1.1420    0.7920    0.0000 C.ar    1  LIG1       -0.0172
     18 C           1.5920    1.5920    0.0000 C.ar    1  LIG1        0.0358
     19 C           2.5210    1.6080    0.0000 C.ar    1  LIG1        0.1719
     20 C           2.9960    0.7920    0.0000 C.ar    1  LIG1        0.1722
     21 C           2.5330   -0.0040    0.0000 C.ar    1  LIG1        0.0397
     22 C           1.6040   -0.0130    0.0000 C.ar    1  LIG1       -0.0009
     23 O           3.9250    0.7920    0.0000 O.3     1  LIG1       -0.4724
     24 C           4.3920    1.6080    0.0000 C.3     1  LIG1        0.2057
     25 C           5.3290    1.6080    0.0000 C.3     1  LIG1        0.0512
     26 O           2.9880    2.4080    0.0000 O.3     1  LIG1       -0.4724
     27 C           2.5130    3.2080    0.0000 C.3     1  LIG1        0.2057
     28 C           1.5830    3.2080    0.0000 C.3     1  LIG1        0.0512
     29 O          -4.9250    0.6000    0.0000 O.2     1  LIG1       -0.2463
@<TRIPOS>BOND
     1     1     2   ar
     2     1     5   ar
     3     1    29    2
     4     2     3   ar
     5     2    11    1
     6     3     4   ar
     7     3    10   ar
     8     4     5   ar
     9     4     7   ar
    10     5     6    1
    11     7     8   ar
    12     8     9   ar
    13     9    10   ar
    14    11    12    1
    15    12    13    2
    16    12    14   am
    17    14    15    1
    18    15    16    1
    19    16    17    1
    20    17    18   ar
    21    17    22   ar
    22    18    19   ar
    23    19    20   ar
    24    19    26    1
    25    20    21   ar
    26    20    23    1
    27    21    22   ar
    28    23    24    1
    29    24    25    1
    30    26    27    1
    31    27    28    1
