@<TRIPOS>MOLECULE
34393_ChemDiv_G119-0160
 24 26 0 0 0
SMALL
GASTEIGER
Energy = 0

@<TRIPOS>ATOM
      1 N           3.7960   -1.5630    0.0000 N.ar    1  LIG1       -0.2500
      2 C           4.3750   -0.7580    0.0000 C.ar    1  LIG1        0.0554
      3 C           3.7830    0.0540    0.0000 C.ar    1  LIG1       -0.0068
      4 C           2.8290   -0.2630    0.0000 C.ar    1  LIG1        0.0150
      5 C           2.8420   -1.2630    0.0000 C.ar    1  LIG1        0.0806
      6 C           1.9670   -1.7710    0.0000 C.ar    1  LIG1        0.0192
      7 C           1.1040   -1.2710    0.0000 C.ar    1  LIG1        0.0061
      8 C           1.1040   -0.2750    0.0000 C.ar    1  LIG1        0.0551
      9 C           1.9670    0.2380    0.0000 C.ar    1  LIG1        0.0058
     10 C           0.2420    0.2380    0.0000 C.2     1  LIG1        0.2648
     11 O          -0.6250   -0.2750    0.0000 O.2     1  LIG1       -0.2684
     12 N           0.2420    1.2250    0.0000 N.am    1  LIG1       -0.2014
     13 C          -0.6250    1.7250    0.0000 C.3     1  LIG1        0.1216
     14 C          -1.5000    1.2380    0.0000 C.3     1  LIG1        0.0861
     15 C          -2.3630    1.7290    0.0000 C.3     1  LIG1        0.1404
     16 N          -3.2210    1.2210    0.0000 N.4     1  LIG1        0.3773
     17 C          -4.0460    1.7750    0.0000 C.3     1  LIG1        0.1385
     18 C          -5.0040    1.4880    0.0000 C.3     1  LIG1        0.0627
     19 C          -5.3790    0.5580    0.0000 C.3     1  LIG1        0.0063
     20 C          -4.8670   -0.3040    0.0000 C.3     1  LIG1        0.0063
     21 C          -3.8710   -0.4580    0.0000 C.3     1  LIG1        0.0627
     22 C          -3.1420    0.2210    0.0000 C.3     1  LIG1        0.1385
     23 C           4.0880    1.0000    0.0000 C.3     1  LIG1        0.0323
     24 C           5.3750   -0.7460    0.0000 C.3     1  LIG1        0.0518
@<TRIPOS>BOND
     1     1     2   ar
     2     1     5   ar
     3     2     3   ar
     4     2    24    1
     5     3     4   ar
     6     3    23    1
     7     4     5   ar
     8     4     9   ar
     9     5     6   ar
    10     6     7   ar
    11     7     8   ar
    12     8     9   ar
    13     8    10    1
    14    10    11    2
    15    10    12   am
    16    12    13    1
    17    13    14    1
    18    14    15    1
    19    15    16    1
    20    16    17    1
    21    16    22    1
    22    17    18    1
    23    18    19    1
    24    19    20    1
    25    20    21    1
    26    21    22    1
