@<TRIPOS>MOLECULE
34399_ChemDiv_G119-0874
 20 22 0 0 0
SMALL
GASTEIGER
Energy = 0

@<TRIPOS>ATOM
      1 N           1.4170   -1.3330    0.0000 N.ar    1  LIG1       -0.3309
      2 C           1.9960   -0.5290    0.0000 C.ar    1  LIG1        0.0335
      3 C           1.4080    0.2830    0.0000 C.ar    1  LIG1       -0.0088
      4 C           0.4540   -0.0330    0.0000 C.ar    1  LIG1        0.0130
      5 C           0.4630   -1.0330    0.0000 C.ar    1  LIG1        0.0593
      6 C          -0.4080   -1.5420    0.0000 C.ar    1  LIG1        0.0173
      7 C          -1.2710   -1.0420    0.0000 C.ar    1  LIG1        0.0060
      8 C          -1.2710   -0.0420    0.0000 C.ar    1  LIG1        0.0537
      9 C          -2.1330    0.4670    0.0000 C.2     1  LIG1        0.2490
     10 N          -2.1330    1.4540    0.0000 N.am    1  LIG1       -0.2761
     11 C          -2.9500    2.0330    0.0000 C.3     1  LIG1        0.0938
     12 C          -2.6460    2.9960    0.0000 C.3     1  LIG1        0.0233
     13 C          -1.6380    2.9880    0.0000 C.3     1  LIG1        0.0233
     14 C          -1.3210    2.0500    0.0000 C.3     1  LIG1        0.0938
     15 O          -3.0000   -0.0420    0.0000 O.2     1  LIG1       -0.2699
     16 C          -0.4080    0.4670    0.0000 C.ar    1  LIG1        0.0057
     17 C           1.7080    1.2250    0.0000 C.3     1  LIG1        0.0322
     18 C           2.9960   -0.5170    0.0000 C.3     1  LIG1        0.0497
     19 C           1.7250   -2.2880    0.0000 C.3     1  LIG1        0.1058
     20 C           1.0130   -2.9920    0.0000 C.3     1  LIG1        0.0265
@<TRIPOS>BOND
     1     1     2   ar
     2     1     5   ar
     3     1    19    1
     4     2     3   ar
     5     2    18    1
     6     3     4   ar
     7     3    17    1
     8     4     5   ar
     9     4    16   ar
    10     5     6   ar
    11     6     7   ar
    12     7     8   ar
    13     8     9    1
    14     8    16   ar
    15     9    10   am
    16     9    15    2
    17    10    11    1
    18    10    14    1
    19    11    12    1
    20    12    13    1
    21    13    14    1
    22    19    20    1
