@<TRIPOS>MOLECULE
34416_ChemDiv_8014-2077
 21 23 0 0 0
SMALL
GASTEIGER
Energy = 0

@<TRIPOS>ATOM
      1 N          -0.3210   -1.0790    0.0000 N.ar    1  LIG1       -0.3214
      2 C           0.2500   -0.2830    0.0000 C.ar    1  LIG1        0.0824
      3 C          -0.3210    0.5380    0.0000 C.ar    1  LIG1        0.0442
      4 C          -1.2540    0.2170    0.0000 C.ar    1  LIG1        0.0229
      5 C          -1.2540   -0.7830    0.0000 C.ar    1  LIG1        0.0607
      6 C          -2.1210   -1.2830    0.0000 C.ar    1  LIG1        0.0172
      7 C          -2.9830   -0.7830    0.0000 C.ar    1  LIG1        0.0015
      8 C          -2.9830    0.2170    0.0000 C.ar    1  LIG1        0.0001
      9 C          -2.1210    0.7210    0.0000 C.ar    1  LIG1        0.0020
     10 S           0.0210    1.4920    0.0000 S.3     1  LIG1       -0.1061
     11 C           1.0000    1.6750    0.0000 C.3     1  LIG1        0.1037
     12 C           1.3290    2.6080    0.0000 C.2     1  LIG1        0.0616
     13 O           0.7040    3.3830    0.0000 O.co2   1  LIG1       -0.5483
     14 O           2.3080    2.8130    0.0000 O.co2   1  LIG1       -0.5483
     15 C           0.0210   -2.0580    0.0000 C.3     1  LIG1        0.1328
     16 C           1.0000   -2.2420    0.0000 C.ar    1  LIG1        0.0004
     17 C           1.6500   -1.4880    0.0000 C.ar    1  LIG1       -0.0024
     18 C           2.6380   -1.6710    0.0000 C.ar    1  LIG1       -0.0003
     19 C           2.9790   -2.6170    0.0000 C.ar    1  LIG1       -0.0000
     20 C           2.3210   -3.3790    0.0000 C.ar    1  LIG1       -0.0003
     21 C           1.3290   -3.1880    0.0000 C.ar    1  LIG1       -0.0024
@<TRIPOS>BOND
     1     1     2   ar
     2     1     5   ar
     3     1    15    1
     4     2     3   ar
     5     3     4   ar
     6     3    10    1
     7     4     5   ar
     8     4     9   ar
     9     5     6   ar
    10     6     7   ar
    11     7     8   ar
    12     8     9   ar
    13    10    11    1
    14    11    12    1
    15    12    13   ar
    16    12    14   ar
    17    15    16    1
    18    16    17   ar
    19    16    21   ar
    20    17    18   ar
    21    18    19   ar
    22    19    20   ar
    23    20    21   ar
