@<TRIPOS>MOLECULE
34415_ChemDiv_8018-0158
 21 23 0 0 0
SMALL
GASTEIGER
Energy = 0

@<TRIPOS>ATOM
      1 C           2.1670    0.7500    0.0000 C.ar    1  LIG1        0.1724
      2 N           1.2960    1.2580    0.0000 N.ar    1  LIG1       -0.2362
      3 C           0.4330    0.7580    0.0000 C.ar    1  LIG1        0.1015
      4 C           0.4330   -0.2420    0.0000 C.ar    1  LIG1        0.1018
      5 N           1.2960   -0.7420    0.0000 N.ar    1  LIG1       -0.2245
      6 C           2.1580   -0.2540    0.0000 C.ar    1  LIG1        0.1921
      7 N           3.0210   -0.7540    0.0000 N.pl3   1  LIG1       -0.1054
      8 C          -0.4330   -0.7380    0.0000 C.ar    1  LIG1        0.0375
      9 C          -1.2960   -0.2420    0.0000 C.ar    1  LIG1        0.0774
     10 C          -1.2960    0.7580    0.0000 C.ar    1  LIG1        0.1549
     11 C          -0.4330    1.2710    0.0000 C.ar    1  LIG1        0.0515
     12 F          -2.1630    1.2580    0.0000 F       1  LIG1       -0.2028
     13 N          -2.1630   -0.7420    0.0000 N.pl3   1  LIG1       -0.3010
     14 C          -3.0330   -0.2420    0.0000 C.3     1  LIG1        0.1231
     15 C          -3.8960   -0.7380    0.0000 C.3     1  LIG1        0.1636
     16 O          -3.9000   -1.7420    0.0000 O.3     1  LIG1       -0.3501
     17 C          -3.0330   -2.2420    0.0000 C.3     1  LIG1        0.1636
     18 C          -2.1630   -1.7420    0.0000 C.3     1  LIG1        0.1231
     19 C           3.0330    1.2460    0.0000 C.2     1  LIG1        0.3048
     20 O           3.0420    2.2460    0.0000 O.2     1  LIG1       -0.2649
     21 N           3.8960    0.7460    0.0000 N.am    1  LIG1       -0.0823
@<TRIPOS>BOND
     1     1     2   ar
     2     1     6   ar
     3     1    19    1
     4     2     3   ar
     5     3     4   ar
     6     3    11   ar
     7     4     5   ar
     8     4     8   ar
     9     5     6   ar
    10     6     7    1
    11     8     9   ar
    12     9    10   ar
    13     9    13    1
    14    10    11   ar
    15    10    12    1
    16    13    14    1
    17    13    18    1
    18    14    15    1
    19    15    16    1
    20    16    17    1
    21    17    18    1
    22    19    20    2
    23    19    21   am
