@<TRIPOS>MOLECULE
34417_ChemDiv_K216-8107
 25 27 0 0 0
SMALL
GASTEIGER
Energy = 0

@<TRIPOS>ATOM
      1 N           2.7630   -0.8080    0.0000 N.ar    1  LIG1       -0.2470
      2 C           1.8920   -0.3040    0.0000 C.ar    1  LIG1        0.0986
      3 C           1.9000    0.6960    0.0000 C.ar    1  LIG1        0.0985
      4 N           2.7630    1.2040    0.0000 N.ar    1  LIG1       -0.2470
      5 C           3.6250    0.6960    0.0000 C.ar    1  LIG1        0.0724
      6 C           3.6250   -0.3080    0.0000 C.ar    1  LIG1        0.0724
      7 C           4.4880   -0.8080    0.0000 C.3     1  LIG1        0.0470
      8 C           4.7460   -1.7710    0.0000 C.3     1  LIG1        0.0067
      9 C           4.5000    1.1920    0.0000 C.3     1  LIG1        0.0470
     10 C           4.7540    2.1580    0.0000 C.3     1  LIG1        0.0067
     11 C           1.0290    1.2040    0.0000 C.ar    1  LIG1        0.0208
     12 C           0.1670    0.6960    0.0000 C.ar    1  LIG1        0.0062
     13 C           0.1670   -0.3080    0.0000 C.ar    1  LIG1        0.0566
     14 C          -0.7080   -0.8080    0.0000 C.2     1  LIG1        0.2650
     15 N          -1.5710   -0.3080    0.0000 N.am    1  LIG1       -0.1955
     16 C          -2.3710   -0.7710    0.0000 C.3     1  LIG1        0.1717
     17 C          -3.1750   -0.3080    0.0000 C.3     1  LIG1        0.1092
     18 N          -3.9670   -0.7630    0.0000 N.4     1  LIG1        0.3743
     19 C          -4.7580   -0.3080    0.0000 C.3     1  LIG1        0.1385
     20 C          -4.7580    0.6210    0.0000 C.3     1  LIG1        0.0687
     21 C          -3.1750    0.6170    0.0000 C.3     1  LIG1        0.0647
     22 C          -3.9580   -1.6880    0.0000 C.3     1  LIG1        0.1385
     23 C          -4.7580   -2.1540    0.0000 C.3     1  LIG1        0.0688
     24 O          -0.7080   -1.8080    0.0000 O.2     1  LIG1       -0.2684
     25 C           1.0290   -0.8080    0.0000 C.ar    1  LIG1        0.0252
@<TRIPOS>BOND
     1     1     2   ar
     2     1     6   ar
     3     2     3   ar
     4     2    25   ar
     5     3     4   ar
     6     3    11   ar
     7     4     5   ar
     8     5     6   ar
     9     5     9    1
    10     6     7    1
    11     7     8    1
    12     9    10    1
    13    11    12   ar
    14    12    13   ar
    15    13    14    1
    16    13    25   ar
    17    14    15   am
    18    14    24    2
    19    15    16    1
    20    16    17    1
    21    17    18    1
    22    17    21    1
    23    18    19    1
    24    18    22    1
    25    19    20    1
    26    20    21    1
    27    22    23    1
