@<TRIPOS>MOLECULE
34414_ChemDiv_8014-1859
 18 20 0 0 0
SMALL
GASTEIGER
Energy = 0

@<TRIPOS>ATOM
      1 N           0.3420    0.8830    0.0000 N.ar    1  LIG1       -0.1759
      2 C          -0.1420    0.0250    0.0000 C.ar    1  LIG1        0.1847
      3 N          -1.1290    0.2210    0.0000 N.ar    1  LIG1       -0.2947
      4 C          -1.2380    1.1960    0.0000 C.ar    1  LIG1        0.1418
      5 N          -0.3330    1.6210    0.0000 N.ar    1  LIG1       -0.1498
      6 C          -2.0920    1.7170    0.0000 C.3     1  LIG1        0.0658
      7 C          -3.0500    1.3540    0.0000 C.3     1  LIG1        0.0080
      8 C          -3.3750    0.4500    0.0000 C.3     1  LIG1        0.0024
      9 C          -2.8380   -0.3830    0.0000 C.3     1  LIG1        0.0246
     10 C          -1.8210   -0.4880    0.0000 C.3     1  LIG1        0.1091
     11 S           0.2710   -0.9000    0.0000 S.2     1  LIG1       -0.0110
     12 C           1.3460    0.8830    0.0000 C.3     1  LIG1        0.2772
     13 N           1.8630    0.0250    0.0000 N.4     1  LIG1        0.4007
     14 C           1.3580   -0.8290    0.0000 C.3     1  LIG1        0.1742
     15 C           1.8710   -1.7130    0.0000 C.3     1  LIG1        0.2048
     16 O           2.8580   -1.7040    0.0000 O.3     1  LIG1       -0.3411
     17 C           3.3710   -0.8290    0.0000 C.3     1  LIG1        0.2048
     18 C           2.8790    0.0250    0.0000 C.3     1  LIG1        0.1742
@<TRIPOS>BOND
     1     1     2   ar
     2     1     5   ar
     3     1    12    1
     4     2     3   ar
     5     2    11    2
     6     3     4   ar
     7     3    10    1
     8     4     5   ar
     9     4     6    1
    10     6     7    1
    11     7     8    1
    12     8     9    1
    13     9    10    1
    14    12    13    1
    15    13    14    1
    16    13    18    1
    17    14    15    1
    18    15    16    1
    19    16    17    1
    20    17    18    1
