@<TRIPOS>MOLECULE
34420_ChemDiv_8013-2175
 31 35 0 0 0
SMALL
GASTEIGER
Energy = 0

@<TRIPOS>ATOM
      1 C          -3.3710    0.2540    0.0000 C.ar    1  LIG1        0.1656
      2 C          -3.3710    1.2000    0.0000 C.ar    1  LIG1        0.1383
      3 C          -5.0380    1.2000    0.0000 C.ar    1  LIG1        0.0382
      4 C          -5.0380    0.2540    0.0000 C.ar    1  LIG1        0.0626
      5 N          -4.2040   -0.2210    0.0000 N.ar    1  LIG1       -0.3114
      6 C          -4.2040   -1.1710    0.0000 C.3     1  LIG1        0.1075
      7 C          -3.3460   -1.6710    0.0000 C.3     1  LIG1        0.0245
      8 C          -2.4830   -1.1830    0.0000 C.3     1  LIG1        0.0021
      9 C          -5.8750   -0.2210    0.0000 C.ar    1  LIG1        0.0173
     10 C          -6.7040    0.2540    0.0000 C.ar    1  LIG1        0.0015
     11 C          -6.7040    1.2000    0.0000 C.ar    1  LIG1        0.0001
     12 C          -5.8750    1.6750    0.0000 C.ar    1  LIG1        0.0031
     13 N          -2.5420    1.6750    0.0000 N.ar    1  LIG1       -0.1429
     14 N          -1.7080    1.2000    0.0000 N.ar    1  LIG1       -0.1217
     15 C          -1.7080    0.2540    0.0000 C.ar    1  LIG1        0.2123
     16 N          -2.5420   -0.2210    0.0000 N.ar    1  LIG1       -0.2008
     17 S          -0.8790   -0.2210    0.0000 S.3     1  LIG1       -0.0641
     18 C          -0.0630    0.2540    0.0000 C.3     1  LIG1        0.1516
     19 C           0.7880   -0.2380    0.0000 C.2     1  LIG1        0.2531
     20 N           1.6630    0.2380    0.0000 N.am    1  LIG1       -0.1998
     21 C           2.5960   -0.2920    0.0000 C.3     1  LIG1        0.1416
     22 C           3.4040    0.1540    0.0000 C.ar    1  LIG1        0.0027
     23 C           4.2380   -0.3210    0.0000 C.ar    1  LIG1        0.0376
     24 C           5.0380    0.1540    0.0000 C.ar    1  LIG1        0.1762
     25 C           5.0380    1.0710    0.0000 C.ar    1  LIG1        0.1764
     26 O           6.7040    1.0710    0.0000 O.3     1  LIG1       -0.4346
     27 C           6.7040    0.1380    0.0000 C.3     1  LIG1        0.4294
     28 O           5.8710   -0.3500    0.0000 O.3     1  LIG1       -0.4346
     29 C           4.2380    1.5790    0.0000 C.ar    1  LIG1        0.0399
     30 C           3.4040    1.0710    0.0000 C.ar    1  LIG1        0.0008
     31 O           0.7880   -1.1830    0.0000 O.2     1  LIG1       -0.2724
@<TRIPOS>BOND
     1     1     2   ar
     2     1     5   ar
     3     1    16   ar
     4     2     3   ar
     5     2    13   ar
     6     3     4   ar
     7     3    12   ar
     8     4     5   ar
     9     4     9   ar
    10     5     6    1
    11     6     7    1
    12     7     8    1
    13     9    10   ar
    14    10    11   ar
    15    11    12   ar
    16    13    14   ar
    17    14    15   ar
    18    15    16   ar
    19    15    17    1
    20    17    18    1
    21    18    19    1
    22    19    20   am
    23    19    31    2
    24    20    21    1
    25    21    22    1
    26    22    23   ar
    27    22    30   ar
    28    23    24   ar
    29    24    25   ar
    30    24    28    1
    31    25    26    1
    32    25    29   ar
    33    26    27    1
    34    27    28    1
    35    29    30   ar
