@<TRIPOS>MOLECULE
34422_ChemDiv_8013-2297
 20 22 0 0 0
SMALL
GASTEIGER
Energy = 0

@<TRIPOS>ATOM
      1 N          -0.0880    0.3960    0.0000 N.ar    1  LIG1       -0.1782
      2 C          -1.0920    0.3960    0.0000 C.ar    1  LIG1        0.2754
      3 N          -1.5960   -0.4750    0.0000 N.ar    1  LIG1       -0.1688
      4 C          -2.6000   -0.4670    0.0000 C.ar    1  LIG1        0.2971
      5 C          -3.0920    0.4040    0.0000 C.ar    1  LIG1        0.1386
      6 N          -2.5830    1.2710    0.0000 N.ar    1  LIG1       -0.1445
      7 N          -1.5960    1.2710    0.0000 N.ar    1  LIG1       -0.1081
      8 C          -4.0750    0.4040    0.0000 C.3     1  LIG1        0.0592
      9 O          -3.1040   -1.3330    0.0000 O.2     1  LIG1       -0.2637
     10 N           0.4880   -0.4210    0.0000 N.ar    1  LIG1       -0.1613
     11 C           1.4460   -0.1290    0.0000 C.ar    1  LIG1        0.1043
     12 C           1.4460    0.8750    0.0000 C.ar    1  LIG1        0.0586
     13 C           0.5000    1.1920    0.0000 C.ar    1  LIG1        0.1758
     14 N           0.2040    2.1250    0.0000 N.pl3   1  LIG1       -0.1070
     15 C           2.3210   -0.6250    0.0000 C.ar    1  LIG1        0.0194
     16 C           3.1750   -0.1170    0.0000 C.ar    1  LIG1        0.0016
     17 C           4.0540   -0.5960    0.0000 C.ar    1  LIG1        0.0000
     18 C           4.0710   -1.6080    0.0000 C.ar    1  LIG1        0.0000
     19 C           3.1960   -2.1210    0.0000 C.ar    1  LIG1        0.0000
     20 C           2.3290   -1.6250    0.0000 C.ar    1  LIG1        0.0016
@<TRIPOS>BOND
     1     1     2    1
     2     1    10   ar
     3     1    13   ar
     4     2     3   ar
     5     2     7   ar
     6     3     4   ar
     7     4     5   ar
     8     4     9    2
     9     5     6   ar
    10     5     8    1
    11     6     7   ar
    12    10    11   ar
    13    11    12   ar
    14    11    15    1
    15    12    13   ar
    16    13    14    1
    17    15    16   ar
    18    15    20   ar
    19    16    17   ar
    20    17    18   ar
    21    18    19   ar
    22    19    20   ar
