@<TRIPOS>MOLECULE
34425_ChemDiv_8012-9610
 33 37 0 0 0
SMALL
GASTEIGER
Energy = 0

@<TRIPOS>ATOM
      1 N          -1.5130   -0.4130    0.0000 N.pl3   1  LIG1       -0.1919
      2 S          -0.6420    0.1380    0.0000 S.O2    1  LIG1        0.0765
      3 C           0.2130    0.6670    0.0000 C.ar    1  LIG1        0.1255
      4 C           0.1880    1.6790    0.0000 C.ar    1  LIG1        0.0216
      5 C           1.0460    2.2080    0.0000 C.ar    1  LIG1        0.0213
      6 C           1.9080    1.7170    0.0000 C.ar    1  LIG1        0.1223
      7 S           2.7710    2.2380    0.0000 S.O2    1  LIG1        0.0634
      8 N           3.6380    2.7580    0.0000 N.3     1  LIG1       -0.1504
      9 C           3.6380    3.7830    0.0000 C.3     1  LIG1        0.1279
     10 C           4.5040    4.2710    0.0000 C.3     1  LIG1        0.1613
     11 O           5.3630    3.7500    0.0000 O.3     1  LIG1       -0.3507
     12 C           5.3960    2.7920    0.0000 C.3     1  LIG1        0.1613
     13 C           4.5040    2.2710    0.0000 C.3     1  LIG1        0.1279
     14 O           2.2460    3.1000    0.0000 O.2     1  LIG1       -0.1528
     15 O           3.2920    1.3750    0.0000 O.2     1  LIG1       -0.1528
     16 C           1.9380    0.7290    0.0000 C.ar    1  LIG1        0.0213
     17 C           1.1080    0.2040    0.0000 C.ar    1  LIG1        0.0216
     18 O          -1.1710    1.0040    0.0000 O.2     1  LIG1       -0.1497
     19 O          -0.0920   -0.7210    0.0000 O.2     1  LIG1       -0.1497
     20 C          -2.4330   -0.0380    0.0000 C.3     1  LIG1        0.1118
     21 C          -3.0580   -0.7880    0.0000 C.3     1  LIG1        0.1006
     22 C          -2.5330   -1.6170    0.0000 C.ar    1  LIG1       -0.0005
     23 C          -1.5750   -1.3710    0.0000 C.ar    1  LIG1        0.0650
     24 C          -0.8920   -2.0790    0.0000 C.ar    1  LIG1        0.0155
     25 C          -1.1420   -3.0380    0.0000 C.ar    1  LIG1       -0.0030
     26 C          -2.1290   -3.2790    0.0000 C.ar    1  LIG1       -0.0221
     27 C          -2.8080   -2.5710    0.0000 C.ar    1  LIG1       -0.0070
     28 C          -2.4040   -4.2710    0.0000 C.3     1  LIG1        0.0310
     29 C          -4.0370   -0.6000    0.0000 C.3     1  LIG1        0.1449
     30 N          -4.3830    0.3250    0.0000 N.4     1  LIG1        0.3823
     31 C          -3.7330    1.0670    0.0000 C.3     1  LIG1        0.1407
     32 C          -2.7750    0.9080    0.0000 C.3     1  LIG1        0.0848
     33 C          -5.4000    0.5460    0.0000 C.3     1  LIG1        0.2022
@<TRIPOS>BOND
     1     1     2    1
     2     1    20    1
     3     1    23    1
     4     2     3    1
     5     2    18    2
     6     2    19    2
     7     3     4   ar
     8     3    17   ar
     9     4     5   ar
    10     5     6   ar
    11     6     7    1
    12     6    16   ar
    13     7     8    1
    14     7    14    2
    15     7    15    2
    16     8     9    1
    17     8    13    1
    18     9    10    1
    19    10    11    1
    20    11    12    1
    21    12    13    1
    22    16    17   ar
    23    20    21    1
    24    20    32    1
    25    21    22    1
    26    21    29    1
    27    22    23   ar
    28    22    27   ar
    29    23    24   ar
    30    24    25   ar
    31    25    26   ar
    32    26    27   ar
    33    26    28    1
    34    29    30    1
    35    30    31    1
    36    30    33    1
    37    31    32    1
