@<TRIPOS>MOLECULE
34437_ChemDiv_8014-2113
 10 10 0 0 0
SMALL
GASTEIGER
Energy = 0

@<TRIPOS>ATOM
      1 C          -0.4420    0.2380    0.0000 C.ar    1  LIG1        0.0338
      2 C          -0.4420    1.2500    0.0000 C.2     1  LIG1        0.0743
      3 O          -1.3080    1.7500    0.0000 O.co2   1  LIG1       -0.5445
      4 O           0.4170    1.7500    0.0000 O.co2   1  LIG1       -0.5445
      5 C           0.4170   -0.2580    0.0000 C.ar    1  LIG1        0.1093
      6 N           1.3040    0.2580    0.0000 N.pl3   1  LIG1       -0.1264
      7 C           0.4170   -1.2500    0.0000 C.ar    1  LIG1        0.1169
      8 N          -0.4420   -1.7460    0.0000 N.ar    1  LIG1       -0.2409
      9 C          -1.3080   -1.2710    0.0000 C.ar    1  LIG1        0.0990
     10 C          -1.3080   -0.2580    0.0000 C.ar    1  LIG1        0.0232
@<TRIPOS>BOND
     1     1     2    1
     2     1     5   ar
     3     1    10   ar
     4     2     3   ar
     5     2     4   ar
     6     5     6    1
     7     5     7   ar
     8     7     8   ar
     9     8     9   ar
    10     9    10   ar
