@<TRIPOS>MOLECULE
34434_ChemDiv_8015-7710
 28 32 0 0 0
SMALL
GASTEIGER
Energy = 0

@<TRIPOS>ATOM
      1 C          -0.4460    0.2580    0.0000 C.2     1  LIG1        0.0767
      2 C          -1.3080   -0.2420    0.0000 C.2     1  LIG1        0.0267
      3 C          -1.3080   -1.2290    0.0000 C.ar    1  LIG1        0.0143
      4 C          -0.4460   -1.7290    0.0000 C.ar    1  LIG1        0.0658
      5 N           0.4210   -1.2290    0.0000 N.pl3   1  LIG1       -0.2302
      6 C           0.4210   -0.2420    0.0000 C.3     1  LIG1        0.1430
      7 C           1.3080    0.2580    0.0000 C.ar    1  LIG1        0.0049
      8 C           1.3080    1.2630    0.0000 C.ar    1  LIG1        0.0379
      9 C           2.1710    1.7580    0.0000 C.ar    1  LIG1        0.1769
     10 C           3.0330    1.2630    0.0000 C.ar    1  LIG1        0.2293
     11 C           3.0330    0.2580    0.0000 C.ar    1  LIG1        0.0450
     12 C           2.1710   -0.2420    0.0000 C.ar    1  LIG1        0.0012
     13 O           3.9080    1.7580    0.0000 O.3     1  LIG1       -0.2833
     14 O           2.1710    2.7580    0.0000 O.3     1  LIG1       -0.4722
     15 C           3.0210    3.2460    0.0000 C.3     1  LIG1        0.2057
     16 C           3.8710    2.7460    0.0000 C.3     1  LIG1        0.0512
     17 C          -0.4460   -2.7380    0.0000 C.ar    1  LIG1        0.0161
     18 C          -1.3080   -3.2420    0.0000 C.ar    1  LIG1        0.0013
     19 C          -2.1830   -2.7380    0.0000 C.ar    1  LIG1        0.0001
     20 C          -2.1830   -1.7290    0.0000 C.ar    1  LIG1        0.0010
     21 C          -3.0460   -1.2290    0.0000 C.ar    1  LIG1        0.0000
     22 C          -3.9130   -1.7290    0.0000 C.ar    1  LIG1        0.0000
     23 C          -3.9130   -2.7380    0.0000 C.ar    1  LIG1        0.0000
     24 C          -3.0460   -3.2420    0.0000 C.ar    1  LIG1        0.0000
     25 C          -2.0630    0.4330    0.0000 C.3     1  LIG1        0.2354
     26 O          -1.6580    1.3330    0.0000 O.3     1  LIG1       -0.4406
     27 C          -0.6580    1.2380    0.0000 C.2     1  LIG1        0.3393
     28 O           0.0210    1.9830    0.0000 O.2     1  LIG1       -0.2452
@<TRIPOS>BOND
     1     1     2    2
     2     1     6    1
     3     1    27    1
     4     2     3    1
     5     2    25    1
     6     3     4   ar
     7     3    20   ar
     8     4     5    1
     9     4    17   ar
    10     5     6    1
    11     6     7    1
    12     7     8   ar
    13     7    12   ar
    14     8     9   ar
    15     9    10   ar
    16     9    14    1
    17    10    11   ar
    18    10    13    1
    19    11    12   ar
    20    14    15    1
    21    15    16    1
    22    17    18   ar
    23    18    19   ar
    24    19    20   ar
    25    19    24   ar
    26    20    21   ar
    27    21    22   ar
    28    22    23   ar
    29    23    24   ar
    30    25    26    1
    31    26    27    1
    32    27    28    2
