@<TRIPOS>MOLECULE
34432_ChemDiv_8013-2618
 30 33 0 0 0
SMALL
GASTEIGER
Energy = 0

@<TRIPOS>ATOM
      1 N           1.2210    1.2670    0.0000 N.pl3   1  LIG1       -0.2133
      2 N           0.2540    1.2670    0.0000 N.2     1  LIG1       -0.1850
      3 C          -0.2630    2.1000    0.0000 C.2     1  LIG1        0.0781
      4 C           1.1920    2.9960    0.0000 C.3     1  LIG1        0.0733
      5 C           1.7000    2.1000    0.0000 C.3     1  LIG1        0.1210
      6 C           2.6580    2.1000    0.0000 C.ar    1  LIG1       -0.0024
      7 C           3.1670    2.9290    0.0000 C.ar    1  LIG1       -0.0026
      8 C           4.1380    2.9290    0.0000 C.ar    1  LIG1       -0.0003
      9 C           4.6170    2.1000    0.0000 C.ar    1  LIG1       -0.0000
     10 C           4.1380    1.2670    0.0000 C.ar    1  LIG1       -0.0003
     11 C           3.1670    1.2670    0.0000 C.ar    1  LIG1       -0.0026
     12 C          -1.2210    2.1000    0.0000 C.ar    1  LIG1        0.0153
     13 C          -1.7080    2.9290    0.0000 C.ar    1  LIG1        0.0043
     14 C          -2.6670    2.9290    0.0000 C.ar    1  LIG1        0.0369
     15 C          -3.1750    2.1000    0.0000 C.ar    1  LIG1        0.1387
     16 C          -2.6670    1.2670    0.0000 C.ar    1  LIG1        0.0369
     17 C          -1.7080    1.2670    0.0000 C.ar    1  LIG1        0.0043
     18 O          -4.1330    2.1000    0.0000 O.3     1  LIG1       -0.4714
     19 C          -4.6210    2.9290    0.0000 C.3     1  LIG1        0.2525
     20 C           1.7000    0.4130    0.0000 C.3     1  LIG1        0.2038
     21 C           2.6580    0.4130    0.0000 C.1     1  LIG1        0.0986
     22 N           3.6580    0.4130    0.0000 N.1     1  LIG1       -0.1938
     23 C           1.2210   -0.4250    0.0000 C.ar    1  LIG1        0.0117
     24 C           1.7290   -1.2880    0.0000 C.ar    1  LIG1        0.0015
     25 C           1.2290   -2.1460    0.0000 C.ar    1  LIG1        0.0367
     26 C           0.2460   -2.1460    0.0000 C.ar    1  LIG1        0.1387
     27 C          -0.2750   -1.2880    0.0000 C.ar    1  LIG1        0.0367
     28 C           0.2170   -0.4250    0.0000 C.ar    1  LIG1        0.0015
     29 O          -0.2540   -2.9920    0.0000 O.3     1  LIG1       -0.4714
     30 C          -1.3040   -2.9920    0.0000 C.3     1  LIG1        0.2525
@<TRIPOS>BOND
     1     1     2    1
     2     1     5    1
     3     1    20    1
     4     2     3    2
     5     3     4    1
     6     3    12    1
     7     4     5    1
     8     5     6    1
     9     6     7   ar
    10     6    11   ar
    11     7     8   ar
    12     8     9   ar
    13     9    10   ar
    14    10    11   ar
    15    12    13   ar
    16    12    17   ar
    17    13    14   ar
    18    14    15   ar
    19    15    16   ar
    20    15    18    1
    21    16    17   ar
    22    18    19    1
    23    20    21    1
    24    20    23    1
    25    21    22    3
    26    23    24   ar
    27    23    28   ar
    28    24    25   ar
    29    25    26   ar
    30    26    27   ar
    31    26    29    1
    32    27    28   ar
    33    29    30    1
