@<TRIPOS>MOLECULE
34433_ChemDiv_K413-0296
 24 26 0 0 0
SMALL
GASTEIGER
Energy = 0

@<TRIPOS>ATOM
      1 N          -0.7750   -1.3830    0.0000 N.ar    1  LIG1       -0.3214
      2 C          -0.1920   -0.5960    0.0000 C.ar    1  LIG1        0.0824
      3 C          -0.7750    0.2330    0.0000 C.ar    1  LIG1        0.0443
      4 C          -1.7250   -0.0830    0.0000 C.ar    1  LIG1        0.0229
      5 C          -1.7250   -1.0830    0.0000 C.ar    1  LIG1        0.0607
      6 C          -2.5830   -1.5830    0.0000 C.ar    1  LIG1        0.0172
      7 C          -3.4500   -1.0830    0.0000 C.ar    1  LIG1        0.0015
      8 C          -3.4500   -0.0830    0.0000 C.ar    1  LIG1        0.0001
      9 C          -2.5830    0.4170    0.0000 C.ar    1  LIG1        0.0020
     10 S          -0.4710    1.1830    0.0000 S.3     1  LIG1       -0.1003
     11 C           0.5170    1.4000    0.0000 C.3     1  LIG1        0.1715
     12 C           0.8290    2.3420    0.0000 C.2     1  LIG1        0.3285
     13 O           0.1630    3.0750    0.0000 O.2     1  LIG1       -0.2491
     14 O           1.8080    2.5580    0.0000 O.3     1  LIG1       -0.4479
     15 C           2.1130    3.5080    0.0000 C.3     1  LIG1        0.2086
     16 C           3.0960    3.7210    0.0000 C.3     1  LIG1        0.0513
     17 C          -0.4580   -2.3500    0.0000 C.3     1  LIG1        0.1328
     18 C           0.5170   -2.5630    0.0000 C.ar    1  LIG1        0.0004
     19 C           0.8290   -3.5130    0.0000 C.ar    1  LIG1       -0.0015
     20 C           1.8080   -3.7170    0.0000 C.ar    1  LIG1        0.0111
     21 C           2.4750   -2.9830    0.0000 C.ar    1  LIG1        0.0577
     22 CL          3.4460   -3.2170    0.0000 Cl      1  LIG1       -0.0822
     23 C           2.1630   -2.0170    0.0000 C.ar    1  LIG1        0.0111
     24 C           1.1790   -1.8170    0.0000 C.ar    1  LIG1       -0.0015
@<TRIPOS>BOND
     1     1     2   ar
     2     1     5   ar
     3     1    17    1
     4     2     3   ar
     5     3     4   ar
     6     3    10    1
     7     4     5   ar
     8     4     9   ar
     9     5     6   ar
    10     6     7   ar
    11     7     8   ar
    12     8     9   ar
    13    10    11    1
    14    11    12    1
    15    12    13    2
    16    12    14    1
    17    14    15    1
    18    15    16    1
    19    17    18    1
    20    18    19   ar
    21    18    24   ar
    22    19    20   ar
    23    20    21   ar
    24    21    22    1
    25    21    23   ar
    26    23    24   ar
