@<TRIPOS>MOLECULE
34446_ChemDiv_8015-8059
 21 23 0 0 0
SMALL
GASTEIGER
Energy = 0

@<TRIPOS>ATOM
      1 C          -0.0040   -0.7500    0.0000 C.2     1  LIG1        0.0471
      2 C          -0.0040   -1.7420    0.0000 C.2     1  LIG1        0.1249
      3 O           0.8630   -2.2500    0.0000 O.3     1  LIG1       -0.4287
      4 C           1.7290   -1.7420    0.0000 C.2     1  LIG1        0.3218
      5 C           1.7290   -0.7500    0.0000 C.3     1  LIG1        0.1188
      6 C           0.8630   -0.2500    0.0000 C.3     1  LIG1        0.0612
      7 C           0.8630    0.7460    0.0000 C.ar    1  LIG1       -0.0168
      8 C           1.7290    1.2460    0.0000 C.ar    1  LIG1        0.0075
      9 C           1.7290    2.2540    0.0000 C.ar    1  LIG1        0.0574
     10 CL          2.5920    2.7540    0.0000 Cl      1  LIG1       -0.0823
     11 C           0.8630    2.7460    0.0000 C.ar    1  LIG1        0.0114
     12 C          -0.0040    2.2540    0.0000 C.ar    1  LIG1        0.0006
     13 C          -0.0040    1.2460    0.0000 C.ar    1  LIG1       -0.0039
     14 O           2.5920   -2.2500    0.0000 O.2     1  LIG1       -0.2497
     15 C          -0.8670   -2.2500    0.0000 C.3     1  LIG1        0.0648
     16 C          -1.7290   -1.7420    0.0000 C.3     1  LIG1        0.0144
     17 C          -1.7290   -0.7500    0.0000 C.3     1  LIG1        0.0693
     18 C          -0.8670   -0.2500    0.0000 C.2     1  LIG1        0.1720
     19 O          -0.8670    0.7460    0.0000 O.2     1  LIG1       -0.2916
     20 C          -1.7290   -2.7500    0.0000 C.3     1  LIG1        0.0009
     21 C          -2.5960   -1.2500    0.0000 C.3     1  LIG1        0.0009
@<TRIPOS>BOND
     1     1     2    2
     2     1     6    1
     3     1    18    1
     4     2     3    1
     5     2    15    1
     6     3     4    1
     7     4     5    1
     8     4    14    2
     9     5     6    1
    10     6     7    1
    11     7     8   ar
    12     7    13   ar
    13     8     9   ar
    14     9    10    1
    15     9    11   ar
    16    11    12   ar
    17    12    13   ar
    18    15    16    1
    19    16    17    1
    20    16    20    1
    21    16    21    1
    22    17    18    1
    23    18    19    2
