@<TRIPOS>MOLECULE
34441_ChemDiv_8014-2248
 15 16 0 0 0
SMALL
GASTEIGER
Energy = 0

@<TRIPOS>ATOM
      1 S           1.6670    0.7000    0.0000 S.2     1  LIG1       -0.0274
      2 C           1.0750   -0.1080    0.0000 C.ar    1  LIG1        0.1349
      3 N           1.6670   -0.9170    0.0000 N.ar    1  LIG1       -0.1395
      4 N           2.6130   -0.6130    0.0000 N.ar    1  LIG1       -0.1222
      5 C           2.6210    0.3920    0.0000 C.ar    1  LIG1        0.2222
      6 N           3.4290    0.9790    0.0000 N.pl3   1  LIG1       -0.0979
      7 C           0.0710   -0.1080    0.0000 C.ar    1  LIG1        0.0257
      8 C          -0.4210    0.7580    0.0000 C.ar    1  LIG1        0.0021
      9 C          -1.4170    0.7580    0.0000 C.ar    1  LIG1        0.0012
     10 C          -1.9130   -0.1040    0.0000 C.ar    1  LIG1        0.0140
     11 C          -2.9170   -0.0960    0.0000 C.2     1  LIG1        0.0729
     12 O          -3.4170    0.7710    0.0000 O.co2   1  LIG1       -0.5446
     13 O          -3.4330   -0.9630    0.0000 O.co2   1  LIG1       -0.5446
     14 C          -1.4330   -0.9750    0.0000 C.ar    1  LIG1        0.0012
     15 C          -0.4290   -0.9750    0.0000 C.ar    1  LIG1        0.0021
@<TRIPOS>BOND
     1     1     2   ar
     2     1     5   ar
     3     2     3   ar
     4     2     7    1
     5     3     4   ar
     6     4     5   ar
     7     5     6    1
     8     7     8   ar
     9     7    15   ar
    10     8     9   ar
    11     9    10   ar
    12    10    11    1
    13    10    14   ar
    14    11    12   ar
    15    11    13   ar
    16    14    15   ar
