@<TRIPOS>MOLECULE
34448_ChemDiv_8015-8061
 23 25 0 0 0
SMALL
GASTEIGER
Energy = 0

@<TRIPOS>ATOM
      1 C          -0.4380   -1.2580    0.0000 C.2     1  LIG1        0.0471
      2 C          -0.4380   -2.2540    0.0000 C.2     1  LIG1        0.1249
      3 O           0.4290   -2.7540    0.0000 O.3     1  LIG1       -0.4287
      4 C           1.2920   -2.2540    0.0000 C.2     1  LIG1        0.3218
      5 C           1.2920   -1.2580    0.0000 C.3     1  LIG1        0.1188
      6 C           0.4290   -0.7580    0.0000 C.3     1  LIG1        0.0613
      7 C           0.4290    0.2460    0.0000 C.ar    1  LIG1       -0.0145
      8 C           1.2920    0.7500    0.0000 C.ar    1  LIG1        0.0363
      9 C           1.2920    1.7500    0.0000 C.ar    1  LIG1        0.1771
     10 C           0.4290    2.2500    0.0000 C.ar    1  LIG1        0.2293
     11 C          -0.4380    1.7500    0.0000 C.ar    1  LIG1        0.0449
     12 C          -0.4380    0.7500    0.0000 C.ar    1  LIG1       -0.0005
     13 O           0.4290    3.2580    0.0000 O.3     1  LIG1       -0.2833
     14 O           2.1630    2.2500    0.0000 O.3     1  LIG1       -0.4682
     15 C           3.0290    1.7500    0.0000 C.3     1  LIG1        0.2526
     16 O           2.1540   -2.7540    0.0000 O.2     1  LIG1       -0.2497
     17 C          -1.3000   -2.7540    0.0000 C.3     1  LIG1        0.0648
     18 C          -2.1710   -2.2540    0.0000 C.3     1  LIG1        0.0144
     19 C          -2.1710   -1.2580    0.0000 C.3     1  LIG1        0.0693
     20 C          -1.3000   -0.7580    0.0000 C.2     1  LIG1        0.1720
     21 O          -1.3000    0.2460    0.0000 O.2     1  LIG1       -0.2916
     22 C          -2.1710   -3.2540    0.0000 C.3     1  LIG1        0.0009
     23 C          -3.0330   -1.7540    0.0000 C.3     1  LIG1        0.0009
@<TRIPOS>BOND
     1     1     2    2
     2     1     6    1
     3     1    20    1
     4     2     3    1
     5     2    17    1
     6     3     4    1
     7     4     5    1
     8     4    16    2
     9     5     6    1
    10     6     7    1
    11     7     8   ar
    12     7    12   ar
    13     8     9   ar
    14     9    10   ar
    15     9    14    1
    16    10    11   ar
    17    10    13    1
    18    11    12   ar
    19    14    15    1
    20    17    18    1
    21    18    19    1
    22    18    22    1
    23    18    23    1
    24    19    20    1
    25    20    21    2
