@<TRIPOS>MOLECULE
34442_ChemDiv_8015-8057
 22 24 0 0 0
SMALL
GASTEIGER
Energy = 0

@<TRIPOS>ATOM
      1 C          -0.4380   -0.7540    0.0000 C.2     1  LIG1        0.0472
      2 C          -0.4380   -1.7460    0.0000 C.2     1  LIG1        0.1249
      3 O           0.4290   -2.2460    0.0000 O.3     1  LIG1       -0.4287
      4 C           1.2920   -1.7460    0.0000 C.2     1  LIG1        0.3218
      5 C           1.2920   -0.7540    0.0000 C.3     1  LIG1        0.1189
      6 C           0.4290   -0.2540    0.0000 C.3     1  LIG1        0.0641
      7 C           0.4290    0.7500    0.0000 C.ar    1  LIG1        0.0163
      8 C           1.2920    1.2500    0.0000 C.ar    1  LIG1        0.1350
      9 O           2.1670    0.7500    0.0000 O.3     1  LIG1       -0.4717
     10 C           3.0330    1.2500    0.0000 C.3     1  LIG1        0.2525
     11 C           1.2920    2.2500    0.0000 C.ar    1  LIG1        0.0366
     12 C           0.4290    2.7500    0.0000 C.ar    1  LIG1        0.0031
     13 C          -0.4380    2.2500    0.0000 C.ar    1  LIG1       -0.0001
     14 C          -0.4380    1.2500    0.0000 C.ar    1  LIG1       -0.0009
     15 O           2.1670   -2.2460    0.0000 O.2     1  LIG1       -0.2497
     16 C          -1.3000   -2.2460    0.0000 C.3     1  LIG1        0.0648
     17 C          -2.1750   -1.7460    0.0000 C.3     1  LIG1        0.0144
     18 C          -2.1750   -0.7540    0.0000 C.3     1  LIG1        0.0693
     19 C          -1.3000   -0.2540    0.0000 C.2     1  LIG1        0.1720
     20 O          -1.3000    0.7500    0.0000 O.2     1  LIG1       -0.2916
     21 C          -3.0380   -1.2460    0.0000 C.3     1  LIG1        0.0009
     22 C          -2.1750   -2.7460    0.0000 C.3     1  LIG1        0.0009
@<TRIPOS>BOND
     1     1     2    2
     2     1     6    1
     3     1    19    1
     4     2     3    1
     5     2    16    1
     6     3     4    1
     7     4     5    1
     8     4    15    2
     9     5     6    1
    10     6     7    1
    11     7     8   ar
    12     7    14   ar
    13     8     9    1
    14     8    11   ar
    15     9    10    1
    16    11    12   ar
    17    12    13   ar
    18    13    14   ar
    19    16    17    1
    20    17    18    1
    21    17    21    1
    22    17    22    1
    23    18    19    1
    24    19    20    2
