@<TRIPOS>MOLECULE
34445_ChemDiv_8014-2469
 28 30 0 0 0
SMALL
GASTEIGER
Energy = 0

@<TRIPOS>ATOM
      1 C          -2.2080   -1.7880    0.0000 C.2     1  LIG1        0.3278
      2 N          -2.2080   -0.7920    0.0000 N.am    1  LIG1       -0.2558
      3 C          -1.4000   -0.2000    0.0000 C.3     1  LIG1        0.1548
      4 C          -0.5330   -0.7040    0.0000 C.2     1  LIG1        0.2598
      5 N           0.3330   -0.2000    0.0000 N.am    1  LIG1       -0.1992
      6 C           1.2000   -0.7040    0.0000 C.3     1  LIG1        0.1415
      7 C           2.0670   -0.2000    0.0000 C.ar    1  LIG1       -0.0006
      8 C           2.0670    0.7960    0.0000 C.ar    1  LIG1       -0.0029
      9 C           2.9290    1.2920    0.0000 C.ar    1  LIG1       -0.0046
     10 C           3.8000    0.7960    0.0000 C.ar    1  LIG1       -0.0228
     11 C           4.6630    1.2920    0.0000 C.3     1  LIG1        0.0189
     12 C           5.6670    1.2920    0.0000 C.3     1  LIG1        0.0044
     13 C           4.6630    2.2960    0.0000 C.3     1  LIG1        0.0044
     14 C           5.5330    0.7960    0.0000 C.3     1  LIG1        0.0044
     15 C           3.8000   -0.2000    0.0000 C.ar    1  LIG1       -0.0046
     16 C           2.9290   -0.7040    0.0000 C.ar    1  LIG1       -0.0029
     17 O          -0.5330   -1.7000    0.0000 O.2     1  LIG1       -0.2715
     18 C          -1.7080    0.7500    0.0000 C.3     1  LIG1        0.0311
     19 C          -2.7040    0.7500    0.0000 C.3     1  LIG1        0.0238
     20 C          -3.0170   -0.2000    0.0000 C.3     1  LIG1        0.0955
     21 N          -3.0710   -2.2920    0.0000 N.am    1  LIG1       -0.1622
     22 C          -3.9420   -1.7880    0.0000 C.ar    1  LIG1        0.0749
     23 C          -3.9420   -0.7920    0.0000 C.ar    1  LIG1        0.0166
     24 C          -4.8040   -0.2920    0.0000 C.ar    1  LIG1        0.0013
     25 C          -5.6710   -0.7920    0.0000 C.ar    1  LIG1        0.0001
     26 C          -5.6710   -1.7880    0.0000 C.ar    1  LIG1        0.0013
     27 C          -4.8040   -2.2920    0.0000 C.ar    1  LIG1        0.0166
     28 O          -1.3420   -2.2880    0.0000 O.2     1  LIG1       -0.2504
@<TRIPOS>BOND
     1     1     2   am
     2     1    21   am
     3     1    28    2
     4     2     3    1
     5     2    20    1
     6     3     4    1
     7     3    18    1
     8     4     5   am
     9     4    17    2
    10     5     6    1
    11     6     7    1
    12     7     8   ar
    13     7    16   ar
    14     8     9   ar
    15     9    10   ar
    16    10    11    1
    17    10    15   ar
    18    11    12    1
    19    11    13    1
    20    11    14    1
    21    15    16   ar
    22    18    19    1
    23    19    20    1
    24    21    22    1
    25    22    23   ar
    26    22    27   ar
    27    23    24   ar
    28    24    25   ar
    29    25    26   ar
    30    26    27   ar
