@<TRIPOS>MOLECULE
34444_ChemDiv_8015-8058
 24 26 0 0 0
SMALL
GASTEIGER
Energy = 0

@<TRIPOS>ATOM
      1 C          -0.4380   -1.5080    0.0000 C.2     1  LIG1        0.0472
      2 C          -0.4380   -2.5040    0.0000 C.2     1  LIG1        0.1249
      3 O           0.4290   -3.0040    0.0000 O.3     1  LIG1       -0.4287
      4 C           1.2920   -2.5040    0.0000 C.2     1  LIG1        0.3218
      5 C           1.2920   -1.5080    0.0000 C.3     1  LIG1        0.1189
      6 C           0.4290   -1.0080    0.0000 C.3     1  LIG1        0.0641
      7 C           0.4290   -0.0040    0.0000 C.ar    1  LIG1        0.0165
      8 C           1.2920    0.5000    0.0000 C.ar    1  LIG1        0.1380
      9 C           1.2920    1.5000    0.0000 C.ar    1  LIG1        0.0734
     10 C           0.4290    1.9960    0.0000 C.ar    1  LIG1        0.1417
     11 C          -0.4380    1.5000    0.0000 C.ar    1  LIG1        0.0368
     12 C          -0.4380    0.5000    0.0000 C.ar    1  LIG1        0.0022
     13 O           0.4290    3.0080    0.0000 O.3     1  LIG1       -0.4713
     14 C           1.2920    3.5080    0.0000 C.3     1  LIG1        0.2525
     15 O           2.1630   -0.0040    0.0000 O.3     1  LIG1       -0.4716
     16 C           3.0290    0.5000    0.0000 C.3     1  LIG1        0.2525
     17 O           2.1630   -3.0040    0.0000 O.2     1  LIG1       -0.2497
     18 C          -1.3000   -3.0040    0.0000 C.3     1  LIG1        0.0648
     19 C          -2.1710   -2.5040    0.0000 C.3     1  LIG1        0.0144
     20 C          -2.1710   -1.5080    0.0000 C.3     1  LIG1        0.0693
     21 C          -1.3000   -1.0080    0.0000 C.2     1  LIG1        0.1720
     22 O          -1.3000   -0.0040    0.0000 O.2     1  LIG1       -0.2916
     23 C          -2.1710   -3.5040    0.0000 C.3     1  LIG1        0.0009
     24 C          -3.0330   -2.0040    0.0000 C.3     1  LIG1        0.0009
@<TRIPOS>BOND
     1     1     2    2
     2     1     6    1
     3     1    21    1
     4     2     3    1
     5     2    18    1
     6     3     4    1
     7     4     5    1
     8     4    17    2
     9     5     6    1
    10     6     7    1
    11     7     8   ar
    12     7    12   ar
    13     8     9   ar
    14     8    15    1
    15     9    10   ar
    16    10    11   ar
    17    10    13    1
    18    11    12   ar
    19    13    14    1
    20    15    16    1
    21    18    19    1
    22    19    20    1
    23    19    23    1
    24    19    24    1
    25    20    21    1
    26    21    22    2
