@<TRIPOS>MOLECULE
34450_ChemDiv_8015-6374
 15 16 0 0 0
SMALL
GASTEIGER
Energy = 0

@<TRIPOS>ATOM
      1 N           0.1670   -0.8040    0.0000 N.ar    1  LIG1       -0.1273
      2 C          -0.8130   -0.8170    0.0000 C.ar    1  LIG1        0.2059
      3 N          -1.1080   -1.7670    0.0000 N.ar    1  LIG1       -0.1077
      4 N          -0.2960   -2.3290    0.0000 N.ar    1  LIG1       -0.0427
      5 N           0.4920   -1.7380    0.0000 N.ar    1  LIG1       -0.1195
      6 C           1.2790   -1.1540    0.0000 C.3     1  LIG1        0.2961
      7 O           2.3170   -1.7750    0.0000 O.3     1  LIG1       -0.3271
      8 C           3.1790   -1.2880    0.0000 C.3     1  LIG1        0.1765
      9 C          -1.4080   -0.0290    0.0000 C.ar    1  LIG1        0.0394
     10 C          -1.0210    0.8750    0.0000 C.ar    1  LIG1        0.0040
     11 C          -1.6130    1.6630    0.0000 C.ar    1  LIG1        0.0115
     12 C          -2.5880    1.5500    0.0000 C.ar    1  LIG1        0.0577
     13 C          -2.9830    0.6380    0.0000 C.ar    1  LIG1        0.0115
     14 C          -2.3880   -0.1500    0.0000 C.ar    1  LIG1        0.0040
     15 CL         -3.1830    2.3330    0.0000 Cl      1  LIG1       -0.0822
@<TRIPOS>BOND
     1     1     2   ar
     2     1     5   ar
     3     2     3   ar
     4     2     9    1
     5     3     4   ar
     6     4     5   ar
     7     5     6    1
     8     6     7    1
     9     7     8    1
    10     9    10   ar
    11     9    14   ar
    12    10    11   ar
    13    11    12   ar
    14    12    13   ar
    15    12    15    1
    16    13    14   ar
