@<TRIPOS>MOLECULE
34455_ChemDiv_8015-0735
 35 38 0 0 0
SMALL
GASTEIGER
Energy = 0

@<TRIPOS>ATOM
      1 S           1.7290    1.6540    0.0000 S.O2    1  LIG1       -0.0520
      2 C           2.6000    2.1540    0.0000 C.ar    1  LIG1        0.1191
      3 S           3.5170    1.7500    0.0000 S.2     1  LIG1       -0.0633
      4 C           4.1830    2.4880    0.0000 C.ar    1  LIG1        0.0650
      5 C           3.6830    3.3540    0.0000 C.ar    1  LIG1        0.0151
      6 C           2.7040    3.1460    0.0000 C.ar    1  LIG1        0.0246
      7 BR          5.1880    2.4880    0.0000 Br      1  LIG1       -0.0419
      8 N           0.8670    1.1580    0.0000 N.pl3   1  LIG1       -0.5355
      9 C           0.8670    0.1500    0.0000 C.ar    1  LIG1       -0.1127
     10 C          -0.0040   -0.3500    0.0000 C.ar    1  LIG1       -0.0351
     11 C          -0.8670    0.1500    0.0000 C.3     1  LIG1        0.0703
     12 C          -0.8670    1.1580    0.0000 C.ar    1  LIG1        0.0634
     13 C          -1.7330    1.6540    0.0000 C.ar    1  LIG1        0.0171
     14 C          -2.5960    1.1580    0.0000 C.ar    1  LIG1        0.0412
     15 C          -3.4630    1.6540    0.0000 C.ar    1  LIG1        0.1724
     16 C          -3.4630    2.6500    0.0000 C.ar    1  LIG1        0.1724
     17 C          -2.5960    3.1540    0.0000 C.ar    1  LIG1        0.0401
     18 C          -1.7330    2.6500    0.0000 C.ar    1  LIG1        0.0059
     19 C          -0.8670    3.1540    0.0000 C.ar    1  LIG1        0.0208
     20 C          -0.0040    2.6500    0.0000 C.ar    1  LIG1        0.0985
     21 N          -0.0040    1.6540    0.0000 N.ar    1  LIG1       -0.2478
     22 O          -4.3290    3.1540    0.0000 O.3     1  LIG1       -0.4684
     23 C          -5.1920    2.6500    0.0000 C.3     1  LIG1        0.2526
     24 O          -4.3290    1.1580    0.0000 O.3     1  LIG1       -0.4684
     25 C          -5.1920    1.6540    0.0000 C.3     1  LIG1        0.2526
     26 C          -0.0040   -1.3500    0.0000 C.ar    1  LIG1        0.0344
     27 C           0.8670   -1.8500    0.0000 C.ar    1  LIG1        0.1720
     28 C           1.7380   -1.3500    0.0000 C.ar    1  LIG1        0.1706
     29 C           1.7380   -0.3500    0.0000 C.ar    1  LIG1        0.0159
     30 O           2.6000   -1.8500    0.0000 O.3     1  LIG1       -0.4684
     31 C           3.4710   -1.3500    0.0000 C.3     1  LIG1        0.2526
     32 O           0.8670   -2.8500    0.0000 O.3     1  LIG1       -0.4684
     33 C           1.7290   -3.3500    0.0000 C.3     1  LIG1        0.2526
     34 O           2.2330    0.7880    0.0000 O.2     1  LIG1       -0.1837
     35 O           1.2330    2.5170    0.0000 O.2     1  LIG1       -0.1837
@<TRIPOS>BOND
     1     1     2    1
     2     1     8    1
     3     1    34    2
     4     1    35    2
     5     2     3   ar
     6     2     6   ar
     7     3     4   ar
     8     4     5   ar
     9     4     7    1
    10     5     6   ar
    11     8     9    1
    12     9    10   ar
    13     9    29   ar
    14    10    11    1
    15    10    26   ar
    16    11    12    1
    17    12    13   ar
    18    12    21   ar
    19    13    14   ar
    20    13    18   ar
    21    14    15   ar
    22    15    16   ar
    23    15    24    1
    24    16    17   ar
    25    16    22    1
    26    17    18   ar
    27    18    19   ar
    28    19    20   ar
    29    20    21   ar
    30    22    23    1
    31    24    25    1
    32    26    27   ar
    33    27    28   ar
    34    27    32    1
    35    28    29   ar
    36    28    30    1
    37    30    31    1
    38    32    33    1
