@<TRIPOS>MOLECULE
34457_ChemDiv_8015-0739
 22 24 0 0 0
SMALL
GASTEIGER
Energy = 0

@<TRIPOS>ATOM
      1 C           0.0000    0.7250    0.0000 C.ar    1  LIG1        0.0973
      2 C           0.0000   -0.2420    0.0000 C.ar    1  LIG1        0.1585
      3 N          -0.8420   -0.7250    0.0000 N.ar    1  LIG1       -0.2804
      4 C          -1.6830   -0.2420    0.0000 C.ar    1  LIG1        0.1324
      5 S          -1.6830    0.7250    0.0000 S.2     1  LIG1       -0.0565
      6 S          -2.5250   -0.7250    0.0000 S.2     1  LIG1       -0.0244
      7 C          -0.8420   -1.6960    0.0000 C.ar    1  LIG1        0.0663
      8 C          -1.6830   -2.1830    0.0000 C.ar    1  LIG1        0.0176
      9 C          -1.6830   -3.1540    0.0000 C.ar    1  LIG1        0.0015
     10 C          -0.8420   -3.6380    0.0000 C.ar    1  LIG1        0.0001
     11 C           0.0000   -3.1540    0.0000 C.ar    1  LIG1        0.0015
     12 C           0.0000   -2.1830    0.0000 C.ar    1  LIG1        0.0176
     13 N           0.8380   -0.7250    0.0000 N.ar    1  LIG1       -0.2126
     14 C           1.6790   -0.2420    0.0000 C.ar    1  LIG1        0.1426
     15 N           1.6790    0.7250    0.0000 N.ar    1  LIG1       -0.2154
     16 C           0.8380    1.2130    0.0000 C.ar    1  LIG1        0.1420
     17 N           0.8380    2.1830    0.0000 N.pl3   1  LIG1       -0.2927
     18 C           0.0000    2.6710    0.0000 C.3     1  LIG1        0.0922
     19 C           0.0000    3.6420    0.0000 C.3     1  LIG1        0.0232
     20 C           1.6790    2.6710    0.0000 C.3     1  LIG1        0.0922
     21 C           1.6790    3.6420    0.0000 C.3     1  LIG1        0.0232
     22 C           2.5210   -0.7250    0.0000 C.3     1  LIG1        0.0738
@<TRIPOS>BOND
     1     1     2   ar
     2     1     5   ar
     3     1    16   ar
     4     2     3   ar
     5     2    13   ar
     6     3     4   ar
     7     3     7    1
     8     4     5   ar
     9     4     6    2
    10     7     8   ar
    11     7    12   ar
    12     8     9   ar
    13     9    10   ar
    14    10    11   ar
    15    11    12   ar
    16    13    14   ar
    17    14    15   ar
    18    14    22    1
    19    15    16   ar
    20    16    17    1
    21    17    18    1
    22    17    20    1
    23    18    19    1
    24    20    21    1
