@<TRIPOS>MOLECULE
34452_ChemDiv_8018-0903
 14 15 0 0 0
SMALL
GASTEIGER
Energy = 0

@<TRIPOS>ATOM
      1 N           0.2210   -0.0170    0.0000 N.ar    1  LIG1       -0.1287
      2 C          -0.6960    0.4000    0.0000 C.ar    1  LIG1        0.2059
      3 N          -0.5880    1.3960    0.0000 N.ar    1  LIG1       -0.1077
      4 N           0.3960    1.6000    0.0000 N.ar    1  LIG1       -0.0440
      5 N           0.8920    0.7330    0.0000 N.ar    1  LIG1       -0.1351
      6 C           1.8830    0.6210    0.0000 C.3     1  LIG1        0.2553
      7 C           2.2920   -0.2960    0.0000 C.1     1  LIG1        0.1023
      8 N           3.2830   -0.4040    0.0000 N.1     1  LIG1       -0.1937
      9 C          -1.5630   -0.1000    0.0000 C.ar    1  LIG1        0.0424
     10 C          -1.5630   -1.1040    0.0000 C.ar    1  LIG1        0.0238
     11 C          -2.4250   -1.5960    0.0000 C.ar    1  LIG1        0.0990
     12 N          -3.2880   -1.1040    0.0000 N.ar    1  LIG1       -0.2423
     13 C          -3.2880   -0.1000    0.0000 C.ar    1  LIG1        0.0990
     14 C          -2.4250    0.4080    0.0000 C.ar    1  LIG1        0.0238
@<TRIPOS>BOND
     1     1     2   ar
     2     1     5   ar
     3     2     3   ar
     4     2     9    1
     5     3     4   ar
     6     4     5   ar
     7     5     6    1
     8     6     7    1
     9     7     8    3
    10     9    10   ar
    11     9    14   ar
    12    10    11   ar
    13    11    12   ar
    14    12    13   ar
    15    13    14   ar
