@<TRIPOS>MOLECULE
34459_ChemDiv_8015-0777
 22 24 0 0 0
SMALL
GASTEIGER
Energy = 0

@<TRIPOS>ATOM
      1 S           0.5210   -1.2960    0.0000 S.O2    1  LIG1        0.0769
      2 C           1.0210   -0.4330    0.0000 C.ar    1  LIG1        0.1236
      3 C           2.0210   -0.4330    0.0000 C.ar    1  LIG1        0.0200
      4 C           2.5210    0.4380    0.0000 C.ar    1  LIG1        0.0013
      5 C           2.0210    1.3000    0.0000 C.ar    1  LIG1        0.0001
      6 C           1.0210    1.3000    0.0000 C.ar    1  LIG1        0.0014
      7 C           0.5210    0.4380    0.0000 C.ar    1  LIG1        0.0200
      8 C           2.5210    2.1670    0.0000 C.ar    1  LIG1        0.0000
      9 C           3.5170    2.1670    0.0000 C.ar    1  LIG1        0.0000
     10 C           4.0130    1.3000    0.0000 C.ar    1  LIG1        0.0000
     11 C           3.5170    0.4380    0.0000 C.ar    1  LIG1        0.0000
     12 O          -0.3460   -0.7920    0.0000 O.2     1  LIG1       -0.1516
     13 O           1.3830   -1.7960    0.0000 O.2     1  LIG1       -0.1516
     14 N           0.0210   -2.1630    0.0000 N.3     1  LIG1       -0.0760
     15 C          -0.9790   -2.1630    0.0000 C.3     1  LIG1        0.1369
     16 C          -1.4790   -1.2960    0.0000 C.3     1  LIG1        0.1158
     17 N          -2.4790   -1.2960    0.0000 N.am    1  LIG1       -0.2595
     18 C          -3.0630   -0.4830    0.0000 C.2     1  LIG1        0.3234
     19 N          -4.0170   -0.7920    0.0000 N.am    1  LIG1       -0.1866
     20 C          -4.0170   -1.7960    0.0000 C.3     1  LIG1        0.1383
     21 C          -3.0630   -2.1040    0.0000 C.3     1  LIG1        0.1185
     22 O          -2.5670    0.3790    0.0000 O.2     1  LIG1       -0.2508
@<TRIPOS>BOND
     1     1     2    1
     2     1    12    2
     3     1    13    2
     4     1    14    1
     5     2     3   ar
     6     2     7   ar
     7     3     4   ar
     8     4     5   ar
     9     4    11   ar
    10     5     6   ar
    11     5     8   ar
    12     6     7   ar
    13     8     9   ar
    14     9    10   ar
    15    10    11   ar
    16    14    15    1
    17    15    16    1
    18    16    17    1
    19    17    18   am
    20    17    21    1
    21    18    19   am
    22    18    22    2
    23    19    20    1
    24    20    21    1
