@<TRIPOS>MOLECULE
34461_ChemDiv_8015-0801
 16 18 0 0 0
SMALL
GASTEIGER
Energy = 0

@<TRIPOS>ATOM
      1 O           0.4330   -0.9670    0.0000 O.3     1  LIG1       -0.4506
      2 C          -0.4710   -0.5330    0.0000 C.ar    1  LIG1        0.1450
      3 C          -0.6880    0.4420    0.0000 C.ar    1  LIG1        0.0570
      4 C          -0.0670    1.2210    0.0000 C.3     1  LIG1        0.2352
      5 O           0.9290    1.2210    0.0000 O.3     1  LIG1       -0.4675
      6 C           1.5540    0.4420    0.0000 C.ar    1  LIG1        0.1733
      7 C           1.3330   -0.5330    0.0000 C.ar    1  LIG1        0.1789
      8 C           2.0670   -1.2170    0.0000 C.ar    1  LIG1        0.0406
      9 C           3.0250   -0.9210    0.0000 C.ar    1  LIG1        0.0033
     10 C           3.2460    0.0540    0.0000 C.ar    1  LIG1        0.0033
     11 C           2.5130    0.7330    0.0000 C.ar    1  LIG1        0.0401
     12 C          -1.6460    0.7330    0.0000 C.ar    1  LIG1        0.0204
     13 C          -2.3830    0.0540    0.0000 C.ar    1  LIG1        0.0891
     14 N          -3.2500    0.5540    0.0000 N.pl3   1  LIG1       -0.1281
     15 C          -2.1580   -0.9210    0.0000 C.ar    1  LIG1        0.0212
     16 C          -1.2040   -1.2170    0.0000 C.ar    1  LIG1        0.0387
@<TRIPOS>BOND
     1     1     2    1
     2     1     7    1
     3     2     3   ar
     4     2    16   ar
     5     3     4    1
     6     3    12   ar
     7     4     5    1
     8     5     6    1
     9     6     7   ar
    10     6    11   ar
    11     7     8   ar
    12     8     9   ar
    13     9    10   ar
    14    10    11   ar
    15    12    13   ar
    16    13    14    1
    17    13    15   ar
    18    15    16   ar
