@<TRIPOS>MOLECULE
34466_ChemDiv_8015-8063
 22 24 0 0 0
SMALL
GASTEIGER
Energy = 0

@<TRIPOS>ATOM
      1 C          -0.0080   -1.5040    0.0000 C.2     1  LIG1        0.0471
      2 C          -0.0080   -2.5000    0.0000 C.2     1  LIG1        0.1249
      3 O           0.8670   -3.0000    0.0000 O.3     1  LIG1       -0.4287
      4 C           1.7290   -2.5000    0.0000 C.2     1  LIG1        0.3218
      5 C           1.7290   -1.5040    0.0000 C.3     1  LIG1        0.1188
      6 C           0.8670   -1.0040    0.0000 C.3     1  LIG1        0.0612
      7 C           0.8670   -0.0040    0.0000 C.ar    1  LIG1       -0.0177
      8 C           1.7290    0.4960    0.0000 C.ar    1  LIG1       -0.0043
      9 C           1.7290    1.4960    0.0000 C.ar    1  LIG1       -0.0046
     10 C           0.8670    1.9960    0.0000 C.ar    1  LIG1       -0.0222
     11 C          -0.0080    1.4960    0.0000 C.ar    1  LIG1       -0.0046
     12 C          -0.0080    0.4960    0.0000 C.ar    1  LIG1       -0.0043
     13 C           0.8670    3.0040    0.0000 C.3     1  LIG1        0.0264
     14 C          -0.0080    3.5040    0.0000 C.3     1  LIG1        0.0050
     15 O           2.5920   -3.0000    0.0000 O.2     1  LIG1       -0.2497
     16 C          -0.8670   -3.0000    0.0000 C.3     1  LIG1        0.0648
     17 C          -1.7290   -2.5000    0.0000 C.3     1  LIG1        0.0144
     18 C          -1.7290   -1.5040    0.0000 C.3     1  LIG1        0.0693
     19 C          -0.8670   -1.0040    0.0000 C.2     1  LIG1        0.1720
     20 O          -0.8670   -0.0040    0.0000 O.2     1  LIG1       -0.2916
     21 C          -1.7290   -3.5000    0.0000 C.3     1  LIG1        0.0009
     22 C          -2.5960   -2.0000    0.0000 C.3     1  LIG1        0.0009
@<TRIPOS>BOND
     1     1     2    2
     2     1     6    1
     3     1    19    1
     4     2     3    1
     5     2    16    1
     6     3     4    1
     7     4     5    1
     8     4    15    2
     9     5     6    1
    10     6     7    1
    11     7     8   ar
    12     7    12   ar
    13     8     9   ar
    14     9    10   ar
    15    10    11   ar
    16    10    13    1
    17    11    12   ar
    18    13    14    1
    19    16    17    1
    20    17    18    1
    21    17    21    1
    22    17    22    1
    23    18    19    1
    24    19    20    2
