@<TRIPOS>MOLECULE
34460_ChemDiv_8015-3792
 27 29 0 0 0
SMALL
GASTEIGER
Energy = 0

@<TRIPOS>ATOM
      1 C           3.2380   -0.8210    0.0000 C.ar    1  LIG1        0.1687
      2 C           2.6460   -1.6330    0.0000 C.ar    1  LIG1        0.0911
      3 C           1.6540   -1.5290    0.0000 C.2     1  LIG1        0.2678
      4 O           1.0670   -2.3330    0.0000 O.2     1  LIG1       -0.2683
      5 N           1.3460   -0.5790    0.0000 N.am    1  LIG1       -0.2012
      6 C           0.4290   -0.1710    0.0000 C.3     1  LIG1        0.1201
      7 C          -0.3170   -0.8420    0.0000 C.3     1  LIG1        0.0499
      8 C          -1.1790   -0.3420    0.0000 C.ar    1  LIG1       -0.0172
      9 C          -1.1790    0.6630    0.0000 C.ar    1  LIG1        0.0358
     10 C          -2.0420    1.1630    0.0000 C.ar    1  LIG1        0.1719
     11 C          -2.9130    0.6630    0.0000 C.ar    1  LIG1        0.1722
     12 C          -2.9130   -0.3420    0.0000 C.ar    1  LIG1        0.0397
     13 C          -2.0420   -0.8420    0.0000 C.ar    1  LIG1       -0.0009
     14 O          -3.7750    1.1630    0.0000 O.3     1  LIG1       -0.4724
     15 C          -4.6420    0.6500    0.0000 C.3     1  LIG1        0.2057
     16 C          -4.6250   -0.3460    0.0000 C.3     1  LIG1        0.0512
     17 O          -2.0420    2.1630    0.0000 O.3     1  LIG1       -0.4724
     18 C          -2.9210    2.6580    0.0000 C.3     1  LIG1        0.2057
     19 C          -3.7750    2.1460    0.0000 C.3     1  LIG1        0.0512
     20 C           3.0580   -2.5460    0.0000 C.ar    1  LIG1        0.0077
     21 C           4.0500   -2.6540    0.0000 C.ar    1  LIG1        0.0019
     22 C           4.6380   -1.8420    0.0000 C.ar    1  LIG1        0.0223
     23 C           4.2330   -0.9290    0.0000 C.ar    1  LIG1        0.1187
     24 N           4.6380   -0.0130    0.0000 N.ar    1  LIG1       -0.2121
     25 C           3.9000    0.6580    0.0000 C.ar    1  LIG1        0.2062
     26 O           3.0330    0.1580    0.0000 O.2     1  LIG1       -0.4382
     27 C           4.0000    1.6500    0.0000 C.3     1  LIG1        0.0950
@<TRIPOS>BOND
     1     1     2   ar
     2     1    23   ar
     3     1    26   ar
     4     2     3    1
     5     2    20   ar
     6     3     4    2
     7     3     5   am
     8     5     6    1
     9     6     7    1
    10     7     8    1
    11     8     9   ar
    12     8    13   ar
    13     9    10   ar
    14    10    11   ar
    15    10    17    1
    16    11    12   ar
    17    11    14    1
    18    12    13   ar
    19    14    15    1
    20    15    16    1
    21    17    18    1
    22    18    19    1
    23    20    21   ar
    24    21    22   ar
    25    22    23   ar
    26    23    24   ar
    27    24    25   ar
    28    25    26   ar
    29    25    27    1
