@<TRIPOS>MOLECULE
34465_ChemDiv_C614-5451
 29 33 0 0 0
SMALL
GASTEIGER
Energy = 0

@<TRIPOS>ATOM
      1 N          -1.9170   -0.7210    0.0000 N.am    1  LIG1       -0.2185
      2 C          -2.8250   -0.3080    0.0000 C.2     1  LIG1        0.2554
      3 C          -3.4920   -1.0540    0.0000 C.ar    1  LIG1        0.0584
      4 C          -2.9920   -1.9210    0.0000 C.ar    1  LIG1        0.0584
      5 C          -2.0130   -1.7210    0.0000 C.2     1  LIG1        0.2554
      6 O          -1.2670   -2.3830    0.0000 O.2     1  LIG1       -0.2695
      7 C          -3.4920   -2.7880    0.0000 C.ar    1  LIG1        0.0047
      8 C          -4.4830   -2.7920    0.0000 C.ar    1  LIG1        0.0001
      9 C          -4.9960   -1.9170    0.0000 C.ar    1  LIG1        0.0001
     10 C          -4.4920   -1.0540    0.0000 C.ar    1  LIG1        0.0047
     11 O          -3.0330    0.6670    0.0000 O.2     1  LIG1       -0.2695
     12 C          -1.0420   -0.2210    0.0000 C.3     1  LIG1        0.1280
     13 C          -0.1790   -0.7170    0.0000 C.ar    1  LIG1       -0.0017
     14 C           0.6920   -0.2080    0.0000 C.ar    1  LIG1        0.0021
     15 C           1.5540   -0.7170    0.0000 C.ar    1  LIG1        0.0534
     16 C           2.4170   -0.2080    0.0000 C.ar    1  LIG1        0.2295
     17 N           3.2880   -0.7080    0.0000 N.ar    1  LIG1       -0.2098
     18 C           3.2920   -1.7170    0.0000 C.ar    1  LIG1        0.1021
     19 C           2.4250   -2.2170    0.0000 C.ar    1  LIG1        0.0209
     20 C           1.5540   -1.7210    0.0000 C.ar    1  LIG1        0.0060
     21 C           0.6920   -2.2170    0.0000 C.ar    1  LIG1       -0.0001
     22 C          -0.1790   -1.7210    0.0000 C.ar    1  LIG1       -0.0026
     23 O           2.4130    0.7920    0.0000 O.3     1  LIG1       -0.4361
     24 C           3.2750    1.3000    0.0000 C.ar    1  LIG1        0.1472
     25 C           4.1330    0.8040    0.0000 C.ar    1  LIG1        0.0376
     26 C           4.9920    1.3000    0.0000 C.ar    1  LIG1        0.0031
     27 C           4.9830    2.2960    0.0000 C.ar    1  LIG1        0.0002
     28 C           4.1210    2.7960    0.0000 C.ar    1  LIG1        0.0031
     29 C           3.2630    2.2830    0.0000 C.ar    1  LIG1        0.0376
@<TRIPOS>BOND
     1     1     2   am
     2     1     5   am
     3     1    12    1
     4     2     3    1
     5     2    11    2
     6     3     4   ar
     7     3    10   ar
     8     4     5    1
     9     4     7   ar
    10     5     6    2
    11     7     8   ar
    12     8     9   ar
    13     9    10   ar
    14    12    13    1
    15    13    14   ar
    16    13    22   ar
    17    14    15   ar
    18    15    16   ar
    19    15    20   ar
    20    16    17   ar
    21    16    23    1
    22    17    18   ar
    23    18    19   ar
    24    19    20   ar
    25    20    21   ar
    26    21    22   ar
    27    23    24    1
    28    24    25   ar
    29    24    29   ar
    30    25    26   ar
    31    26    27   ar
    32    27    28   ar
    33    28    29   ar
