@<TRIPOS>MOLECULE
34468_ChemDiv_8015-8066
 23 26 0 0 0
SMALL
GASTEIGER
Energy = 0

@<TRIPOS>ATOM
      1 C          -0.0080   -1.3830    0.0000 C.2     1  LIG1        0.0471
      2 C          -0.0080   -2.3790    0.0000 C.2     1  LIG1        0.1249
      3 O           0.8670   -2.8790    0.0000 O.3     1  LIG1       -0.4287
      4 C           1.7210   -2.3790    0.0000 C.2     1  LIG1        0.3218
      5 C           1.7210   -1.3830    0.0000 C.3     1  LIG1        0.1188
      6 C           0.8670   -0.8830    0.0000 C.3     1  LIG1        0.0613
      7 C           0.8670    0.1130    0.0000 C.ar    1  LIG1       -0.0145
      8 C           1.7210    0.6080    0.0000 C.ar    1  LIG1        0.0362
      9 C           1.7210    1.6080    0.0000 C.ar    1  LIG1        0.1761
     10 C           0.8670    2.1000    0.0000 C.ar    1  LIG1        0.1764
     11 O           1.6710    3.3750    0.0000 O.3     1  LIG1       -0.4346
     12 C           2.4210    2.9460    0.0000 C.3     1  LIG1        0.4294
     13 O           2.4330    2.0630    0.0000 O.3     1  LIG1       -0.4346
     14 C          -0.0080    1.6080    0.0000 C.ar    1  LIG1        0.0399
     15 C          -0.0080    0.6080    0.0000 C.ar    1  LIG1       -0.0006
     16 O           2.5830   -2.8790    0.0000 O.2     1  LIG1       -0.2497
     17 C          -0.8630   -2.8790    0.0000 C.3     1  LIG1        0.0648
     18 C          -1.7250   -2.3790    0.0000 C.3     1  LIG1        0.0144
     19 C          -1.7250   -1.3830    0.0000 C.3     1  LIG1        0.0693
     20 C          -0.8630   -0.8830    0.0000 C.2     1  LIG1        0.1720
     21 O          -0.8630    0.1080    0.0000 O.2     1  LIG1       -0.2916
     22 C          -1.7250   -3.3710    0.0000 C.3     1  LIG1        0.0009
     23 C          -2.5880   -1.8790    0.0000 C.3     1  LIG1        0.0009
@<TRIPOS>BOND
     1     1     2    2
     2     1     6    1
     3     1    20    1
     4     2     3    1
     5     2    17    1
     6     3     4    1
     7     4     5    1
     8     4    16    2
     9     5     6    1
    10     6     7    1
    11     7     8   ar
    12     7    15   ar
    13     8     9   ar
    14     9    10   ar
    15     9    13    1
    16    10    11    1
    17    10    14   ar
    18    11    12    1
    19    12    13    1
    20    14    15   ar
    21    17    18    1
    22    18    19    1
    23    18    22    1
    24    18    23    1
    25    19    20    1
    26    20    21    2
