@<TRIPOS>MOLECULE
34476_ChemDiv_8015-8114
 30 33 0 0 0
SMALL
GASTEIGER
Energy = 0

@<TRIPOS>ATOM
      1 C          -0.4380   -1.5040    0.0000 C.2     1  LIG1        0.0471
      2 C          -0.4380   -2.4920    0.0000 C.2     1  LIG1        0.1249
      3 O           0.4290   -3.0000    0.0000 O.3     1  LIG1       -0.4287
      4 C           1.2920   -2.4920    0.0000 C.2     1  LIG1        0.3218
      5 C           1.2920   -1.5040    0.0000 C.3     1  LIG1        0.1188
      6 C           0.4290   -1.0040    0.0000 C.3     1  LIG1        0.0613
      7 C           0.4290   -0.0040    0.0000 C.ar    1  LIG1       -0.0145
      8 C           1.2920    0.4960    0.0000 C.ar    1  LIG1        0.0361
      9 C           1.2920    1.4960    0.0000 C.ar    1  LIG1        0.1721
     10 C           0.4290    1.9960    0.0000 C.ar    1  LIG1        0.1727
     11 O           0.4290    3.0040    0.0000 O.3     1  LIG1       -0.4676
     12 C          -0.4380    3.5040    0.0000 C.3     1  LIG1        0.2321
     13 C          -1.3000    3.0040    0.0000 C.ar    1  LIG1        0.0212
     14 C          -1.3000    1.9960    0.0000 C.ar    1  LIG1       -0.0007
     15 C          -2.1710    1.4960    0.0000 C.ar    1  LIG1       -0.0002
     16 C          -3.0330    1.9960    0.0000 C.ar    1  LIG1       -0.0000
     17 C          -3.0330    3.0040    0.0000 C.ar    1  LIG1       -0.0002
     18 C          -2.1710    3.4960    0.0000 C.ar    1  LIG1       -0.0007
     19 C          -0.4380    1.4960    0.0000 C.ar    1  LIG1        0.0397
     20 C          -0.4380    0.4960    0.0000 C.ar    1  LIG1       -0.0006
     21 O           2.1670    1.9960    0.0000 O.3     1  LIG1       -0.4684
     22 C           3.0290    1.4960    0.0000 C.3     1  LIG1        0.2526
     23 O           2.1630   -3.0000    0.0000 O.2     1  LIG1       -0.2497
     24 C          -1.2960   -3.0000    0.0000 C.3     1  LIG1        0.0648
     25 C          -2.1710   -2.4920    0.0000 C.3     1  LIG1        0.0144
     26 C          -2.1710   -1.5040    0.0000 C.3     1  LIG1        0.0693
     27 C          -1.2960   -1.0040    0.0000 C.2     1  LIG1        0.1720
     28 O          -1.2960   -0.0040    0.0000 O.2     1  LIG1       -0.2916
     29 C          -2.1710   -3.5000    0.0000 C.3     1  LIG1        0.0009
     30 C          -3.0330   -2.0000    0.0000 C.3     1  LIG1        0.0009
@<TRIPOS>BOND
     1     1     2    2
     2     1     6    1
     3     1    27    1
     4     2     3    1
     5     2    24    1
     6     3     4    1
     7     4     5    1
     8     4    23    2
     9     5     6    1
    10     6     7    1
    11     7     8   ar
    12     7    20   ar
    13     8     9   ar
    14     9    10   ar
    15     9    21    1
    16    10    11    1
    17    10    19   ar
    18    11    12    1
    19    12    13    1
    20    13    14   ar
    21    13    18   ar
    22    14    15   ar
    23    15    16   ar
    24    16    17   ar
    25    17    18   ar
    26    19    20   ar
    27    21    22    1
    28    24    25    1
    29    25    26    1
    30    25    29    1
    31    25    30    1
    32    26    27    1
    33    27    28    2
