@<TRIPOS>MOLECULE
34479_ChemDiv_8014-2650
 30 34 0 0 0
SMALL
GASTEIGER
Energy = 0

@<TRIPOS>ATOM
      1 P          -1.1880    0.7500    0.0000 P.3     1  LIG1        0.2834
      2 C          -0.3290    0.2540    0.0000 C.3     1  LIG1        0.1902
      3 C           0.5380    0.7500    0.0000 C.ar    1  LIG1        0.0414
      4 C           1.4000    0.2540    0.0000 C.ar    1  LIG1        0.0420
      5 C           2.2630    0.7500    0.0000 C.ar    1  LIG1        0.1763
      6 C           2.2630    1.7460    0.0000 C.ar    1  LIG1        0.1764
      7 O           3.7630    1.7380    0.0000 O.3     1  LIG1       -0.4346
      8 C           3.7710    0.8170    0.0000 C.3     1  LIG1        0.4294
      9 O           3.0040    0.3830    0.0000 O.3     1  LIG1       -0.4346
     10 C           1.3960    2.2420    0.0000 C.ar    1  LIG1        0.0401
     11 C           0.5380    1.7460    0.0000 C.ar    1  LIG1        0.0051
     12 N          -0.3290   -0.7460    0.0000 N.4     1  LIG1        0.3873
     13 C           0.5380   -1.2380    0.0000 C.3     1  LIG1        0.1722
     14 C           0.5380   -2.2380    0.0000 C.3     1  LIG1        0.2048
     15 O          -0.3250   -2.7380    0.0000 O.3     1  LIG1       -0.3411
     16 C          -1.1880   -2.2380    0.0000 C.3     1  LIG1        0.2048
     17 C          -1.1880   -1.2420    0.0000 C.3     1  LIG1        0.1722
     18 N          -2.0540    1.2460    0.0000 N.3     1  LIG1       -0.2100
     19 C          -2.0540    2.2420    0.0000 C.3     1  LIG1        0.1117
     20 C          -2.9170    2.7420    0.0000 C.3     1  LIG1        0.1599
     21 O          -3.7750    2.2420    0.0000 O.3     1  LIG1       -0.3508
     22 C          -3.7750    1.2460    0.0000 C.3     1  LIG1        0.1599
     23 C          -2.9170    0.7500    0.0000 C.3     1  LIG1        0.1117
     24 N          -1.6880   -0.1080    0.0000 N.3     1  LIG1       -0.2100
     25 C          -2.6830   -0.1080    0.0000 C.3     1  LIG1        0.1117
     26 C          -3.1830   -0.9750    0.0000 C.3     1  LIG1        0.1599
     27 O          -2.6830   -1.8380    0.0000 O.3     1  LIG1       -0.3508
     28 C          -1.6880   -1.8380    0.0000 C.3     1  LIG1        0.1599
     29 C          -1.1880   -0.9750    0.0000 C.3     1  LIG1        0.1117
     30 O          -0.6920    1.6130    0.0000 O.2     1  LIG1       -0.2799
@<TRIPOS>BOND
     1     1     2    1
     2     1    18    1
     3     1    24    1
     4     1    30    2
     5     2     3    1
     6     2    12    1
     7     3     4   ar
     8     3    11   ar
     9     4     5   ar
    10     5     6   ar
    11     5     9    1
    12     6     7    1
    13     6    10   ar
    14     7     8    1
    15     8     9    1
    16    10    11   ar
    17    12    13    1
    18    12    17    1
    19    13    14    1
    20    14    15    1
    21    15    16    1
    22    16    17    1
    23    18    19    1
    24    18    23    1
    25    19    20    1
    26    20    21    1
    27    21    22    1
    28    22    23    1
    29    24    25    1
    30    24    29    1
    31    25    26    1
    32    26    27    1
    33    27    28    1
    34    28    29    1
