@<TRIPOS>MOLECULE
34473_ChemDiv_8014-2611
 24 27 0 0 0
SMALL
GASTEIGER
Energy = 0

@<TRIPOS>ATOM
      1 S           2.1710   -0.7880    0.0000 S.O2    1  LIG1        0.1326
      2 N           1.3210   -1.2790    0.0000 N.pl3   1  LIG1       -0.0826
      3 C           0.4750   -0.7880    0.0000 C.ar    1  LIG1        0.1289
      4 C          -0.3710   -1.2790    0.0000 C.ar    1  LIG1        0.0586
      5 C          -1.2170   -0.7880    0.0000 C.ar    1  LIG1        0.1468
      6 C          -1.2170    0.1830    0.0000 C.ar    1  LIG1        0.0406
      7 C          -2.9080    0.1830    0.0000 C.ar    1  LIG1        0.0376
      8 C          -2.9080   -0.7880    0.0000 C.ar    1  LIG1        0.1453
      9 O          -2.0580   -1.2790    0.0000 O.2     1  LIG1       -0.4534
     10 C          -3.7290   -1.2790    0.0000 C.ar    1  LIG1        0.0375
     11 C          -4.5670   -0.7880    0.0000 C.ar    1  LIG1        0.0031
     12 C          -4.5670    0.1830    0.0000 C.ar    1  LIG1        0.0002
     13 C          -3.7290    0.6710    0.0000 C.ar    1  LIG1        0.0031
     14 C          -0.3710    0.6710    0.0000 C.ar    1  LIG1        0.0414
     15 C           0.4750    0.1830    0.0000 C.ar    1  LIG1        0.1555
     16 O           1.3210    0.6710    0.0000 O.3     1  LIG1       -0.4701
     17 C           1.3210    1.6420    0.0000 C.3     1  LIG1        0.2525
     18 N           3.0130   -0.3080    0.0000 N.3     1  LIG1       -0.1413
     19 C           3.1170    0.6630    0.0000 C.3     1  LIG1        0.0973
     20 C           4.0710    0.8710    0.0000 C.3     1  LIG1        0.0207
     21 C           4.5630    0.0210    0.0000 C.3     1  LIG1        0.0207
     22 C           3.9080   -0.7000    0.0000 C.3     1  LIG1        0.0973
     23 O           2.6580   -1.6380    0.0000 O.2     1  LIG1       -0.1362
     24 O           1.6790    0.0460    0.0000 O.2     1  LIG1       -0.1362
@<TRIPOS>BOND
     1     1     2    1
     2     1    18    1
     3     1    23    2
     4     1    24    2
     5     2     3    1
     6     3     4   ar
     7     3    15   ar
     8     4     5   ar
     9     5     6   ar
    10     5     9   ar
    11     6     7   ar
    12     6    14   ar
    13     7     8   ar
    14     7    13   ar
    15     8     9   ar
    16     8    10   ar
    17    10    11   ar
    18    11    12   ar
    19    12    13   ar
    20    14    15   ar
    21    15    16    1
    22    16    17    1
    23    18    19    1
    24    18    22    1
    25    19    20    1
    26    20    21    1
    27    21    22    1
