@<TRIPOS>MOLECULE
34478_ChemDiv_8016-0251
 19 21 0 0 0
SMALL
GASTEIGER
Energy = 0

@<TRIPOS>ATOM
      1 C          -0.0040   -0.5170    0.0000 C.2     1  LIG1        0.0476
      2 C          -0.0040   -1.5170    0.0000 C.2     1  LIG1        0.1249
      3 O           0.8670   -2.0170    0.0000 O.3     1  LIG1       -0.4287
      4 C           1.7330   -1.5170    0.0000 C.2     1  LIG1        0.3219
      5 C           1.7330   -0.5170    0.0000 C.3     1  LIG1        0.1194
      6 C           0.8670   -0.0170    0.0000 C.3     1  LIG1        0.0672
      7 C           0.8670    0.9830    0.0000 C.ar    1  LIG1        0.0118
      8 S           0.0580    1.5710    0.0000 S.2     1  LIG1       -0.0904
      9 C           0.3670    2.5210    0.0000 C.ar    1  LIG1        0.0351
     10 C           1.3670    2.5210    0.0000 C.ar    1  LIG1        0.0072
     11 C           1.6710    1.5710    0.0000 C.ar    1  LIG1        0.0030
     12 O           2.5960   -2.0170    0.0000 O.2     1  LIG1       -0.2497
     13 C          -0.8710   -2.0170    0.0000 C.3     1  LIG1        0.0648
     14 C          -1.7330   -1.5170    0.0000 C.3     1  LIG1        0.0144
     15 C          -1.7330   -0.5170    0.0000 C.3     1  LIG1        0.0693
     16 C          -0.8710   -0.0170    0.0000 C.2     1  LIG1        0.1720
     17 O          -0.8710    0.9830    0.0000 O.2     1  LIG1       -0.2916
     18 C          -1.7330   -2.5170    0.0000 C.3     1  LIG1        0.0009
     19 C          -2.6000   -1.0170    0.0000 C.3     1  LIG1        0.0009
@<TRIPOS>BOND
     1     1     2    2
     2     1     6    1
     3     1    16    1
     4     2     3    1
     5     2    13    1
     6     3     4    1
     7     4     5    1
     8     4    12    2
     9     5     6    1
    10     6     7    1
    11     7     8   ar
    12     7    11   ar
    13     8     9   ar
    14     9    10   ar
    15    10    11   ar
    16    13    14    1
    17    14    15    1
    18    14    18    1
    19    14    19    1
    20    15    16    1
    21    16    17    2
