@<TRIPOS>MOLECULE
34475_ChemDiv_8014-2623
 22 25 0 0 0
SMALL
GASTEIGER
Energy = 0

@<TRIPOS>ATOM
      1 S           2.1630   -0.4000    0.0000 S.O2    1  LIG1        0.1325
      2 N           3.0040    0.0790    0.0000 N.3     1  LIG1       -0.1413
      3 C           3.9000   -0.3130    0.0000 C.3     1  LIG1        0.0973
      4 C           4.5540    0.4040    0.0000 C.3     1  LIG1        0.0207
      5 C           4.0630    1.2540    0.0000 C.3     1  LIG1        0.0207
      6 C           3.1080    1.0500    0.0000 C.3     1  LIG1        0.0973
      7 N           1.3170   -0.8920    0.0000 N.pl3   1  LIG1       -0.0856
      8 C           0.4750   -0.4000    0.0000 C.ar    1  LIG1        0.0951
      9 C          -0.3710   -0.8920    0.0000 C.ar    1  LIG1        0.0556
     10 C          -1.2130   -0.4000    0.0000 C.ar    1  LIG1        0.1466
     11 O          -2.0540   -0.8920    0.0000 O.2     1  LIG1       -0.4535
     12 C          -2.9000   -0.4000    0.0000 C.ar    1  LIG1        0.1453
     13 C          -2.9000    0.5670    0.0000 C.ar    1  LIG1        0.0375
     14 C          -1.2130    0.5670    0.0000 C.ar    1  LIG1        0.0376
     15 C          -0.3710    1.0540    0.0000 C.ar    1  LIG1        0.0045
     16 C           0.4750    0.5670    0.0000 C.ar    1  LIG1        0.0183
     17 C          -3.7250    1.0540    0.0000 C.ar    1  LIG1        0.0031
     18 C          -4.5580    0.5670    0.0000 C.ar    1  LIG1        0.0002
     19 C          -4.5580   -0.4000    0.0000 C.ar    1  LIG1        0.0031
     20 C          -3.7250   -0.8920    0.0000 C.ar    1  LIG1        0.0375
     21 O           2.6500   -1.2500    0.0000 O.2     1  LIG1       -0.1362
     22 O           1.6750    0.4330    0.0000 O.2     1  LIG1       -0.1362
@<TRIPOS>BOND
     1     1     2    1
     2     1     7    1
     3     1    21    2
     4     1    22    2
     5     2     3    1
     6     2     6    1
     7     3     4    1
     8     4     5    1
     9     5     6    1
    10     7     8    1
    11     8     9   ar
    12     8    16   ar
    13     9    10   ar
    14    10    11   ar
    15    10    14   ar
    16    11    12   ar
    17    12    13   ar
    18    12    20   ar
    19    13    14   ar
    20    13    17   ar
    21    14    15   ar
    22    15    16   ar
    23    17    18   ar
    24    18    19   ar
    25    19    20   ar
