@<TRIPOS>MOLECULE
34477_ChemDiv_8014-2626
 27 30 0 0 0
SMALL
GASTEIGER
Energy = 0

@<TRIPOS>ATOM
      1 S          -0.7330    1.3540    0.0000 S.O2    1  LIG1       -0.0578
      2 N           0.1210    1.8500    0.0000 N.pl3   1  LIG1       -0.5358
      3 C           0.9790    1.3540    0.0000 C.ar    1  LIG1       -0.1125
      4 C           1.8380    1.8500    0.0000 C.ar    1  LIG1       -0.0243
      5 C           2.6960    1.3540    0.0000 C.ar    1  LIG1        0.0257
      6 C           2.6960    0.3630    0.0000 C.ar    1  LIG1        0.0751
      7 C           4.4130    0.3630    0.0000 C.2     1  LIG1        0.3413
      8 O           4.4130    1.3540    0.0000 O.3     1  LIG1       -0.4404
      9 C           3.5540    1.8500    0.0000 C.3     1  LIG1        0.2355
     10 O           4.9080   -0.4920    0.0000 O.2     1  LIG1       -0.2449
     11 C           1.8380   -0.1330    0.0000 C.ar    1  LIG1        0.0044
     12 C           0.9790    0.3630    0.0000 C.ar    1  LIG1       -0.0236
     13 C          -1.5920    0.8580    0.0000 C.ar    1  LIG1        0.0891
     14 C          -2.4460    1.3540    0.0000 C.ar    1  LIG1        0.0140
     15 C          -3.3040    0.8420    0.0000 C.ar    1  LIG1       -0.0043
     16 C          -3.3040   -0.1330    0.0000 C.ar    1  LIG1        0.0646
     17 N          -4.0580   -0.5000    0.0000 N.pl3   1  LIG1       -0.1943
     18 S          -4.0580   -1.3540    0.0000 S.O2    1  LIG1        0.0588
     19 O          -4.9130   -1.3540    0.0000 O.2     1  LIG1       -0.1542
     20 O          -3.2080   -1.3540    0.0000 O.2     1  LIG1       -0.1542
     21 C          -4.0580   -2.2040    0.0000 C.3     1  LIG1        0.1999
     22 C          -4.7960   -0.0670    0.0000 C.3     1  LIG1        0.1202
     23 C          -4.7960    0.8380    0.0000 C.3     1  LIG1        0.0510
     24 C          -2.4460   -0.6250    0.0000 C.ar    1  LIG1        0.0171
     25 C          -1.5920   -0.1330    0.0000 C.ar    1  LIG1        0.0182
     26 O          -0.2380    0.4960    0.0000 O.2     1  LIG1       -0.1842
     27 O          -1.2330    2.2080    0.0000 O.2     1  LIG1       -0.1842
@<TRIPOS>BOND
     1     1     2    1
     2     1    13    1
     3     1    26    2
     4     1    27    2
     5     2     3    1
     6     3     4   ar
     7     3    12   ar
     8     4     5   ar
     9     5     6   ar
    10     5     9    1
    11     6     7    1
    12     6    11   ar
    13     7     8    1
    14     7    10    2
    15     8     9    1
    16    11    12   ar
    17    13    14   ar
    18    13    25   ar
    19    14    15   ar
    20    15    16   ar
    21    15    23    1
    22    16    17    1
    23    16    24   ar
    24    17    18    1
    25    17    22    1
    26    18    19    2
    27    18    20    2
    28    18    21    1
    29    22    23    1
    30    24    25   ar
