@<TRIPOS>MOLECULE
34474_ChemDiv_8015-8072
 24 27 0 0 0
SMALL
GASTEIGER
Energy = 0

@<TRIPOS>ATOM
      1 C          -0.4380   -0.7540    0.0000 C.2     1  LIG1        0.0471
      2 C          -0.4380   -1.7460    0.0000 C.2     1  LIG1        0.1249
      3 O           0.4290   -2.2540    0.0000 O.3     1  LIG1       -0.4287
      4 C           1.2920   -1.7460    0.0000 C.2     1  LIG1        0.3218
      5 C           1.2920   -0.7540    0.0000 C.3     1  LIG1        0.1188
      6 C           0.4290   -0.2500    0.0000 C.3     1  LIG1        0.0612
      7 C           0.4290    0.7500    0.0000 C.ar    1  LIG1       -0.0177
      8 C           1.2920    1.2500    0.0000 C.ar    1  LIG1       -0.0036
      9 C           1.2920    2.2500    0.0000 C.ar    1  LIG1       -0.0003
     10 C           0.4290    2.7500    0.0000 C.ar    1  LIG1       -0.0000
     11 C          -0.4380    2.2500    0.0000 C.ar    1  LIG1       -0.0003
     12 C          -0.4380    1.2500    0.0000 C.ar    1  LIG1       -0.0039
     13 C           2.1630    2.7500    0.0000 C.ar    1  LIG1       -0.0000
     14 C           3.0290    2.2500    0.0000 C.ar    1  LIG1       -0.0000
     15 C           3.0290    1.2500    0.0000 C.ar    1  LIG1       -0.0000
     16 C           2.1630    0.7500    0.0000 C.ar    1  LIG1       -0.0003
     17 O           2.1630   -2.2460    0.0000 O.2     1  LIG1       -0.2497
     18 C          -1.3000   -2.2540    0.0000 C.3     1  LIG1        0.0648
     19 C          -2.1710   -1.7460    0.0000 C.3     1  LIG1        0.0144
     20 C          -2.1710   -0.7540    0.0000 C.3     1  LIG1        0.0693
     21 C          -1.3000   -0.2500    0.0000 C.2     1  LIG1        0.1720
     22 O          -1.3000    0.7500    0.0000 O.2     1  LIG1       -0.2916
     23 C          -3.0330   -1.2460    0.0000 C.3     1  LIG1        0.0009
     24 C          -2.1710   -2.7460    0.0000 C.3     1  LIG1        0.0009
@<TRIPOS>BOND
     1     1     2    2
     2     1     6    1
     3     1    21    1
     4     2     3    1
     5     2    18    1
     6     3     4    1
     7     4     5    1
     8     4    17    2
     9     5     6    1
    10     6     7    1
    11     7     8   ar
    12     7    12   ar
    13     8     9   ar
    14     8    16   ar
    15     9    10   ar
    16     9    13   ar
    17    10    11   ar
    18    11    12   ar
    19    13    14   ar
    20    14    15   ar
    21    15    16   ar
    22    18    19    1
    23    19    20    1
    24    19    23    1
    25    19    24    1
    26    20    21    1
    27    21    22    2
