@<TRIPOS>MOLECULE
34489_ChemDiv_8015-1009
 10 10 0 0 0
SMALL
GASTEIGER
Energy = 0

@<TRIPOS>ATOM
      1 C           0.7330   -0.0920    0.0000 C.ar    1  LIG1        0.0545
      2 C          -0.2710   -0.0920    0.0000 C.ar    1  LIG1        0.0439
      3 C          -0.5830   -1.0540    0.0000 C.ar    1  LIG1        0.1970
      4 O           0.2080   -1.6380    0.0000 O.2     1  LIG1       -0.4481
      5 C           1.0460   -1.0540    0.0000 C.ar    1  LIG1        0.1805
      6 C          -1.5290   -1.3670    0.0000 C.3     1  LIG1        0.3806
      7 N          -2.2710   -0.7210    0.0000 N.4     1  LIG1        0.6046
      8 C           1.3080    0.7130    0.0000 C.2     1  LIG1        0.0760
      9 O           0.8880    1.6420    0.0000 O.co2   1  LIG1       -0.5445
     10 O           2.2670    0.5330    0.0000 O.co2   1  LIG1       -0.5445
@<TRIPOS>BOND
     1     1     2   ar
     2     1     5   ar
     3     1     8    1
     4     2     3   ar
     5     3     4   ar
     6     3     6    1
     7     4     5   ar
     8     6     7    1
     9     8     9   ar
    10     8    10   ar
