@<TRIPOS>MOLECULE
34487_ChemDiv_8016-5714
 11 11 0 0 0
SMALL
GASTEIGER
Energy = 0

@<TRIPOS>ATOM
      1 C           0.8920    0.5880    0.0000 C.ar    1  LIG1        0.1587
      2 O           0.5830   -0.3670    0.0000 O.2     1  LIG1       -0.4566
      3 C          -0.4210   -0.3670    0.0000 C.ar    1  LIG1        0.1229
      4 C          -0.7250    0.5880    0.0000 C.ar    1  LIG1        0.0361
      5 C           0.0830    1.1750    0.0000 C.ar    1  LIG1        0.0414
      6 C          -1.0080   -1.1710    0.0000 C.3     1  LIG1        0.0645
      7 C          -2.0000   -1.0670    0.0000 C.3     1  LIG1        0.0080
      8 C          -2.5960   -1.8710    0.0000 C.3     1  LIG1        0.0005
      9 C           1.8460    0.8960    0.0000 C.2     1  LIG1        0.1076
     10 O           2.0580    1.8750    0.0000 O.co2   1  LIG1       -0.5415
     11 O           2.5920    0.2250    0.0000 O.co2   1  LIG1       -0.5415
@<TRIPOS>BOND
     1     1     2   ar
     2     1     5   ar
     3     1     9    1
     4     2     3   ar
     5     3     4   ar
     6     3     6    1
     7     4     5   ar
     8     6     7    1
     9     7     8    1
    10     9    10   ar
    11     9    11   ar
