@<TRIPOS>MOLECULE
34484_ChemDiv_8015-3948
 20 22 0 0 0
SMALL
GASTEIGER
Energy = 0

@<TRIPOS>ATOM
      1 C          -0.4290    0.0630    0.0000 C.ar    1  LIG1        0.0589
      2 C           0.4500    0.5920    0.0000 C.2     1  LIG1        0.1970
      3 C           1.3290    0.1170    0.0000 C.ar    1  LIG1        0.0390
      4 C           1.3290   -0.8920    0.0000 C.ar    1  LIG1        0.0040
      5 C           2.1920   -1.3920    0.0000 C.ar    1  LIG1        0.0115
      6 C           3.0540   -0.9790    0.0000 C.ar    1  LIG1        0.0577
      7 C           3.0630    0.1170    0.0000 C.ar    1  LIG1        0.0115
      8 C           2.1920    0.6170    0.0000 C.ar    1  LIG1        0.0040
      9 CL          3.9000   -1.4500    0.0000 Cl      1  LIG1       -0.0822
     10 O           0.4500    1.4710    0.0000 O.2     1  LIG1       -0.2865
     11 C          -0.4290   -0.9420    0.0000 C.ar    1  LIG1        0.0954
     12 C          -1.3080   -1.4420    0.0000 C.ar    1  LIG1        0.0582
     13 C          -2.1790   -0.9420    0.0000 C.ar    1  LIG1        0.1737
     14 C          -2.1790    0.0630    0.0000 C.ar    1  LIG1        0.1726
     15 C          -1.3080    0.5580    0.0000 C.ar    1  LIG1        0.0446
     16 O          -3.0420    0.5580    0.0000 O.3     1  LIG1       -0.4684
     17 C          -3.9040    0.0630    0.0000 C.3     1  LIG1        0.2526
     18 C          -3.9040   -0.9420    0.0000 C.3     1  LIG1        0.2526
     19 O          -3.0420   -1.4420    0.0000 O.3     1  LIG1       -0.4683
     20 N           0.4500   -1.4670    0.0000 N.pl3   1  LIG1       -0.1278
@<TRIPOS>BOND
     1     1     2    1
     2     1    11   ar
     3     1    15   ar
     4     2     3    1
     5     2    10    2
     6     3     4   ar
     7     3     8   ar
     8     4     5   ar
     9     5     6   ar
    10     6     7   ar
    11     6     9    1
    12     7     8   ar
    13    11    12   ar
    14    11    20    1
    15    12    13   ar
    16    13    14   ar
    17    13    19    1
    18    14    15   ar
    19    14    16    1
    20    16    17    1
    21    17    18    1
    22    18    19    1
