@<TRIPOS>MOLECULE
34483_ChemDiv_8015-0966
 28 30 0 0 0
SMALL
GASTEIGER
Energy = 0

@<TRIPOS>ATOM
      1 S           1.2500   -1.5710    0.0000 S.O2    1  LIG1       -0.0578
      2 N           2.2500   -1.5710    0.0000 N.pl3   1  LIG1       -0.5360
      3 C           2.7460   -0.7000    0.0000 C.ar    1  LIG1       -0.1131
      4 C           2.2500    0.1670    0.0000 C.ar    1  LIG1        0.0161
      5 C           2.7460    1.0290    0.0000 C.ar    1  LIG1        0.1746
      6 C           3.7460    1.0290    0.0000 C.ar    1  LIG1        0.1760
      7 C           4.2500    0.1670    0.0000 C.ar    1  LIG1        0.0341
      8 C           3.7460   -0.7000    0.0000 C.ar    1  LIG1       -0.0410
      9 C           4.2500   -1.5710    0.0000 C.3     1  LIG1        0.0246
     10 C           5.2580   -1.5710    0.0000 C.3     1  LIG1        0.0046
     11 C           5.7630   -2.4080    0.0000 C.3     1  LIG1        0.0004
     12 O           4.0540    1.9830    0.0000 O.3     1  LIG1       -0.4346
     13 C           3.2460    2.5710    0.0000 C.3     1  LIG1        0.4294
     14 O           2.4380    1.9830    0.0000 O.3     1  LIG1       -0.4347
     15 C           0.2460   -1.5710    0.0000 C.ar    1  LIG1        0.0893
     16 C          -0.2540   -0.7000    0.0000 C.ar    1  LIG1        0.0166
     17 C          -1.2500   -0.7000    0.0000 C.ar    1  LIG1       -0.0029
     18 C          -1.7540   -1.5710    0.0000 C.ar    1  LIG1       -0.0203
     19 C          -1.2500   -2.4290    0.0000 C.ar    1  LIG1       -0.0029
     20 C          -0.2540   -2.4290    0.0000 C.ar    1  LIG1        0.0166
     21 C          -2.7540   -1.5710    0.0000 C.3     1  LIG1        0.0498
     22 C          -3.2540   -2.4290    0.0000 C.3     1  LIG1        0.1198
     23 N          -4.2580   -2.4290    0.0000 N.am    1  LIG1       -0.2051
     24 C          -4.7580   -1.5710    0.0000 C.2     1  LIG1        0.2419
     25 O          -4.2580   -0.7000    0.0000 O.2     1  LIG1       -0.2733
     26 C          -5.7670   -1.5710    0.0000 C.3     1  LIG1        0.0964
     27 O           1.2500   -2.5670    0.0000 O.2     1  LIG1       -0.1842
     28 O           1.2500   -0.5670    0.0000 O.2     1  LIG1       -0.1842
@<TRIPOS>BOND
     1     1     2    1
     2     1    15    1
     3     1    27    2
     4     1    28    2
     5     2     3    1
     6     3     4   ar
     7     3     8   ar
     8     4     5   ar
     9     5     6   ar
    10     5    14    1
    11     6     7   ar
    12     6    12    1
    13     7     8   ar
    14     8     9    1
    15     9    10    1
    16    10    11    1
    17    12    13    1
    18    13    14    1
    19    15    16   ar
    20    15    20   ar
    21    16    17   ar
    22    17    18   ar
    23    18    19   ar
    24    18    21    1
    25    19    20   ar
    26    21    22    1
    27    22    23    1
    28    23    24   am
    29    24    25    2
    30    24    26    1
