@<TRIPOS>MOLECULE
34485_ChemDiv_8015-0997
 10 10 0 0 0
SMALL
GASTEIGER
Energy = 0

@<TRIPOS>ATOM
      1 C          -0.0580   -0.1540    0.0000 C.ar    1  LIG1        0.1614
      2 C          -0.3670    0.7960    0.0000 C.ar    1  LIG1        0.0901
      3 C          -1.3670    0.7960    0.0000 C.ar    1  LIG1        0.0458
      4 C          -1.6750   -0.1540    0.0000 C.ar    1  LIG1        0.1795
      5 O          -0.8670   -0.7460    0.0000 O.2     1  LIG1       -0.4494
      6 C           0.1290    1.6630    0.0000 C.3     1  LIG1        0.3463
      7 N           1.1330    1.6630    0.0000 N.4     1  LIG1        0.6018
      8 C           0.8080   -0.6540    0.0000 C.2     1  LIG1        0.1075
      9 O           1.6710   -0.1540    0.0000 O.co2   1  LIG1       -0.5416
     10 O           0.8080   -1.6580    0.0000 O.co2   1  LIG1       -0.5416
@<TRIPOS>BOND
     1     1     2   ar
     2     1     5   ar
     3     1     8    1
     4     2     3   ar
     5     2     6    1
     6     3     4   ar
     7     4     5   ar
     8     6     7    1
     9     8     9   ar
    10     8    10   ar
