@<TRIPOS>MOLECULE
34496_ChemDiv_8015-4226
 26 30 0 0 0
SMALL
GASTEIGER
Energy = 0

@<TRIPOS>ATOM
      1 S           1.7540   -0.4420    0.0000 S.O2    1  LIG1        0.0693
      2 N           0.9040    0.0500    0.0000 N.3     1  LIG1       -0.1489
      3 C           0.9040    1.0250    0.0000 C.3     1  LIG1        0.1172
      4 C           0.0460    1.5080    0.0000 C.ar    1  LIG1        0.0493
      5 N          -0.8040    1.0250    0.0000 N.ar    1  LIG1       -0.3282
      6 C          -1.6330    1.5080    0.0000 C.ar    1  LIG1        0.0594
      7 C          -1.6330    2.4830    0.0000 C.ar    1  LIG1        0.0126
      8 C           0.0460    2.4830    0.0000 C.ar    1  LIG1       -0.0078
      9 C           0.8790    2.9710    0.0000 C.3     1  LIG1        0.0276
     10 C           1.7250    2.4830    0.0000 C.3     1  LIG1        0.0066
     11 C           1.7250    1.5080    0.0000 C.3     1  LIG1        0.0241
     12 C          -2.4790    2.9710    0.0000 C.ar    1  LIG1       -0.0031
     13 C          -3.3210    2.4830    0.0000 C.ar    1  LIG1       -0.0218
     14 C          -3.3210    1.5080    0.0000 C.ar    1  LIG1       -0.0028
     15 C          -2.4790    1.0250    0.0000 C.ar    1  LIG1        0.0168
     16 C          -4.1670    2.9710    0.0000 C.3     1  LIG1        0.0310
     17 C          -0.8040    0.0500    0.0000 C.3     1  LIG1        0.1249
     18 C           0.0540   -0.4290    0.0000 C.3     1  LIG1        0.1206
     19 C           2.6040   -0.9290    0.0000 C.ar    1  LIG1        0.1521
     20 S           2.7040   -1.9040    0.0000 S.2     1  LIG1       -0.0604
     21 C           3.6670   -2.1130    0.0000 C.ar    1  LIG1        0.0651
     22 C           4.1540   -1.2630    0.0000 C.ar    1  LIG1        0.0152
     23 C           3.5040   -0.5290    0.0000 C.ar    1  LIG1        0.0276
     24 BR          4.1630   -2.9670    0.0000 Br      1  LIG1       -0.0419
     25 O           1.2630   -1.2920    0.0000 O.2     1  LIG1       -0.1523
     26 O           2.2420    0.4080    0.0000 O.2     1  LIG1       -0.1523
@<TRIPOS>BOND
     1     1     2    1
     2     1    19    1
     3     1    25    2
     4     1    26    2
     5     2     3    1
     6     2    18    1
     7     3     4    1
     8     3    11    1
     9     4     5   ar
    10     4     8   ar
    11     5     6   ar
    12     5    17    1
    13     6     7   ar
    14     6    15   ar
    15     7     8   ar
    16     7    12   ar
    17     8     9    1
    18     9    10    1
    19    10    11    1
    20    12    13   ar
    21    13    14   ar
    22    13    16    1
    23    14    15   ar
    24    17    18    1
    25    19    20   ar
    26    19    23   ar
    27    20    21   ar
    28    21    22   ar
    29    21    24    1
    30    22    23   ar
