@<TRIPOS>MOLECULE
34495_ChemDiv_8017-4587
 32 35 0 0 0
SMALL
GASTEIGER
Energy = 0

@<TRIPOS>ATOM
      1 N          -1.0750   -0.4040    0.0000 N.ar    1  LIG1       -0.2905
      2 C          -0.9710    0.5790    0.0000 C.ar    1  LIG1        0.1640
      3 N           0.0130    0.7920    0.0000 N.ar    1  LIG1       -0.1311
      4 N           0.5080   -0.0710    0.0000 N.ar    1  LIG1       -0.1224
      5 C          -0.1580   -0.8130    0.0000 C.ar    1  LIG1        0.1935
      6 S           0.0380   -1.7920    0.0000 S.3     1  LIG1       -0.0658
      7 C           1.0000   -2.0420    0.0000 C.3     1  LIG1        0.1519
      8 C           1.7130   -1.3330    0.0000 C.2     1  LIG1        0.2570
      9 N           2.6750   -1.5880    0.0000 N.am    1  LIG1       -0.1785
     10 C           3.5380   -1.0790    0.0000 C.ar    1  LIG1        0.0728
     11 C           3.5250   -0.0830    0.0000 C.ar    1  LIG1        0.0123
     12 C           4.3960    0.4210    0.0000 C.ar    1  LIG1       -0.0209
     13 C           5.2630   -0.0710    0.0000 C.ar    1  LIG1       -0.0084
     14 C           5.2710   -1.0670    0.0000 C.ar    1  LIG1       -0.0209
     15 C           4.4130   -1.5750    0.0000 C.ar    1  LIG1        0.0123
     16 C           6.1380   -1.5670    0.0000 C.3     1  LIG1        0.0311
     17 C           4.3880    1.4250    0.0000 C.3     1  LIG1        0.0311
     18 O           1.4540   -0.3710    0.0000 O.2     1  LIG1       -0.2720
     19 C          -1.7130    1.2540    0.0000 C.3     1  LIG1        0.1596
     20 N          -2.6710    0.9460    0.0000 N.am    1  LIG1       -0.2722
     21 C          -3.4750    1.5380    0.0000 C.2     1  LIG1        0.2264
     22 C          -4.2830    0.9460    0.0000 C.3     1  LIG1        0.0913
     23 C          -3.9750   -0.0040    0.0000 C.3     1  LIG1        0.0512
     24 C          -2.9750   -0.0040    0.0000 C.3     1  LIG1        0.0986
     25 C          -4.5630   -0.8130    0.0000 C.ar    1  LIG1       -0.0204
     26 C          -4.1580   -1.7250    0.0000 C.ar    1  LIG1       -0.0042
     27 C          -4.7500   -2.5290    0.0000 C.ar    1  LIG1       -0.0003
     28 C          -5.7460   -2.4250    0.0000 C.ar    1  LIG1       -0.0000
     29 C          -6.1380   -1.5040    0.0000 C.ar    1  LIG1       -0.0003
     30 C          -5.5580   -0.7040    0.0000 C.ar    1  LIG1       -0.0042
     31 O          -3.4830    2.5330    0.0000 O.2     1  LIG1       -0.2748
     32 C          -1.9380   -0.9040    0.0000 C.3     1  LIG1        0.1337
@<TRIPOS>BOND
     1     1     2   ar
     2     1     5   ar
     3     1    32    1
     4     2     3   ar
     5     2    19    1
     6     3     4   ar
     7     4     5   ar
     8     5     6    1
     9     6     7    1
    10     7     8    1
    11     8     9   am
    12     8    18    2
    13     9    10    1
    14    10    11   ar
    15    10    15   ar
    16    11    12   ar
    17    12    13   ar
    18    12    17    1
    19    13    14   ar
    20    14    15   ar
    21    14    16    1
    22    19    20    1
    23    20    21   am
    24    20    24    1
    25    21    22    1
    26    21    31    2
    27    22    23    1
    28    23    24    1
    29    23    25    1
    30    25    26   ar
    31    25    30   ar
    32    26    27   ar
    33    27    28   ar
    34    28    29   ar
    35    29    30   ar
