@<TRIPOS>MOLECULE
34492_ChemDiv_8015-4200
 24 27 0 0 0
SMALL
GASTEIGER
Energy = 0

@<TRIPOS>ATOM
      1 S           0.8920    0.1420    0.0000 S.O2    1  LIG1        0.0771
      2 N           1.7420    0.6330    0.0000 N.3     1  LIG1       -0.0743
      3 C           2.5920    0.1420    0.0000 C.3     1  LIG1        0.1258
      4 C           3.4290    0.6330    0.0000 C.ar    1  LIG1        0.0249
      5 S           3.5290    1.6040    0.0000 S.2     1  LIG1       -0.0893
      6 C           4.4920    1.8040    0.0000 C.ar    1  LIG1        0.0352
      7 C           4.9790    0.9540    0.0000 C.ar    1  LIG1        0.0072
      8 C           4.3250    0.2290    0.0000 C.ar    1  LIG1        0.0041
      9 C           2.5920   -0.8290    0.0000 C.3     1  LIG1        0.0262
     10 C           0.0540   -0.3420    0.0000 C.ar    1  LIG1        0.1238
     11 C          -0.7960    0.1420    0.0000 C.ar    1  LIG1        0.0231
     12 C          -1.6380   -0.3420    0.0000 C.ar    1  LIG1        0.0388
     13 C          -1.6380   -1.3170    0.0000 C.ar    1  LIG1        0.1454
     14 O          -2.4830   -1.8000    0.0000 O.2     1  LIG1       -0.4535
     15 C          -3.3210   -1.3170    0.0000 C.ar    1  LIG1        0.1453
     16 C          -3.3210   -0.3420    0.0000 C.ar    1  LIG1        0.0375
     17 C          -4.1540    0.1420    0.0000 C.ar    1  LIG1        0.0031
     18 C          -4.9830   -0.3420    0.0000 C.ar    1  LIG1        0.0002
     19 C          -4.9830   -1.3170    0.0000 C.ar    1  LIG1        0.0031
     20 C          -4.1540   -1.8000    0.0000 C.ar    1  LIG1        0.0375
     21 C          -0.7960   -1.8000    0.0000 C.ar    1  LIG1        0.0389
     22 C           0.0540   -1.3170    0.0000 C.ar    1  LIG1        0.0231
     23 O           0.4040    0.9830    0.0000 O.2     1  LIG1       -0.1516
     24 O           1.3880   -0.7000    0.0000 O.2     1  LIG1       -0.1516
@<TRIPOS>BOND
     1     1     2    1
     2     1    10    1
     3     1    23    2
     4     1    24    2
     5     2     3    1
     6     3     4    1
     7     3     9    1
     8     4     5   ar
     9     4     8   ar
    10     5     6   ar
    11     6     7   ar
    12     7     8   ar
    13    10    11   ar
    14    10    22   ar
    15    11    12   ar
    16    12    13   ar
    17    12    16   ar
    18    13    14   ar
    19    13    21   ar
    20    14    15   ar
    21    15    16   ar
    22    15    20   ar
    23    16    17   ar
    24    17    18   ar
    25    18    19   ar
    26    19    20   ar
    27    21    22   ar
