@<TRIPOS>MOLECULE
34494_ChemDiv_8015-4201
 30 34 0 0 0
SMALL
GASTEIGER
Energy = 0

@<TRIPOS>ATOM
      1 S           1.1710    1.5040    0.0000 S.O2    1  LIG1       -0.0578
      2 N           0.3330    1.9790    0.0000 N.pl3   1  LIG1       -0.5358
      3 C          -0.4960    1.5040    0.0000 C.ar    1  LIG1       -0.1121
      4 C          -1.3290    1.9790    0.0000 C.ar    1  LIG1       -0.0210
      5 C          -2.1580    1.5040    0.0000 C.ar    1  LIG1        0.0314
      6 C          -3.8170    1.5040    0.0000 C.ar    1  LIG1        0.0110
      7 C          -3.8170    0.5420    0.0000 C.ar    1  LIG1        0.1188
      8 O          -2.9920    0.0670    0.0000 O.2     1  LIG1       -0.4581
      9 C          -2.1580    0.5420    0.0000 C.ar    1  LIG1        0.1444
     10 C          -1.3290    0.0670    0.0000 C.ar    1  LIG1        0.0356
     11 C          -0.4960    0.5420    0.0000 C.ar    1  LIG1       -0.0207
     12 C          -4.6380    0.0670    0.0000 C.3     1  LIG1        0.0642
     13 C          -5.4630    0.5420    0.0000 C.3     1  LIG1        0.0083
     14 C          -5.4630    1.5040    0.0000 C.3     1  LIG1        0.0052
     15 C          -4.6380    1.9790    0.0000 C.3     1  LIG1        0.0292
     16 C           1.9960    1.0210    0.0000 C.ar    1  LIG1        0.0891
     17 C           2.8330    1.5040    0.0000 C.ar    1  LIG1        0.0140
     18 C           3.6670    1.0210    0.0000 C.ar    1  LIG1       -0.0043
     19 C           3.6670    0.0670    0.0000 C.ar    1  LIG1        0.0646
     20 N           4.4960   -0.4040    0.0000 N.pl3   1  LIG1       -0.1943
     21 S           4.4960   -1.3750    0.0000 S.O2    1  LIG1        0.0588
     22 O           3.5330   -1.3750    0.0000 O.2     1  LIG1       -0.1542
     23 O           5.4580   -1.3750    0.0000 O.2     1  LIG1       -0.1542
     24 C           4.4960   -2.3380    0.0000 C.3     1  LIG1        0.1999
     25 C           5.3330    0.0670    0.0000 C.3     1  LIG1        0.1202
     26 C           5.3330    1.0210    0.0000 C.3     1  LIG1        0.0510
     27 C           2.8330   -0.4040    0.0000 C.ar    1  LIG1        0.0171
     28 C           1.9960    0.0670    0.0000 C.ar    1  LIG1        0.0182
     29 O           0.6830    0.6710    0.0000 O.2     1  LIG1       -0.1842
     30 O           1.6460    2.3420    0.0000 O.2     1  LIG1       -0.1842
@<TRIPOS>BOND
     1     1     2    1
     2     1    16    1
     3     1    29    2
     4     1    30    2
     5     2     3    1
     6     3     4   ar
     7     3    11   ar
     8     4     5   ar
     9     5     6   ar
    10     5     9   ar
    11     6     7   ar
    12     6    15    1
    13     7     8   ar
    14     7    12    1
    15     8     9   ar
    16     9    10   ar
    17    10    11   ar
    18    12    13    1
    19    13    14    1
    20    14    15    1
    21    16    17   ar
    22    16    28   ar
    23    17    18   ar
    24    18    19   ar
    25    18    26    1
    26    19    20    1
    27    19    27   ar
    28    20    21    1
    29    20    25    1
    30    21    22    2
    31    21    23    2
    32    21    24    1
    33    25    26    1
    34    27    28   ar
