@<TRIPOS>MOLECULE
34498_ChemDiv_8016-5205
 21 23 0 0 0
SMALL
GASTEIGER
Energy = 0

@<TRIPOS>ATOM
      1 C          -0.0080   -0.9580    0.0000 C.2     1  LIG1        0.0471
      2 C          -0.0080   -1.9500    0.0000 C.2     1  LIG1        0.1249
      3 O           0.8670   -2.4540    0.0000 O.3     1  LIG1       -0.4287
      4 C           1.7330   -1.9500    0.0000 C.2     1  LIG1        0.3218
      5 C           1.7330   -0.9580    0.0000 C.3     1  LIG1        0.1188
      6 C           0.8670   -0.4540    0.0000 C.3     1  LIG1        0.0613
      7 C           0.8670    0.5420    0.0000 C.ar    1  LIG1       -0.0155
      8 C           1.6790    1.1290    0.0000 C.ar    1  LIG1        0.0037
      9 S           1.3630    2.0880    0.0000 S.2     1  LIG1       -0.0959
     10 C           0.3630    2.0880    0.0000 C.ar    1  LIG1        0.0070
     11 C           0.0540    1.1290    0.0000 C.ar    1  LIG1       -0.0016
     12 C          -0.1330    2.9540    0.0000 C.3     1  LIG1        0.0381
     13 C           2.5380    0.6290    0.0000 C.3     1  LIG1        0.0378
     14 O           2.5920   -2.4500    0.0000 O.2     1  LIG1       -0.2497
     15 C          -0.8670   -2.4540    0.0000 C.3     1  LIG1        0.0648
     16 C          -1.7290   -1.9500    0.0000 C.3     1  LIG1        0.0144
     17 C          -1.7290   -0.9580    0.0000 C.3     1  LIG1        0.0693
     18 C          -0.8670   -0.4540    0.0000 C.2     1  LIG1        0.1720
     19 O          -0.8670    0.5420    0.0000 O.2     1  LIG1       -0.2916
     20 C          -1.7290   -2.9500    0.0000 C.3     1  LIG1        0.0009
     21 C          -2.5960   -1.4540    0.0000 C.3     1  LIG1        0.0009
@<TRIPOS>BOND
     1     1     2    2
     2     1     6    1
     3     1    18    1
     4     2     3    1
     5     2    15    1
     6     3     4    1
     7     4     5    1
     8     4    14    2
     9     5     6    1
    10     6     7    1
    11     7     8   ar
    12     7    11   ar
    13     8     9   ar
    14     8    13    1
    15     9    10   ar
    16    10    11   ar
    17    10    12    1
    18    15    16    1
    19    16    17    1
    20    16    20    1
    21    16    21    1
    22    17    18    1
    23    18    19    2
