@<TRIPOS>MOLECULE
34490_ChemDiv_8015-4142
 11 11 0 0 0
SMALL
GASTEIGER
Energy = 0

@<TRIPOS>ATOM
      1 N          -0.5000    0.7920    0.0000 N.ar    1  LIG1       -0.2046
      2 C           0.5000    0.7920    0.0000 C.ar    1  LIG1        0.1803
      3 C           0.8040   -0.1540    0.0000 C.ar    1  LIG1        0.1015
      4 S          -0.0080   -0.7420    0.0000 S.2     1  LIG1       -0.0458
      5 C          -0.8080   -0.1540    0.0000 C.ar    1  LIG1        0.1806
      6 N          -1.6830   -0.6540    0.0000 N.pl3   1  LIG1       -0.2128
      7 C          -2.5460   -0.1540    0.0000 C.3     1  LIG1        0.1377
      8 C           1.6750   -0.6540    0.0000 C.2     1  LIG1        0.1823
      9 O           1.6750   -1.6540    0.0000 O.2     1  LIG1       -0.2907
     10 C           2.5420   -0.1540    0.0000 C.3     1  LIG1        0.0779
     11 N           1.0000    1.6580    0.0000 N.pl3   1  LIG1       -0.1065
@<TRIPOS>BOND
     1     1     2   ar
     2     1     5   ar
     3     2     3   ar
     4     2    11    1
     5     3     4   ar
     6     3     8    1
     7     4     5   ar
     8     5     6    1
     9     6     7    1
    10     8     9    2
    11     8    10    1
