@<TRIPOS>MOLECULE
34500_ChemDiv_8015-8194
 25 29 0 0 0
SMALL
GASTEIGER
Energy = 0

@<TRIPOS>ATOM
      1 C           2.6330   -0.0540    0.0000 C.ar    1  LIG1        0.1390
      2 C           2.1710   -0.8920    0.0000 C.2     1  LIG1        0.2673
      3 N           1.1920   -0.8920    0.0000 N.am    1  LIG1       -0.2633
      4 C           0.6920   -0.0540    0.0000 C.3     1  LIG1        0.1567
      5 C          -0.2670   -0.0540    0.0000 C.3     1  LIG1        0.1600
      6 N          -0.7290   -0.8170    0.0000 N.4     1  LIG1        0.3718
      7 C          -1.6920   -0.8290    0.0000 C.3     1  LIG1        0.0457
      8 C          -1.5170    0.0580    0.0000 C.3     1  LIG1        0.0512
      9 C          -2.3540    0.7170    0.0000 C.3     1  LIG1        0.0055
     10 C          -3.0170   -0.0420    0.0000 C.3     1  LIG1        0.0004
     11 C          -3.1920   -1.0040    0.0000 C.3     1  LIG1        0.0055
     12 C          -2.4040   -1.5790    0.0000 C.3     1  LIG1        0.0512
     13 C          -4.0130   -1.2290    0.0000 C.3     1  LIG1        0.0004
     14 C          -3.3830   -0.4380    0.0000 C.3     1  LIG1        0.0055
     15 C          -2.5920   -0.9790    0.0000 C.3     1  LIG1        0.0512
     16 C          -3.2290    0.5210    0.0000 C.3     1  LIG1        0.0004
     17 C          -0.2670   -1.7170    0.0000 C.3     1  LIG1        0.1600
     18 C           0.7170   -1.7170    0.0000 C.3     1  LIG1        0.1567
     19 O           2.6330   -1.7380    0.0000 O.2     1  LIG1       -0.2682
     20 N           3.5580   -0.0670    0.0000 N.ar    1  LIG1       -0.2438
     21 N           3.5580    1.7420    0.0000 N.ar    1  LIG1       -0.1670
     22 C           2.5790    1.7420    0.0000 C.ar    1  LIG1        0.1284
     23 C           2.0710    0.8290    0.0000 C.ar    1  LIG1        0.0771
     24 BR          1.0790    0.8290    0.0000 Br      1  LIG1       -0.0456
     25 C           4.0080   -0.9540    0.0000 C.3     1  LIG1        0.1539
@<TRIPOS>BOND
     1     1     2    1
     2     1    20   ar
     3     1    23   ar
     4     2     3   am
     5     2    19    2
     6     3     4    1
     7     3    18    1
     8     4     5    1
     9     5     6    1
    10     6     7    1
    11     6    17    1
    12     7     8    1
    13     7    12    1
    14     7    15    1
    15     8     9    1
    16     9    10    1
    17     9    16    1
    18    10    11    1
    19    11    12    1
    20    11    13    1
    21    13    14    1
    22    14    15    1
    23    14    16    1
    24    17    18    1
    25    20    21   ar
    26    20    25    1
    27    21    22   ar
    28    22    23   ar
    29    23    24    1
