@<TRIPOS>MOLECULE
34505_ChemDiv_8015-2893
 20 21 0 0 0
SMALL
GASTEIGER
Energy = 0

@<TRIPOS>ATOM
      1 C          -1.2670   -0.0670    0.0000 C.ar    1  LIG1        0.2080
      2 N          -1.2670    0.8880    0.0000 N.ar    1  LIG1       -0.1292
      3 N           0.4000    0.8880    0.0000 N.ar    1  LIG1       -0.1414
      4 N           0.4000   -0.0670    0.0000 N.ar    1  LIG1       -0.0446
      5 N          -0.4330   -0.5540    0.0000 N.ar    1  LIG1       -0.1077
      6 C           1.0830    1.5750    0.0000 C.3     1  LIG1        0.2358
      7 C           2.0040    1.3250    0.0000 C.2     1  LIG1        0.2525
      8 N           2.2540    0.3960    0.0000 N.am    1  LIG1       -0.2779
      9 C           3.2540    0.3960    0.0000 C.3     1  LIG1        0.0935
     10 C           3.7500    1.2630    0.0000 C.3     1  LIG1        0.0233
     11 C           2.5080   -0.5670    0.0000 C.3     1  LIG1        0.0935
     12 C           1.6460   -1.0630    0.0000 C.3     1  LIG1        0.0233
     13 O           2.6880    1.9920    0.0000 O.2     1  LIG1       -0.2726
     14 C          -2.0920   -0.5540    0.0000 C.ar    1  LIG1        0.0668
     15 C          -2.9250   -0.0670    0.0000 C.ar    1  LIG1        0.1431
     16 F          -2.9250    0.8880    0.0000 F       1  LIG1       -0.2041
     17 C          -3.7540   -0.5540    0.0000 C.ar    1  LIG1        0.0297
     18 C          -3.7540   -1.5040    0.0000 C.ar    1  LIG1        0.0023
     19 C          -2.9250   -1.9880    0.0000 C.ar    1  LIG1        0.0002
     20 C          -2.0920   -1.5040    0.0000 C.ar    1  LIG1        0.0054
@<TRIPOS>BOND
     1     1     2   ar
     2     1     5   ar
     3     1    14    1
     4     2     3   ar
     5     3     4   ar
     6     3     6    1
     7     4     5   ar
     8     6     7    1
     9     7     8   am
    10     7    13    2
    11     8     9    1
    12     8    11    1
    13     9    10    1
    14    11    12    1
    15    14    15   ar
    16    14    20   ar
    17    15    16    1
    18    15    17   ar
    19    17    18   ar
    20    18    19   ar
    21    19    20   ar
