@<TRIPOS>MOLECULE
34501_ChemDiv_8014-2726
 19 22 0 0 0
SMALL
GASTEIGER
Energy = 0

@<TRIPOS>ATOM
      1 N           0.0250   -0.1170    0.0000 N.ar    1  LIG1       -0.2893
      2 C           0.8460   -0.6830    0.0000 C.ar    1  LIG1        0.2501
      3 O           0.5290   -1.6790    0.0000 O.2     1  LIG1       -0.4306
      4 C          -0.4830   -1.6790    0.0000 C.ar    1  LIG1        0.1633
      5 C          -0.8000   -0.6830    0.0000 C.ar    1  LIG1        0.0975
      6 C          -1.7790   -0.4960    0.0000 C.ar    1  LIG1        0.0204
      7 C          -2.4580   -1.2250    0.0000 C.ar    1  LIG1        0.0017
      8 C          -2.1500   -2.1830    0.0000 C.ar    1  LIG1        0.0032
      9 C          -1.1580   -2.4040    0.0000 C.ar    1  LIG1        0.0391
     10 S           1.8000   -0.3380    0.0000 S.2     1  LIG1        0.0094
     11 C          -0.0290    0.8380    0.0000 C.3     1  LIG1        0.1260
     12 C           0.7750    1.6580    0.0000 C.3     1  LIG1        0.1688
     13 O           1.9790    1.8080    0.0000 O.3     1  LIG1       -0.3229
     14 C           2.4540    1.5210    0.0000 C.3     1  LIG1        0.2959
     15 C           1.7670    0.6130    0.0000 C.2     1  LIG1        0.2087
     16 C           0.7330    0.3290    0.0000 C.3     1  LIG1        0.0950
     17 O           2.0960    0.1580    0.0000 O.2     1  LIG1       -0.2907
     18 O           2.4540    2.4080    0.0000 O.3     1  LIG1       -0.3223
     19 C           0.7750    2.4080    0.0000 C.3     1  LIG1        0.1766
@<TRIPOS>BOND
     1     1     2   ar
     2     1     5   ar
     3     1    11    1
     4     2     3   ar
     5     2    10    2
     6     3     4   ar
     7     4     5   ar
     8     4     9   ar
     9     5     6   ar
    10     6     7   ar
    11     7     8   ar
    12     8     9   ar
    13    11    12    1
    14    11    16    1
    15    12    13    1
    16    12    19    1
    17    13    14    1
    18    14    15    1
    19    14    18    1
    20    15    16    1
    21    15    17    2
    22    18    19    1
