@<TRIPOS>MOLECULE
34506_ChemDiv_8015-8432
 19 20 0 0 0
SMALL
GASTEIGER
Energy = 0

@<TRIPOS>ATOM
      1 CA          1.3420   -0.2630    0.0000 C.2     1  LIG1        0.1116
      2 C           0.7540    0.5460    0.0000 C.2     1  LIG1        0.1079
      3 C          -0.1830    0.2380    0.0000 C.2     1  LIG1        0.0479
      4 C          -0.1830   -0.7540    0.0000 C.2     1  LIG1        0.0845
      5 N           0.7540   -1.0630    0.0000 N.2     1  LIG1       -0.2429
      6 C          -1.0460   -1.2540    0.0000 C.2     1  LIG1        0.0587
      7 C          -1.9130   -0.7540    0.0000 C.2     1  LIG1        0.1724
      8 C          -1.9130    0.2380    0.0000 C.2     1  LIG1        0.1811
      9 C          -1.0460    0.7380    0.0000 C.3     1  LIG1        0.1994
     10 O          -1.0330    1.7330    0.0000 O.3     1  LIG1       -0.3413
     11 C          -1.8830    2.2460    0.0000 C.3     1  LIG1        0.1751
     12 O          -2.8250    0.7080    0.0000 O.2     1  LIG1       -0.4699
     13 C          -2.8500    1.7210    0.0000 C.3     1  LIG1        0.2523
     14 O          -2.8040   -1.2420    0.0000 O.2     1  LIG1       -0.4686
     15 C          -2.8250   -2.2420    0.0000 C.3     1  LIG1        0.2526
     16 N           1.0790    1.5000    0.0000 N.pl3   1  LIG1       -0.1266
     17 C           2.3420   -0.2750    0.0000 C.2     1  LIG1        0.0918
     18 O           2.8460    0.5830    0.0000 O.co2   1  LIG1       -0.5430
     19 OXT         2.8460   -1.1420    0.0000 O.co2   1  LIG1       -0.5430
@<TRIPOS>BOND
     1     1     2    1
     2     1     5    2
     3     1    17    1
     4     2     3    2
     5     2    16    1
     6     3     4    1
     7     3     9    1
     8     4     5    1
     9     4     6    2
    10     6     7    1
    11     7     8    2
    12     7    14    1
    13     8     9    1
    14     8    12    1
    15     9    10    1
    16    10    11    1
    17    12    13    1
    18    14    15    1
    19    17    18   ar
    20    17    19   ar
