@<TRIPOS>MOLECULE
34504_ChemDiv_8015-8215
 25 27 0 0 0
SMALL
GASTEIGER
Energy = 0

@<TRIPOS>ATOM
      1 C           2.1580   -1.2460    0.0000 C.2     1  LIG1        0.2997
      2 N           1.2960   -0.7460    0.0000 N.am    1  LIG1       -0.1959
      3 C           1.2960    0.2580    0.0000 C.3     1  LIG1        0.1234
      4 C           2.1580    0.7500    0.0000 C.3     1  LIG1        0.0678
      5 C           2.1580    1.7500    0.0000 C.2     1  LIG1        0.0524
      6 O           1.2960    2.2500    0.0000 O.co2   1  LIG1       -0.5491
      7 O           3.0290    2.2500    0.0000 O.co2   1  LIG1       -0.5491
      8 C           0.4290    0.7500    0.0000 C.ar    1  LIG1       -0.0020
      9 C          -0.4380    0.2580    0.0000 C.ar    1  LIG1        0.0005
     10 C          -1.3080    0.7500    0.0000 C.ar    1  LIG1        0.0366
     11 C          -1.3080    1.7500    0.0000 C.ar    1  LIG1        0.1384
     12 O          -2.1710    2.2500    0.0000 O.3     1  LIG1       -0.4792
     13 C          -3.0330    1.7500    0.0000 C.3     1  LIG1        0.1659
     14 C          -3.1380    0.7580    0.0000 C.3     1  LIG1        0.0435
     15 C          -4.1130    0.5460    0.0000 C.3     1  LIG1        0.0038
     16 C          -4.6210    1.4130    0.0000 C.3     1  LIG1        0.0038
     17 C          -3.9460    2.1580    0.0000 C.3     1  LIG1        0.0435
     18 C          -0.4380    2.2500    0.0000 C.ar    1  LIG1        0.0366
     19 C           0.4290    1.7500    0.0000 C.ar    1  LIG1        0.0005
     20 C           3.0290   -0.7460    0.0000 C.ar    1  LIG1        0.2002
     21 O           3.9460   -1.1580    0.0000 O.2     1  LIG1       -0.4458
     22 C           4.6170   -0.4080    0.0000 C.ar    1  LIG1        0.1798
     23 C           4.1080    0.4580    0.0000 C.ar    1  LIG1        0.0440
     24 C           3.1330    0.2460    0.0000 C.ar    1  LIG1        0.0455
     25 O           2.1580   -2.2460    0.0000 O.2     1  LIG1       -0.2650
@<TRIPOS>BOND
     1     1     2   am
     2     1    20    1
     3     1    25    2
     4     2     3    1
     5     3     4    1
     6     3     8    1
     7     4     5    1
     8     5     6   ar
     9     5     7   ar
    10     8     9   ar
    11     8    19   ar
    12     9    10   ar
    13    10    11   ar
    14    11    12    1
    15    11    18   ar
    16    12    13    1
    17    13    14    1
    18    13    17    1
    19    14    15    1
    20    15    16    1
    21    16    17    1
    22    18    19   ar
    23    20    21   ar
    24    20    24   ar
    25    21    22   ar
    26    22    23   ar
    27    23    24   ar
