@<TRIPOS>MOLECULE
34503_ChemDiv_8014-2735
 25 27 0 0 0
SMALL
GASTEIGER
Energy = 0

@<TRIPOS>ATOM
      1 N          -1.1000    1.1380    0.0000 N.ar    1  LIG1       -0.1292
      2 N           0.5670    1.1380    0.0000 N.ar    1  LIG1       -0.1413
      3 N           0.5670    0.1830    0.0000 N.ar    1  LIG1       -0.0446
      4 N          -0.2630   -0.3040    0.0000 N.ar    1  LIG1       -0.1077
      5 C          -1.1000    0.1830    0.0000 C.ar    1  LIG1        0.2058
      6 C          -1.9290   -0.3040    0.0000 C.ar    1  LIG1        0.0394
      7 C          -2.7580    0.1830    0.0000 C.ar    1  LIG1        0.0037
      8 C          -3.5880   -0.3040    0.0000 C.ar    1  LIG1        0.0063
      9 C          -3.5880   -1.2630    0.0000 C.ar    1  LIG1        0.0252
     10 S          -4.4500   -1.7580    0.0000 S.3     1  LIG1       -0.1127
     11 C          -5.3130   -1.2630    0.0000 C.3     1  LIG1        0.0742
     12 C          -2.7580   -1.7460    0.0000 C.ar    1  LIG1        0.0063
     13 C          -1.9290   -1.2630    0.0000 C.ar    1  LIG1        0.0037
     14 C           1.2460    1.8170    0.0000 C.3     1  LIG1        0.2377
     15 C           2.1750    1.5710    0.0000 C.2     1  LIG1        0.2725
     16 N           2.4250    0.6460    0.0000 N.am    1  LIG1       -0.1744
     17 C           3.3830    0.3880    0.0000 C.ar    1  LIG1        0.1072
     18 C           3.6380   -0.5750    0.0000 C.ar    1  LIG1        0.1539
     19 O           2.9380   -1.2790    0.0000 O.3     1  LIG1       -0.4701
     20 C           3.1920   -2.2380    0.0000 C.3     1  LIG1        0.2525
     21 C           4.6000   -0.8330    0.0000 C.ar    1  LIG1        0.0383
     22 C           5.3080   -0.1290    0.0000 C.ar    1  LIG1        0.0032
     23 C           5.0420    0.8330    0.0000 C.ar    1  LIG1        0.0015
     24 C           4.0790    1.0880    0.0000 C.ar    1  LIG1        0.0197
     25 O           2.8540    2.2420    0.0000 O.2     1  LIG1       -0.2707
@<TRIPOS>BOND
     1     1     2   ar
     2     1     5   ar
     3     2     3   ar
     4     2    14    1
     5     3     4   ar
     6     4     5   ar
     7     5     6    1
     8     6     7   ar
     9     6    13   ar
    10     7     8   ar
    11     8     9   ar
    12     9    10    1
    13     9    12   ar
    14    10    11    1
    15    12    13   ar
    16    14    15    1
    17    15    16   am
    18    15    25    2
    19    16    17    1
    20    17    18   ar
    21    17    24   ar
    22    18    19    1
    23    18    21   ar
    24    19    20    1
    25    21    22   ar
    26    22    23   ar
    27    23    24   ar
