@<TRIPOS>MOLECULE
34507_ChemDiv_8015-3241
 28 30 0 0 0
SMALL
GASTEIGER
Energy = 0

@<TRIPOS>ATOM
      1 N          -2.2290    1.4380    0.0000 N.ar    1  LIG1       -0.1292
      2 N          -0.5710    1.4380    0.0000 N.ar    1  LIG1       -0.1413
      3 N          -0.5710    0.4750    0.0000 N.ar    1  LIG1       -0.0446
      4 N          -1.4000   -0.0040    0.0000 N.ar    1  LIG1       -0.1077
      5 C          -2.2290    0.4750    0.0000 C.ar    1  LIG1        0.2058
      6 C          -3.0580   -0.0040    0.0000 C.ar    1  LIG1        0.0393
      7 C          -3.8920    0.4750    0.0000 C.ar    1  LIG1        0.0032
      8 C          -4.7290   -0.0040    0.0000 C.ar    1  LIG1        0.0001
      9 C          -4.7290   -0.9670    0.0000 C.ar    1  LIG1        0.0000
     10 C          -3.8920   -1.4460    0.0000 C.ar    1  LIG1        0.0001
     11 C          -3.0580   -0.9670    0.0000 C.ar    1  LIG1        0.0032
     12 C           0.1130    2.1130    0.0000 C.3     1  LIG1        0.2377
     13 C           1.0380    1.8630    0.0000 C.2     1  LIG1        0.2725
     14 N           1.2830    0.9380    0.0000 N.am    1  LIG1       -0.1744
     15 C           2.1460    0.4380    0.0000 C.ar    1  LIG1        0.1072
     16 C           2.1420   -0.5540    0.0000 C.ar    1  LIG1        0.1537
     17 O           1.2790   -1.0460    0.0000 O.3     1  LIG1       -0.4742
     18 C           1.2750   -2.0460    0.0000 C.3     1  LIG1        0.2055
     19 C           2.1380   -2.5420    0.0000 C.3     1  LIG1        0.0473
     20 C           2.9960   -2.0380    0.0000 C.3     1  LIG1        0.0038
     21 C           3.8580   -2.5380    0.0000 C.3     1  LIG1        0.0001
     22 C           4.7250   -2.0330    0.0000 C.3     1  LIG1        0.0000
     23 C           4.7170   -1.0380    0.0000 C.3     1  LIG1        0.0000
     24 C           3.0000   -1.0500    0.0000 C.ar    1  LIG1        0.0382
     25 C           3.8630   -0.5540    0.0000 C.ar    1  LIG1        0.0032
     26 C           3.8580    0.4460    0.0000 C.ar    1  LIG1        0.0015
     27 C           3.0000    0.9380    0.0000 C.ar    1  LIG1        0.0197
     28 O           1.7170    2.5460    0.0000 O.2     1  LIG1       -0.2707
@<TRIPOS>BOND
     1     1     2   ar
     2     1     5   ar
     3     2     3   ar
     4     2    12    1
     5     3     4   ar
     6     4     5   ar
     7     5     6    1
     8     6     7   ar
     9     6    11   ar
    10     7     8   ar
    11     8     9   ar
    12     9    10   ar
    13    10    11   ar
    14    12    13    1
    15    13    14   am
    16    13    28    2
    17    14    15    1
    18    15    16   ar
    19    15    27   ar
    20    16    17    1
    21    16    24   ar
    22    17    18    1
    23    18    19    1
    24    19    20    1
    25    20    21    1
    26    21    22    1
    27    22    23    1
    28    24    25   ar
    29    25    26   ar
    30    26    27   ar
