@<TRIPOS>MOLECULE
34502_ChemDiv_8015-8211
 31 36 0 0 0
SMALL
GASTEIGER
Energy = 0

@<TRIPOS>ATOM
      1 C          -3.1960   -1.9830    0.0000 C.3     1  LIG1        0.0457
      2 N          -2.1960   -1.9710    0.0000 N.4     1  LIG1        0.3718
      3 C          -1.7210   -2.8960    0.0000 C.3     1  LIG1        0.1600
      4 C          -0.7080   -2.8960    0.0000 C.3     1  LIG1        0.1567
      5 N          -0.2210   -2.0420    0.0000 N.am    1  LIG1       -0.2645
      6 C           0.7880   -2.0420    0.0000 C.2     1  LIG1        0.2494
      7 C           1.2130   -1.2460    0.0000 C.ar    1  LIG1        0.0536
      8 C           0.7170   -0.4710    0.0000 C.ar    1  LIG1        0.0043
      9 C           1.2130    0.4080    0.0000 C.ar    1  LIG1       -0.0022
     10 C           2.2170    0.4080    0.0000 C.ar    1  LIG1        0.0021
     11 C           2.7250    1.2210    0.0000 C.3     1  LIG1        0.1539
     12 N           3.6830    1.2080    0.0000 N.ar    1  LIG1       -0.2444
     13 N           4.1460    0.3750    0.0000 N.ar    1  LIG1       -0.1668
     14 C           5.1170    0.3750    0.0000 C.ar    1  LIG1        0.1283
     15 C           5.1170    2.0580    0.0000 C.ar    1  LIG1        0.0741
     16 C           4.2080    2.0580    0.0000 C.ar    1  LIG1        0.1037
     17 BR          5.5830    2.9130    0.0000 Br      1  LIG1       -0.0457
     18 C           2.6750   -0.4960    0.0000 C.ar    1  LIG1       -0.0022
     19 C           2.1790   -1.2460    0.0000 C.ar    1  LIG1        0.0043
     20 O           1.2670   -2.9080    0.0000 O.2     1  LIG1       -0.2699
     21 C          -0.7380   -1.1830    0.0000 C.3     1  LIG1        0.1567
     22 C          -1.7210   -1.1830    0.0000 C.3     1  LIG1        0.1600
     23 C          -3.9380   -2.7460    0.0000 C.3     1  LIG1        0.0512
     24 C          -4.7420   -2.1580    0.0000 C.3     1  LIG1        0.0055
     25 C          -4.5670   -1.1710    0.0000 C.3     1  LIG1        0.0004
     26 C          -3.8790   -0.3790    0.0000 C.3     1  LIG1        0.0055
     27 C          -3.0210   -1.0580    0.0000 C.3     1  LIG1        0.0512
     28 C          -4.7880   -0.5830    0.0000 C.3     1  LIG1        0.0004
     29 C          -4.9500   -1.5710    0.0000 C.3     1  LIG1        0.0055
     30 C          -4.1250   -2.1330    0.0000 C.3     1  LIG1        0.0512
     31 C          -5.5880   -2.3960    0.0000 C.3     1  LIG1        0.0004
@<TRIPOS>BOND
     1     1     2    1
     2     1    23    1
     3     1    27    1
     4     1    30    1
     5     2     3    1
     6     2    22    1
     7     3     4    1
     8     4     5    1
     9     5     6   am
    10     5    21    1
    11     6     7    1
    12     6    20    2
    13     7     8   ar
    14     7    19   ar
    15     8     9   ar
    16     9    10   ar
    17    10    11    1
    18    10    18   ar
    19    11    12    1
    20    12    13   ar
    21    12    16   ar
    22    13    14   ar
    23    14    15   ar
    24    15    16   ar
    25    15    17    1
    26    18    19   ar
    27    21    22    1
    28    23    24    1
    29    24    25    1
    30    24    31    1
    31    25    26    1
    32    26    27    1
    33    26    28    1
    34    28    29    1
    35    29    30    1
    36    29    31    1
