@<TRIPOS>MOLECULE
34510_ChemDiv_8015-8470
 18 20 0 0 0
SMALL
GASTEIGER
Energy = 0

@<TRIPOS>ATOM
      1 N           0.2080    0.8080    0.0000 N.am    1  LIG1       -0.2101
      2 C          -0.3580    1.6080    0.0000 C.2     1  LIG1        0.2556
      3 C          -1.3130    1.3000    0.0000 C.ar    1  LIG1        0.0584
      4 C          -1.3130    0.2830    0.0000 C.ar    1  LIG1        0.0584
      5 C          -0.3580   -0.0170    0.0000 C.2     1  LIG1        0.2556
      6 O          -0.0540   -0.9790    0.0000 O.2     1  LIG1       -0.2695
      7 C          -2.1630   -0.2210    0.0000 C.ar    1  LIG1        0.0047
      8 C          -3.0330    0.2830    0.0000 C.ar    1  LIG1        0.0001
      9 C          -3.0330    1.3000    0.0000 C.ar    1  LIG1        0.0001
     10 C          -2.1630    1.8080    0.0000 C.ar    1  LIG1        0.0047
     11 O          -0.0540    2.5630    0.0000 O.2     1  LIG1       -0.2695
     12 C           1.2080    0.8250    0.0000 C.3     1  LIG1        0.2335
     13 C           1.7080   -0.0420    0.0000 C.ar    1  LIG1        0.4519
     14 N           1.4040   -0.9960    0.0000 N.ar    1  LIG1        0.1960
     15 C           2.2290   -1.5580    0.0000 C.ar    1  LIG1        0.7253
     16 N           3.0290   -0.9960    0.0000 N.ar    1  LIG1        0.3221
     17 N           2.7210   -0.0420    0.0000 N.ar    1  LIG1        0.1577
     18 N           2.2290   -2.5580    0.0000 N.pl3   1  LIG1        0.0250
@<TRIPOS>BOND
     1     1     2   am
     2     1     5   am
     3     1    12    1
     4     2     3    1
     5     2    11    2
     6     3     4   ar
     7     3    10   ar
     8     4     5    1
     9     4     7   ar
    10     5     6    2
    11     7     8   ar
    12     8     9   ar
    13     9    10   ar
    14    12    13    1
    15    13    14   ar
    16    13    17   ar
    17    14    15   ar
    18    15    16   ar
    19    15    18    1
    20    16    17   ar
