@<TRIPOS>MOLECULE
34516_ChemDiv_8015-4228
 30 33 0 0 0
SMALL
GASTEIGER
Energy = 0

@<TRIPOS>ATOM
      1 N          -0.5080   -0.0040    0.0000 N.ar    1  LIG1       -0.2453
      2 C           0.5000   -0.0040    0.0000 C.ar    1  LIG1        0.0812
      3 C           1.0000    0.8710    0.0000 C.ar    1  LIG1        0.0190
      4 C           0.5000    1.7290    0.0000 C.ar    1  LIG1        0.0030
      5 C          -0.4960    1.7290    0.0000 C.ar    1  LIG1        0.0178
      6 C          -1.0080    0.8710    0.0000 C.ar    1  LIG1        0.0826
      7 C          -2.0000    0.8710    0.0000 C.ar    1  LIG1        0.0371
      8 C          -2.5000    1.7380    0.0000 C.ar    1  LIG1        0.0921
      9 N          -3.5080    1.7380    0.0000 N.pl3   1  LIG1       -0.1006
     10 S          -4.0080    0.8710    0.0000 S.O2    1  LIG1        0.0750
     11 O          -4.8710    1.3710    0.0000 O.2     1  LIG1       -0.1528
     12 O          -3.1380    0.3670    0.0000 O.2     1  LIG1       -0.1528
     13 C          -4.5000    0.0080    0.0000 C.3     1  LIG1        0.2016
     14 C          -2.0000    2.6080    0.0000 C.ar    1  LIG1        0.0181
     15 C          -1.0000    2.6080    0.0000 C.ar    1  LIG1        0.0029
     16 C           1.0000    2.5960    0.0000 C.ar    1  LIG1        0.0015
     17 C           2.0000    2.5960    0.0000 C.ar    1  LIG1        0.0180
     18 C           2.5000    1.7250    0.0000 C.ar    1  LIG1        0.0907
     19 N           3.5000    1.7250    0.0000 N.pl3   1  LIG1       -0.1006
     20 S           4.0000    0.8580    0.0000 S.O2    1  LIG1        0.0750
     21 O           3.1290    0.3540    0.0000 O.2     1  LIG1       -0.1528
     22 O           4.8670    1.3580    0.0000 O.2     1  LIG1       -0.1528
     23 C           4.4920   -0.0080    0.0000 C.3     1  LIG1        0.2016
     24 C           2.0000    0.8710    0.0000 C.ar    1  LIG1        0.0195
     25 C           1.0000   -0.8710    0.0000 C.ar    1  LIG1        0.0176
     26 C           1.9920   -0.8710    0.0000 C.ar    1  LIG1        0.0015
     27 C           2.4920   -1.7330    0.0000 C.ar    1  LIG1        0.0000
     28 C           1.9920   -2.6040    0.0000 C.ar    1  LIG1        0.0000
     29 C           1.0000   -2.6040    0.0000 C.ar    1  LIG1        0.0000
     30 C           0.5000   -1.7330    0.0000 C.ar    1  LIG1        0.0015
@<TRIPOS>BOND
     1     1     2   ar
     2     1     6   ar
     3     2     3   ar
     4     2    25    1
     5     3     4   ar
     6     3    24   ar
     7     4     5   ar
     8     4    16   ar
     9     5     6   ar
    10     5    15   ar
    11     6     7   ar
    12     7     8   ar
    13     8     9    1
    14     8    14   ar
    15     9    10    1
    16    10    11    2
    17    10    12    2
    18    10    13    1
    19    14    15   ar
    20    16    17   ar
    21    17    18   ar
    22    18    19    1
    23    18    24   ar
    24    19    20    1
    25    20    21    2
    26    20    22    2
    27    20    23    1
    28    25    26   ar
    29    25    30   ar
    30    26    27   ar
    31    27    28   ar
    32    28    29   ar
    33    29    30   ar
