@<TRIPOS>MOLECULE
34513_ChemDiv_C592-2035
 35 40 0 0 0
SMALL
GASTEIGER
Energy = 0

@<TRIPOS>ATOM
      1 N           0.4750    2.0290    0.0000 N.ar    1  LIG1       -0.2924
      2 C           1.2790    1.4330    0.0000 C.ar    1  LIG1        0.1934
      3 N           0.9710    0.4750    0.0000 N.ar    1  LIG1       -0.1224
      4 N          -0.0170    0.4670    0.0000 N.ar    1  LIG1       -0.1310
      5 C          -0.3380    1.4250    0.0000 C.ar    1  LIG1        0.1657
      6 C          -1.2960    1.7250    0.0000 C.3     1  LIG1        0.1805
      7 N          -1.8080    0.8580    0.0000 N.am    1  LIG1       -0.1972
      8 C          -2.8130    0.8710    0.0000 C.2     1  LIG1        0.2408
      9 C          -3.3130    0.0040    0.0000 C.3     1  LIG1        0.0705
     10 C          -3.6670   -0.8920    0.0000 C.3     1  LIG1        0.0087
     11 C          -4.6210   -1.0290    0.0000 C.3     1  LIG1        0.0005
     12 C          -5.2210   -0.2790    0.0000 C.3     1  LIG1        0.0000
     13 C          -4.8790    0.6170    0.0000 C.3     1  LIG1        0.0005
     14 C          -3.9210    0.7670    0.0000 C.3     1  LIG1        0.0087
     15 C          -4.7170   -0.3750    0.0000 C.3     1  LIG1        0.0000
     16 C          -4.0500   -1.1630    0.0000 C.3     1  LIG1        0.0005
     17 C          -3.0460   -1.0130    0.0000 C.3     1  LIG1        0.0087
     18 C          -4.4380   -2.0920    0.0000 C.3     1  LIG1        0.0000
     19 O          -3.3040    1.7380    0.0000 O.2     1  LIG1       -0.2734
     20 S           2.2380    1.7380    0.0000 S.3     1  LIG1       -0.0658
     21 C           2.9830    1.0710    0.0000 C.3     1  LIG1        0.1504
     22 C           2.7710    0.0880    0.0000 C.2     1  LIG1        0.2408
     23 N           3.5170   -0.5750    0.0000 N.am    1  LIG1       -0.2582
     24 C           3.3040   -1.5580    0.0000 C.ar    1  LIG1        0.0498
     25 C           4.0580   -2.2250    0.0000 C.ar    1  LIG1       -0.0084
     26 C           5.0080   -1.9290    0.0000 C.3     1  LIG1        0.0294
     27 C           5.2170   -0.9500    0.0000 C.3     1  LIG1        0.0266
     28 C           4.4710   -0.2630    0.0000 C.3     1  LIG1        0.0986
     29 C           3.8380   -3.2000    0.0000 C.ar    1  LIG1       -0.0030
     30 C           2.9040   -3.5080    0.0000 C.ar    1  LIG1       -0.0002
     31 C           2.1580   -2.8420    0.0000 C.ar    1  LIG1        0.0013
     32 C           2.3630   -1.8630    0.0000 C.ar    1  LIG1        0.0146
     33 O           1.8290   -0.2170    0.0000 O.2     1  LIG1       -0.2736
     34 C           0.4750    3.0170    0.0000 C.3     1  LIG1        0.1093
     35 C          -0.3920    3.5130    0.0000 C.3     1  LIG1        0.0266
@<TRIPOS>BOND
     1     1     2   ar
     2     1     5   ar
     3     1    34    1
     4     2     3   ar
     5     2    20    1
     6     3     4   ar
     7     4     5   ar
     8     5     6    1
     9     6     7    1
    10     7     8   am
    11     8     9    1
    12     8    19    2
    13     9    10    1
    14     9    14    1
    15     9    17    1
    16    10    11    1
    17    11    12    1
    18    11    18    1
    19    12    13    1
    20    13    14    1
    21    13    15    1
    22    15    16    1
    23    16    17    1
    24    16    18    1
    25    20    21    1
    26    21    22    1
    27    22    23   am
    28    22    33    2
    29    23    24    1
    30    23    28    1
    31    24    25   ar
    32    24    32   ar
    33    25    26    1
    34    25    29   ar
    35    26    27    1
    36    27    28    1
    37    29    30   ar
    38    30    31   ar
    39    31    32   ar
    40    34    35    1
