@<TRIPOS>MOLECULE
34518_ChemDiv_8015-4859
 30 33 0 0 0
SMALL
GASTEIGER
Energy = 0

@<TRIPOS>ATOM
      1 N          -0.4960    0.0040    0.0000 N.ar    1  LIG1       -0.2453
      2 C           0.4920   -0.0040    0.0000 C.ar    1  LIG1        0.0812
      3 C           0.9920    0.8580    0.0000 C.ar    1  LIG1        0.0190
      4 C           0.5040    1.7290    0.0000 C.ar    1  LIG1        0.0030
      5 C          -0.4960    1.7290    0.0000 C.ar    1  LIG1        0.0178
      6 C          -0.9960    0.8670    0.0000 C.ar    1  LIG1        0.0825
      7 C          -1.9960    0.8670    0.0000 C.ar    1  LIG1        0.0358
      8 C          -2.4960    1.7330    0.0000 C.ar    1  LIG1        0.0782
      9 N          -3.4920    1.7330    0.0000 N.am    1  LIG1       -0.1424
     10 C          -3.9920    0.8710    0.0000 C.2     1  LIG1        0.4255
     11 O          -3.4920    0.0040    0.0000 O.2     1  LIG1       -0.2242
     12 O          -4.9920    0.8670    0.0000 O.3     1  LIG1       -0.4292
     13 C          -5.4960    1.7330    0.0000 C.3     1  LIG1        0.2574
     14 C          -1.9960    2.6040    0.0000 C.ar    1  LIG1        0.0168
     15 C          -0.9920    2.6040    0.0000 C.ar    1  LIG1        0.0028
     16 C           1.0040    2.5920    0.0000 C.ar    1  LIG1        0.0014
     17 C           2.0000    2.5920    0.0000 C.ar    1  LIG1        0.0167
     18 C           2.5000    1.7290    0.0000 C.ar    1  LIG1        0.0768
     19 N           3.4920    1.7290    0.0000 N.am    1  LIG1       -0.1424
     20 C           3.9920    0.8580    0.0000 C.2     1  LIG1        0.4255
     21 O           3.4920   -0.0040    0.0000 O.2     1  LIG1       -0.2242
     22 O           4.9920    0.8580    0.0000 O.3     1  LIG1       -0.4292
     23 C           5.4920    1.7290    0.0000 C.3     1  LIG1        0.2574
     24 C           2.0000    0.8580    0.0000 C.ar    1  LIG1        0.0182
     25 C           0.9920   -0.8670    0.0000 C.ar    1  LIG1        0.0176
     26 C           0.4920   -1.7290    0.0000 C.ar    1  LIG1        0.0015
     27 C           0.9920   -2.6000    0.0000 C.ar    1  LIG1        0.0000
     28 C           1.9920   -2.6000    0.0000 C.ar    1  LIG1        0.0000
     29 C           2.5000   -1.7290    0.0000 C.ar    1  LIG1        0.0000
     30 C           1.9920   -0.8670    0.0000 C.ar    1  LIG1        0.0015
@<TRIPOS>BOND
     1     1     2   ar
     2     1     6   ar
     3     2     3   ar
     4     2    25    1
     5     3     4   ar
     6     3    24   ar
     7     4     5   ar
     8     4    16   ar
     9     5     6   ar
    10     5    15   ar
    11     6     7   ar
    12     7     8   ar
    13     8     9    1
    14     8    14   ar
    15     9    10   am
    16    10    11    2
    17    10    12    1
    18    12    13    1
    19    14    15   ar
    20    16    17   ar
    21    17    18   ar
    22    18    19    1
    23    18    24   ar
    24    19    20   am
    25    20    21    2
    26    20    22    1
    27    22    23    1
    28    25    26   ar
    29    25    30   ar
    30    26    27   ar
    31    27    28   ar
    32    28    29   ar
    33    29    30   ar
