@<TRIPOS>MOLECULE
34517_ChemDiv_C592-2047
 35 39 0 0 0
SMALL
GASTEIGER
Energy = 0

@<TRIPOS>ATOM
      1 N           1.0500    1.7710    0.0000 N.ar    1  LIG1       -0.2924
      2 C           1.8580    1.1750    0.0000 C.ar    1  LIG1        0.1934
      3 N           1.5460    0.2170    0.0000 N.ar    1  LIG1       -0.1224
      4 N           0.5580    0.2080    0.0000 N.ar    1  LIG1       -0.1310
      5 C           0.2380    1.1670    0.0000 C.ar    1  LIG1        0.1657
      6 C          -0.7210    1.4670    0.0000 C.3     1  LIG1        0.1805
      7 N          -1.2330    0.6000    0.0000 N.am    1  LIG1       -0.1972
      8 C          -2.2380    0.6130    0.0000 C.2     1  LIG1        0.2408
      9 C          -2.7380   -0.2540    0.0000 C.3     1  LIG1        0.0705
     10 C          -3.0920   -1.1500    0.0000 C.3     1  LIG1        0.0087
     11 C          -4.0460   -1.2880    0.0000 C.3     1  LIG1        0.0005
     12 C          -4.6460   -0.5380    0.0000 C.3     1  LIG1        0.0000
     13 C          -4.3040    0.3580    0.0000 C.3     1  LIG1        0.0005
     14 C          -3.3460    0.5080    0.0000 C.3     1  LIG1        0.0087
     15 C          -4.1420   -0.6330    0.0000 C.3     1  LIG1        0.0000
     16 C          -3.4750   -1.4210    0.0000 C.3     1  LIG1        0.0005
     17 C          -2.4710   -1.2750    0.0000 C.3     1  LIG1        0.0087
     18 C          -3.8630   -2.3500    0.0000 C.3     1  LIG1        0.0000
     19 O          -2.7290    1.4790    0.0000 O.2     1  LIG1       -0.2734
     20 S           2.8170    1.4790    0.0000 S.3     1  LIG1       -0.0658
     21 C           3.5630    0.8130    0.0000 C.3     1  LIG1        0.1519
     22 C           3.3500   -0.1750    0.0000 C.2     1  LIG1        0.2570
     23 N           4.1040   -0.8330    0.0000 N.am    1  LIG1       -0.1785
     24 C           3.8960   -1.8040    0.0000 C.ar    1  LIG1        0.0734
     25 C           2.9460   -2.1080    0.0000 C.ar    1  LIG1        0.0163
     26 C           2.7500   -3.0960    0.0000 C.ar    1  LIG1       -0.0029
     27 C           3.4830   -3.7710    0.0000 C.ar    1  LIG1       -0.0218
     28 C           4.4420   -3.4500    0.0000 C.ar    1  LIG1       -0.0029
     29 C           4.6420   -2.4710    0.0000 C.ar    1  LIG1        0.0163
     30 C           3.2830   -4.7420    0.0000 C.3     1  LIG1        0.0310
     31 O           2.4040   -0.4830    0.0000 O.2     1  LIG1       -0.2720
     32 C           1.0500    2.7580    0.0000 C.3     1  LIG1        0.1092
     33 C           0.1830    3.2540    0.0000 C.3     1  LIG1        0.0246
     34 C           0.1830    4.2500    0.0000 C.3     1  LIG1        0.0020
     35 C          -0.6750    4.7420    0.0000 C.3     1  LIG1        0.0001
@<TRIPOS>BOND
     1     1     2   ar
     2     1     5   ar
     3     1    32    1
     4     2     3   ar
     5     2    20    1
     6     3     4   ar
     7     4     5   ar
     8     5     6    1
     9     6     7    1
    10     7     8   am
    11     8     9    1
    12     8    19    2
    13     9    10    1
    14     9    14    1
    15     9    17    1
    16    10    11    1
    17    11    12    1
    18    11    18    1
    19    12    13    1
    20    13    14    1
    21    13    15    1
    22    15    16    1
    23    16    17    1
    24    16    18    1
    25    20    21    1
    26    21    22    1
    27    22    23   am
    28    22    31    2
    29    23    24    1
    30    24    25   ar
    31    24    29   ar
    32    25    26   ar
    33    26    27   ar
    34    27    28   ar
    35    27    30    1
    36    28    29   ar
    37    32    33    1
    38    33    34    1
    39    34    35    1
