@<TRIPOS>MOLECULE
34515_ChemDiv_C592-2046
 34 38 0 0 0
SMALL
GASTEIGER
Energy = 0

@<TRIPOS>ATOM
      1 N           1.0580    1.2830    0.0000 N.ar    1  LIG1       -0.2924
      2 C           1.8630    0.6880    0.0000 C.ar    1  LIG1        0.1934
      3 N           1.5540   -0.2710    0.0000 N.ar    1  LIG1       -0.1224
      4 N           0.5670   -0.2790    0.0000 N.ar    1  LIG1       -0.1310
      5 C           0.2460    0.6790    0.0000 C.ar    1  LIG1        0.1657
      6 C          -0.7130    0.9790    0.0000 C.3     1  LIG1        0.1805
      7 N          -1.2250    0.1130    0.0000 N.am    1  LIG1       -0.1972
      8 C          -2.2290    0.1250    0.0000 C.2     1  LIG1        0.2408
      9 C          -2.7290   -0.7420    0.0000 C.3     1  LIG1        0.0705
     10 C          -3.0830   -1.6380    0.0000 C.3     1  LIG1        0.0087
     11 C          -4.0370   -1.7750    0.0000 C.3     1  LIG1        0.0005
     12 C          -4.6380   -1.0250    0.0000 C.3     1  LIG1        0.0000
     13 C          -4.2960   -0.1290    0.0000 C.3     1  LIG1        0.0005
     14 C          -3.3380    0.0210    0.0000 C.3     1  LIG1        0.0087
     15 C          -4.1330   -1.1210    0.0000 C.3     1  LIG1        0.0000
     16 C          -3.4670   -1.9080    0.0000 C.3     1  LIG1        0.0005
     17 C          -2.4630   -1.7580    0.0000 C.3     1  LIG1        0.0087
     18 C          -3.8540   -2.8330    0.0000 C.3     1  LIG1        0.0000
     19 O          -2.7210    0.9920    0.0000 O.2     1  LIG1       -0.2734
     20 S           2.8210    0.9920    0.0000 S.3     1  LIG1       -0.0658
     21 C           3.5670    0.3250    0.0000 C.3     1  LIG1        0.1519
     22 C           3.3540   -0.6580    0.0000 C.2     1  LIG1        0.2570
     23 N           4.1000   -1.3210    0.0000 N.am    1  LIG1       -0.1785
     24 C           3.8880   -2.3040    0.0000 C.ar    1  LIG1        0.0734
     25 C           2.9460   -2.5960    0.0000 C.ar    1  LIG1        0.0166
     26 C           2.7330   -3.5710    0.0000 C.ar    1  LIG1        0.0013
     27 C           3.4750   -4.2540    0.0000 C.ar    1  LIG1        0.0001
     28 C           4.4330   -3.9380    0.0000 C.ar    1  LIG1        0.0013
     29 C           4.6330   -2.9630    0.0000 C.ar    1  LIG1        0.0166
     30 O           2.4080   -0.9710    0.0000 O.2     1  LIG1       -0.2720
     31 C           1.0580    2.2710    0.0000 C.3     1  LIG1        0.1092
     32 C           0.1920    2.7670    0.0000 C.3     1  LIG1        0.0246
     33 C           0.1920    3.7670    0.0000 C.3     1  LIG1        0.0020
     34 C          -0.6670    4.2540    0.0000 C.3     1  LIG1        0.0001
@<TRIPOS>BOND
     1     1     2   ar
     2     1     5   ar
     3     1    31    1
     4     2     3   ar
     5     2    20    1
     6     3     4   ar
     7     4     5   ar
     8     5     6    1
     9     6     7    1
    10     7     8   am
    11     8     9    1
    12     8    19    2
    13     9    10    1
    14     9    14    1
    15     9    17    1
    16    10    11    1
    17    11    12    1
    18    11    18    1
    19    12    13    1
    20    13    14    1
    21    13    15    1
    22    15    16    1
    23    16    17    1
    24    16    18    1
    25    20    21    1
    26    21    22    1
    27    22    23   am
    28    22    30    2
    29    23    24    1
    30    24    25   ar
    31    24    29   ar
    32    25    26   ar
    33    26    27   ar
    34    27    28   ar
    35    28    29   ar
    36    31    32    1
    37    32    33    1
    38    33    34    1
