@<TRIPOS>MOLECULE
34512_ChemDiv_8015-8498
 19 21 0 0 0
SMALL
GASTEIGER
Energy = 0

@<TRIPOS>ATOM
      1 N          -0.8670    0.0130    0.0000 N.am    1  LIG1       -0.2223
      2 C          -1.4290    0.8130    0.0000 C.2     1  LIG1        0.2551
      3 C          -2.3830    0.5080    0.0000 C.ar    1  LIG1        0.0584
      4 C          -2.3830   -0.5130    0.0000 C.ar    1  LIG1        0.0584
      5 C          -1.4290   -0.8130    0.0000 C.2     1  LIG1        0.2551
      6 O          -1.1290   -1.7670    0.0000 O.2     1  LIG1       -0.2695
      7 C          -3.2290   -1.0130    0.0000 C.ar    1  LIG1        0.0047
      8 C          -4.1040   -0.5130    0.0000 C.ar    1  LIG1        0.0001
      9 C          -4.1040    0.5080    0.0000 C.ar    1  LIG1        0.0001
     10 C          -3.2290    1.0080    0.0000 C.ar    1  LIG1        0.0047
     11 O          -1.1290    1.7710    0.0000 O.2     1  LIG1       -0.2695
     12 C           0.1540    0.0330    0.0000 C.3     1  LIG1        0.1149
     13 C           0.6540   -0.8380    0.0000 C.3     1  LIG1        0.1540
     14 C           1.6540   -0.8380    0.0000 C.ar    1  LIG1        0.4334
     15 N           2.3170   -1.5750    0.0000 N.ar    1  LIG1        0.1942
     16 C           3.2040   -1.1880    0.0000 C.ar    1  LIG1        0.7252
     17 N           3.1250   -0.2040    0.0000 N.ar    1  LIG1        0.3220
     18 N           2.1500    0.0330    0.0000 N.ar    1  LIG1        0.1559
     19 N           4.1000   -1.6790    0.0000 N.pl3   1  LIG1        0.0250
@<TRIPOS>BOND
     1     1     2   am
     2     1     5   am
     3     1    12    1
     4     2     3    1
     5     2    11    2
     6     3     4   ar
     7     3    10   ar
     8     4     5    1
     9     4     7   ar
    10     5     6    2
    11     7     8   ar
    12     8     9   ar
    13     9    10   ar
    14    12    13    1
    15    13    14    1
    16    14    15   ar
    17    14    18   ar
    18    15    16   ar
    19    16    17   ar
    20    16    19    1
    21    17    18   ar
