@<TRIPOS>MOLECULE
34528_ChemDiv_8015-4987
 30 34 0 0 0
SMALL
GASTEIGER
Energy = 0

@<TRIPOS>ATOM
      1 C           2.5040   -0.7500    0.0000 C.3     1  LIG1        0.0705
      2 C           1.6380   -1.2540    0.0000 C.2     1  LIG1        0.2407
      3 N           0.7630   -0.7500    0.0000 N.am    1  LIG1       -0.2023
      4 C           0.7630    0.2580    0.0000 C.3     1  LIG1        0.1230
      5 C           1.6380    0.7580    0.0000 C.3     1  LIG1        0.0678
      6 C           1.6380    1.7710    0.0000 C.2     1  LIG1        0.0524
      7 O           0.7630    2.2710    0.0000 O.co2   1  LIG1       -0.5491
      8 O           2.5040    2.2710    0.0000 O.co2   1  LIG1       -0.5491
      9 C          -0.1130    0.7580    0.0000 C.ar    1  LIG1       -0.0020
     10 C          -0.1130    1.7710    0.0000 C.ar    1  LIG1        0.0005
     11 C          -0.9830    2.2710    0.0000 C.ar    1  LIG1        0.0366
     12 C          -1.8580    1.7710    0.0000 C.ar    1  LIG1        0.1384
     13 O          -2.7330    2.2710    0.0000 O.3     1  LIG1       -0.4792
     14 C          -3.6000    1.7710    0.0000 C.3     1  LIG1        0.1659
     15 C          -4.5290    2.1830    0.0000 C.3     1  LIG1        0.0435
     16 C          -5.1960    1.4330    0.0000 C.3     1  LIG1        0.0038
     17 C          -4.6960    0.5580    0.0000 C.3     1  LIG1        0.0038
     18 C          -3.7080    0.7630    0.0000 C.3     1  LIG1        0.0435
     19 C          -1.8580    0.7580    0.0000 C.ar    1  LIG1        0.0366
     20 C          -0.9830    0.2580    0.0000 C.ar    1  LIG1        0.0005
     21 O           1.6380   -2.2670    0.0000 O.2     1  LIG1       -0.2734
     22 C           3.5170   -0.7500    0.0000 C.3     1  LIG1        0.0087
     23 C           4.4790   -0.1920    0.0000 C.3     1  LIG1        0.0005
     24 C           5.1920   -0.8790    0.0000 C.3     1  LIG1        0.0000
     25 C           4.3170   -0.7170    0.0000 C.3     1  LIG1        0.0005
     26 C           3.3880   -1.2540    0.0000 C.3     1  LIG1        0.0087
     27 C           4.0290    0.4580    0.0000 C.3     1  LIG1        0.0000
     28 C           3.3880    0.7580    0.0000 C.3     1  LIG1        0.0005
     29 C           2.5040    0.2580    0.0000 C.3     1  LIG1        0.0087
     30 C           4.3040    0.6460    0.0000 C.3     1  LIG1        0.0000
@<TRIPOS>BOND
     1     1     2    1
     2     1    22    1
     3     1    26    1
     4     1    29    1
     5     2     3   am
     6     2    21    2
     7     3     4    1
     8     4     5    1
     9     4     9    1
    10     5     6    1
    11     6     7   ar
    12     6     8   ar
    13     9    10   ar
    14     9    20   ar
    15    10    11   ar
    16    11    12   ar
    17    12    13    1
    18    12    19   ar
    19    13    14    1
    20    14    15    1
    21    14    18    1
    22    15    16    1
    23    16    17    1
    24    17    18    1
    25    19    20   ar
    26    22    23    1
    27    23    24    1
    28    23    30    1
    29    24    25    1
    30    25    26    1
    31    25    27    1
    32    27    28    1
    33    28    29    1
    34    28    30    1
