@<TRIPOS>MOLECULE
34520_ChemDiv_8015-4272
 29 32 0 0 0
SMALL
GASTEIGER
Energy = 0

@<TRIPOS>ATOM
      1 S           0.3040    0.0000    0.0000 S.O2    1  LIG1        0.0633
      2 N           1.1540    0.4880    0.0000 N.3     1  LIG1       -0.1555
      3 C           1.1540    1.4710    0.0000 C.3     1  LIG1        0.0961
      4 C           2.0040    1.9580    0.0000 C.3     1  LIG1        0.0235
      5 C           2.8460    1.4710    0.0000 C.3     1  LIG1        0.0252
      6 C           2.8460    0.4880    0.0000 C.3     1  LIG1        0.0235
      7 C           2.0040    0.0000    0.0000 C.3     1  LIG1        0.0961
      8 C           3.6960    1.9580    0.0000 C.ar    1  LIG1       -0.0224
      9 C           4.5460    1.4710    0.0000 C.ar    1  LIG1       -0.0043
     10 C           5.3920    1.9580    0.0000 C.ar    1  LIG1       -0.0003
     11 C           5.3920    2.9330    0.0000 C.ar    1  LIG1       -0.0000
     12 C           4.5460    3.4210    0.0000 C.ar    1  LIG1       -0.0003
     13 C           3.6960    2.9330    0.0000 C.ar    1  LIG1       -0.0043
     14 C          -0.5460   -0.4920    0.0000 C.ar    1  LIG1        0.1237
     15 C          -1.3880    0.0000    0.0000 C.ar    1  LIG1        0.0387
     16 C          -2.2330   -0.4920    0.0000 C.ar    1  LIG1        0.0810
     17 N          -3.9330   -0.4920    0.0000 N.ar    1  LIG1       -0.2799
     18 C          -3.9330   -1.4630    0.0000 C.ar    1  LIG1        0.3315
     19 N          -3.0830   -1.9540    0.0000 N.ar    1  LIG1       -0.2799
     20 C          -2.2330   -1.4630    0.0000 C.ar    1  LIG1        0.0798
     21 C          -1.3880   -1.9540    0.0000 C.ar    1  LIG1        0.0202
     22 C          -0.5460   -1.4630    0.0000 C.ar    1  LIG1        0.0215
     23 C          -3.0830   -2.9290    0.0000 C.3     1  LIG1        0.1106
     24 C          -3.9330   -3.4170    0.0000 C.3     1  LIG1        0.0266
     25 O          -4.7790   -1.9540    0.0000 O.2     1  LIG1       -0.2463
     26 C          -4.4210    0.3580    0.0000 C.3     1  LIG1        0.1106
     27 C          -5.3960    0.3580    0.0000 C.3     1  LIG1        0.0266
     28 O           0.7920   -0.8500    0.0000 O.2     1  LIG1       -0.1528
     29 O          -0.1830    0.8460    0.0000 O.2     1  LIG1       -0.1528
@<TRIPOS>BOND
     1     1     2    1
     2     1    14    1
     3     1    28    2
     4     1    29    2
     5     2     3    1
     6     2     7    1
     7     3     4    1
     8     4     5    1
     9     5     6    1
    10     5     8    1
    11     6     7    1
    12     8     9   ar
    13     8    13   ar
    14     9    10   ar
    15    10    11   ar
    16    11    12   ar
    17    12    13   ar
    18    14    15   ar
    19    14    22   ar
    20    15    16   ar
    21    16    17   ar
    22    16    20   ar
    23    17    18   ar
    24    17    26    1
    25    18    19   ar
    26    18    25    2
    27    19    20   ar
    28    19    23    1
    29    20    21   ar
    30    21    22   ar
    31    23    24    1
    32    26    27    1
