@<TRIPOS>MOLECULE
34526_ChemDiv_8015-4986
 27 29 0 0 0
SMALL
GASTEIGER
Energy = 0

@<TRIPOS>ATOM
      1 C           2.0880   -1.2420    0.0000 C.2     1  LIG1        0.2672
      2 C           2.9540   -0.7420    0.0000 C.ar    1  LIG1        0.0824
      3 C           3.8170   -1.2420    0.0000 C.ar    1  LIG1        0.1445
      4 F           3.8170   -2.2500    0.0000 F       1  LIG1       -0.2040
      5 C           4.6830   -0.7420    0.0000 C.ar    1  LIG1        0.0298
      6 C           4.6830    0.2540    0.0000 C.ar    1  LIG1        0.0023
      7 C           3.8170    0.7460    0.0000 C.ar    1  LIG1        0.0003
      8 C           2.9540    0.2540    0.0000 C.ar    1  LIG1        0.0068
      9 N           1.2170   -0.7420    0.0000 N.am    1  LIG1       -0.1985
     10 C           1.2170    0.2540    0.0000 C.3     1  LIG1        0.1233
     11 C           2.0880    0.7460    0.0000 C.3     1  LIG1        0.0678
     12 C           2.0880    1.7540    0.0000 C.2     1  LIG1        0.0524
     13 O           1.2170    2.2540    0.0000 O.co2   1  LIG1       -0.5491
     14 O           2.9540    2.2540    0.0000 O.co2   1  LIG1       -0.5491
     15 C           0.3540    0.7460    0.0000 C.ar    1  LIG1       -0.0020
     16 C           0.3540    1.7460    0.0000 C.ar    1  LIG1        0.0005
     17 C          -0.5170    2.2540    0.0000 C.ar    1  LIG1        0.0366
     18 C          -1.3710    1.7460    0.0000 C.ar    1  LIG1        0.1384
     19 O          -2.2420    2.2540    0.0000 O.3     1  LIG1       -0.4792
     20 C          -3.1040    1.7460    0.0000 C.3     1  LIG1        0.1659
     21 C          -3.2080    0.7540    0.0000 C.3     1  LIG1        0.0435
     22 C          -4.1830    0.5460    0.0000 C.3     1  LIG1        0.0038
     23 C          -4.6880    1.4170    0.0000 C.3     1  LIG1        0.0038
     24 C          -4.0170    2.1540    0.0000 C.3     1  LIG1        0.0435
     25 C          -1.3710    0.7460    0.0000 C.ar    1  LIG1        0.0366
     26 C          -0.5170    0.2540    0.0000 C.ar    1  LIG1        0.0005
     27 O           2.0880   -2.2500    0.0000 O.2     1  LIG1       -0.2683
@<TRIPOS>BOND
     1     1     2    1
     2     1     9   am
     3     1    27    2
     4     2     3   ar
     5     2     8   ar
     6     3     4    1
     7     3     5   ar
     8     5     6   ar
     9     6     7   ar
    10     7     8   ar
    11     9    10    1
    12    10    11    1
    13    10    15    1
    14    11    12    1
    15    12    13   ar
    16    12    14   ar
    17    15    16   ar
    18    15    26   ar
    19    16    17   ar
    20    17    18   ar
    21    18    19    1
    22    18    25   ar
    23    19    20    1
    24    20    21    1
    25    20    24    1
    26    21    22    1
    27    22    23    1
    28    23    24    1
    29    25    26   ar
