@<TRIPOS>MOLECULE
34521_ChemDiv_C592-3979
 31 33 0 0 0
SMALL
GASTEIGER
Energy = 0

@<TRIPOS>ATOM
      1 N          -1.8750   -1.4790    0.0000 N.ar    1  LIG1       -0.2909
      2 C          -2.6880   -2.0710    0.0000 C.ar    1  LIG1        0.1496
      3 N          -2.3830   -3.0210    0.0000 N.ar    1  LIG1       -0.1324
      4 N          -1.3750   -3.0210    0.0000 N.ar    1  LIG1       -0.1224
      5 C          -1.0670   -2.0710    0.0000 C.ar    1  LIG1        0.1935
      6 S          -0.1040   -1.7630    0.0000 S.3     1  LIG1       -0.0658
      7 C           0.7630   -2.2380    0.0000 C.3     1  LIG1        0.1519
      8 C           1.6080   -1.7210    0.0000 C.2     1  LIG1        0.2570
      9 N           1.6040   -0.7250    0.0000 N.am    1  LIG1       -0.1785
     10 C           2.4710   -0.2080    0.0000 C.ar    1  LIG1        0.0734
     11 C           3.3420   -0.6920    0.0000 C.ar    1  LIG1        0.0163
     12 C           4.1960   -0.1880    0.0000 C.ar    1  LIG1       -0.0029
     13 C           4.1750    0.8080    0.0000 C.ar    1  LIG1       -0.0221
     14 C           3.3040    1.3040    0.0000 C.ar    1  LIG1       -0.0029
     15 C           2.4540    0.7880    0.0000 C.ar    1  LIG1        0.0163
     16 C           5.0380    1.3330    0.0000 C.3     1  LIG1        0.0264
     17 C           5.0130    2.3290    0.0000 C.3     1  LIG1        0.0047
     18 C           5.8580    2.8500    0.0000 C.3     1  LIG1        0.0003
     19 C           5.8420    3.8460    0.0000 C.3     1  LIG1        0.0000
     20 O           2.4880   -2.2040    0.0000 O.2     1  LIG1       -0.2720
     21 C          -3.6380   -1.7630    0.0000 C.3     1  LIG1        0.1095
     22 C          -4.3880   -2.4330    0.0000 C.ar    1  LIG1        0.0448
     23 N          -5.3630   -2.2330    0.0000 N.ar    1  LIG1       -0.3271
     24 C          -5.8630   -3.1000    0.0000 C.ar    1  LIG1        0.0757
     25 C          -5.1960   -3.8420    0.0000 C.ar    1  LIG1        0.0198
     26 C          -4.2750   -3.4290    0.0000 C.ar    1  LIG1        0.0147
     27 C          -5.7710   -1.3130    0.0000 C.3     1  LIG1        0.1302
     28 C          -1.8750   -0.4830    0.0000 C.3     1  LIG1        0.1411
     29 C          -2.7460    0.0170    0.0000 C.3     1  LIG1        0.1668
     30 O          -2.7460    1.0170    0.0000 O.3     1  LIG1       -0.3490
     31 C          -3.6130    1.5130    0.0000 C.3     1  LIG1        0.1742
@<TRIPOS>BOND
     1     1     2   ar
     2     1     5   ar
     3     1    28    1
     4     2     3   ar
     5     2    21    1
     6     3     4   ar
     7     4     5   ar
     8     5     6    1
     9     6     7    1
    10     7     8    1
    11     8     9   am
    12     8    20    2
    13     9    10    1
    14    10    11   ar
    15    10    15   ar
    16    11    12   ar
    17    12    13   ar
    18    13    14   ar
    19    13    16    1
    20    14    15   ar
    21    16    17    1
    22    17    18    1
    23    18    19    1
    24    21    22    1
    25    22    23   ar
    26    22    26   ar
    27    23    24   ar
    28    23    27    1
    29    24    25   ar
    30    25    26   ar
    31    28    29    1
    32    29    30    1
    33    30    31    1
