@<TRIPOS>MOLECULE
34522_ChemDiv_8018-0729
 24 26 0 0 0
SMALL
GASTEIGER
Energy = 0

@<TRIPOS>ATOM
      1 S           0.3290    0.0750    0.0000 S.O2    1  LIG1        0.0633
      2 N           0.8290    0.9380    0.0000 N.3     1  LIG1       -0.1555
      3 C           0.3250    1.8000    0.0000 C.3     1  LIG1        0.0963
      4 C           0.8250    2.6710    0.0000 C.3     1  LIG1        0.0284
      5 C           1.8250    2.6710    0.0000 C.3     1  LIG1        0.0827
      6 C           2.3170    3.5380    0.0000 C.2     1  LIG1        0.2603
      7 O           3.3210    3.5380    0.0000 O.2     1  LIG1       -0.2717
      8 N           1.8170    4.3880    0.0000 N.am    1  LIG1       -0.0878
      9 C           2.3210    1.8080    0.0000 C.3     1  LIG1        0.0284
     10 C           1.8290    0.9460    0.0000 C.3     1  LIG1        0.0963
     11 C          -0.1580   -0.7920    0.0000 C.ar    1  LIG1        0.1237
     12 C          -1.1500   -0.9000    0.0000 C.ar    1  LIG1        0.0387
     13 C          -1.5580   -1.8170    0.0000 C.ar    1  LIG1        0.0811
     14 N          -2.5080   -2.1250    0.0000 N.ar    1  LIG1       -0.2779
     15 C          -2.5130   -3.1330    0.0000 C.ar    1  LIG1        0.3317
     16 N          -1.5580   -3.4420    0.0000 N.ar    1  LIG1       -0.2779
     17 C          -0.9710   -2.6330    0.0000 C.ar    1  LIG1        0.0798
     18 C           0.0290   -2.5250    0.0000 C.ar    1  LIG1        0.0202
     19 C           0.4380   -1.6040    0.0000 C.ar    1  LIG1        0.0215
     20 C          -1.2580   -4.3880    0.0000 C.3     1  LIG1        0.1351
     21 O          -3.3250   -3.7170    0.0000 O.2     1  LIG1       -0.2463
     22 C          -3.3250   -1.5380    0.0000 C.3     1  LIG1        0.1351
     23 O           1.1920   -0.4250    0.0000 O.2     1  LIG1       -0.1528
     24 O          -0.5330    0.5750    0.0000 O.2     1  LIG1       -0.1528
@<TRIPOS>BOND
     1     1     2    1
     2     1    11    1
     3     1    23    2
     4     1    24    2
     5     2     3    1
     6     2    10    1
     7     3     4    1
     8     4     5    1
     9     5     6    1
    10     5     9    1
    11     6     7    2
    12     6     8   am
    13     9    10    1
    14    11    12   ar
    15    11    19   ar
    16    12    13   ar
    17    13    14   ar
    18    13    17   ar
    19    14    15   ar
    20    14    22    1
    21    15    16   ar
    22    15    21    2
    23    16    17   ar
    24    16    20    1
    25    17    18   ar
    26    18    19   ar
