@<TRIPOS>MOLECULE
34527_ChemDiv_8015-1260
 30 33 0 0 0
SMALL
GASTEIGER
Energy = 0

@<TRIPOS>ATOM
      1 N           0.1880    1.3830    0.0000 N.ar    1  LIG1       -0.1294
      2 C           0.1880    0.4170    0.0000 C.ar    1  LIG1        0.2058
      3 N           1.0210   -0.0580    0.0000 N.ar    1  LIG1       -0.1077
      4 N           1.8540    0.4170    0.0000 N.ar    1  LIG1       -0.0448
      5 N           1.8540    1.3830    0.0000 N.ar    1  LIG1       -0.1464
      6 C           2.5420    2.0630    0.0000 C.3     1  LIG1        0.1774
      7 C           3.4710    1.8080    0.0000 C.ar    1  LIG1        0.0001
      8 C           3.7130    0.8710    0.0000 C.ar    1  LIG1       -0.0239
      9 C           2.9960    0.1750    0.0000 C.3     1  LIG1        0.0308
     10 C           4.6420    0.6170    0.0000 C.ar    1  LIG1       -0.0045
     11 C           5.3290    1.3000    0.0000 C.ar    1  LIG1       -0.0003
     12 C           5.0790    2.2330    0.0000 C.ar    1  LIG1       -0.0003
     13 C           4.1460    2.4830    0.0000 C.ar    1  LIG1       -0.0026
     14 C          -0.6500   -0.0580    0.0000 C.ar    1  LIG1        0.0393
     15 C          -0.6500   -1.0290    0.0000 C.ar    1  LIG1        0.0034
     16 C          -1.4830   -1.5080    0.0000 C.ar    1  LIG1        0.0065
     17 C          -2.3210   -1.0290    0.0000 C.ar    1  LIG1        0.0757
     18 C          -3.1880   -1.5330    0.0000 C.2     1  LIG1        0.3415
     19 O          -4.0540   -1.0330    0.0000 O.3     1  LIG1       -0.4404
     20 C          -4.3170   -0.0580    0.0000 C.3     1  LIG1        0.2351
     21 C          -3.8250    0.8000    0.0000 C.ar    1  LIG1        0.0173
     22 C          -4.3290    1.6630    0.0000 C.ar    1  LIG1       -0.0223
     23 C          -5.3330    1.6630    0.0000 C.3     1  LIG1        0.0308
     24 C          -3.8290    2.5330    0.0000 C.ar    1  LIG1       -0.0045
     25 C          -2.8290    2.5380    0.0000 C.ar    1  LIG1       -0.0003
     26 C          -2.3250    1.6750    0.0000 C.ar    1  LIG1       -0.0002
     27 C          -2.8210    0.8080    0.0000 C.ar    1  LIG1       -0.0010
     28 O          -3.1880   -2.5330    0.0000 O.2     1  LIG1       -0.2449
     29 C          -2.3210   -0.0580    0.0000 C.ar    1  LIG1        0.0065
     30 C          -1.4830    0.4170    0.0000 C.ar    1  LIG1        0.0034
@<TRIPOS>BOND
     1     1     2   ar
     2     1     5   ar
     3     2     3   ar
     4     2    14    1
     5     3     4   ar
     6     4     5   ar
     7     5     6    1
     8     6     7    1
     9     7     8   ar
    10     7    13   ar
    11     8     9    1
    12     8    10   ar
    13    10    11   ar
    14    11    12   ar
    15    12    13   ar
    16    14    15   ar
    17    14    30   ar
    18    15    16   ar
    19    16    17   ar
    20    17    18    1
    21    17    29   ar
    22    18    19    1
    23    18    28    2
    24    19    20    1
    25    20    21    1
    26    21    22   ar
    27    21    27   ar
    28    22    23    1
    29    22    24   ar
    30    24    25   ar
    31    25    26   ar
    32    26    27   ar
    33    29    30   ar
