@<TRIPOS>MOLECULE
34524_ChemDiv_8015-4826
 29 32 0 0 0
SMALL
GASTEIGER
Energy = 0

@<TRIPOS>ATOM
      1 S           0.0000    0.0000    0.0000 S.O2    1  LIG1        0.0634
      2 N          -1.0000    0.0000    0.0000 N.3     1  LIG1       -0.1520
      3 C          -1.5000    0.8630    0.0000 C.3     1  LIG1        0.1172
      4 C          -2.5080    0.8630    0.0000 C.3     1  LIG1        0.1099
      5 N          -3.0080    0.0000    0.0000 N.pl3   1  LIG1       -0.3048
      6 C          -4.0080    0.0000    0.0000 C.ar    1  LIG1        0.0447
      7 C          -4.5080   -0.8670    0.0000 C.ar    1  LIG1        0.0256
      8 C          -5.5080   -0.8670    0.0000 C.ar    1  LIG1        0.0589
      9 C          -6.0000    0.0000    0.0000 C.ar    1  LIG1        0.0112
     10 C          -5.5080    0.8750    0.0000 C.ar    1  LIG1       -0.0022
     11 C          -4.5080    0.8710    0.0000 C.ar    1  LIG1       -0.0085
     12 C          -4.0000    1.7330    0.0000 C.3     1  LIG1        0.0323
     13 CL         -6.0000   -1.7290    0.0000 Cl      1  LIG1       -0.0822
     14 C          -2.5080   -0.8670    0.0000 C.3     1  LIG1        0.1099
     15 C          -1.5000   -0.8670    0.0000 C.3     1  LIG1        0.1172
     16 C           1.0080    0.0000    0.0000 C.ar    1  LIG1        0.1222
     17 C           1.4920    0.8630    0.0000 C.ar    1  LIG1        0.0196
     18 C           2.4790    0.8710    0.0000 C.ar    1  LIG1       -0.0029
     19 C           2.9960    0.0000    0.0000 C.ar    1  LIG1       -0.0224
     20 C           2.5040   -0.8540    0.0000 C.ar    1  LIG1       -0.0029
     21 C           1.4920   -0.8670    0.0000 C.ar    1  LIG1        0.0196
     22 C           3.9960    0.0080    0.0000 C.3     1  LIG1        0.0223
     23 C           4.4960   -0.8540    0.0000 C.3     1  LIG1        0.0044
     24 C           5.4960   -0.8500    0.0000 C.3     1  LIG1        0.0003
     25 C           5.9960    0.0130    0.0000 C.3     1  LIG1        0.0000
     26 C           5.4920    0.8750    0.0000 C.3     1  LIG1        0.0003
     27 C           4.4830    0.8750    0.0000 C.3     1  LIG1        0.0044
     28 O           0.0000    1.0000    0.0000 O.2     1  LIG1       -0.1528
     29 O           0.0000   -1.0040    0.0000 O.2     1  LIG1       -0.1528
@<TRIPOS>BOND
     1     1     2    1
     2     1    16    1
     3     1    28    2
     4     1    29    2
     5     2     3    1
     6     2    15    1
     7     3     4    1
     8     4     5    1
     9     5     6    1
    10     5    14    1
    11     6     7   ar
    12     6    11   ar
    13     7     8   ar
    14     8     9   ar
    15     8    13    1
    16     9    10   ar
    17    10    11   ar
    18    11    12    1
    19    14    15    1
    20    16    17   ar
    21    16    21   ar
    22    17    18   ar
    23    18    19   ar
    24    19    20   ar
    25    19    22    1
    26    20    21   ar
    27    22    23    1
    28    22    27    1
    29    23    24    1
    30    24    25    1
    31    25    26    1
    32    26    27    1
