@<TRIPOS>MOLECULE
34535_ChemDiv_8014-5699
 38 41 0 0 0
SMALL
GASTEIGER
Energy = 0

@<TRIPOS>ATOM
      1 S           1.7710    1.5630    0.0000 S.O2    1  LIG1       -0.0578
      2 N           0.9130    1.0670    0.0000 N.pl3   1  LIG1       -0.5360
      3 C           0.9130    0.0790    0.0000 C.ar    1  LIG1       -0.1127
      4 C           0.0540   -0.3880    0.0000 C.ar    1  LIG1       -0.0351
      5 C          -0.8290    0.0960    0.0000 C.3     1  LIG1        0.0703
      6 C          -1.6880   -0.3880    0.0000 C.ar    1  LIG1        0.0634
      7 C          -2.5750    0.1170    0.0000 C.ar    1  LIG1        0.0171
      8 C          -2.5750    1.0790    0.0000 C.ar    1  LIG1        0.0412
      9 C          -3.4460    1.6130    0.0000 C.ar    1  LIG1        0.1724
     10 C          -4.3290    1.0920    0.0000 C.ar    1  LIG1        0.1724
     11 C          -4.3290    0.1170    0.0000 C.ar    1  LIG1        0.0401
     12 C          -3.4580   -0.3880    0.0000 C.ar    1  LIG1        0.0059
     13 C          -3.4580   -1.4130    0.0000 C.ar    1  LIG1        0.0208
     14 C          -2.5750   -1.9080    0.0000 C.ar    1  LIG1        0.0985
     15 N          -1.6880   -1.4210    0.0000 N.ar    1  LIG1       -0.2478
     16 O          -5.2040    1.6000    0.0000 O.3     1  LIG1       -0.4684
     17 C          -6.0210    1.1000    0.0000 C.3     1  LIG1        0.2526
     18 O          -3.4460    2.6130    0.0000 O.3     1  LIG1       -0.4684
     19 C          -2.5500    3.2210    0.0000 C.3     1  LIG1        0.2526
     20 C           0.0540   -1.4130    0.0000 C.ar    1  LIG1        0.0344
     21 C           0.8830   -1.9210    0.0000 C.ar    1  LIG1        0.1720
     22 C           1.7580   -1.4330    0.0000 C.ar    1  LIG1        0.1706
     23 C           1.7580   -0.4130    0.0000 C.ar    1  LIG1        0.0159
     24 O           2.5920   -1.9460    0.0000 O.3     1  LIG1       -0.4684
     25 C           3.4670   -1.4460    0.0000 C.3     1  LIG1        0.2526
     26 O           0.8830   -2.8920    0.0000 O.3     1  LIG1       -0.4684
     27 C           0.0380   -3.4670    0.0000 C.3     1  LIG1        0.2526
     28 C           2.5170    1.9960    0.0000 C.ar    1  LIG1        0.0892
     29 C           3.3630    1.5000    0.0000 C.ar    1  LIG1        0.0156
     30 C           4.2380    2.0250    0.0000 C.ar    1  LIG1        0.0133
     31 C           4.2380    2.9580    0.0000 C.ar    1  LIG1        0.1348
     32 C           3.3540    3.4710    0.0000 C.ar    1  LIG1        0.0378
     33 C           2.5170    2.9880    0.0000 C.ar    1  LIG1        0.0200
     34 O           5.1330    3.4710    0.0000 O.3     1  LIG1       -0.4717
     35 C           6.0210    2.9080    0.0000 C.3     1  LIG1        0.2525
     36 C           5.1580    1.5000    0.0000 C.3     1  LIG1        0.0342
     37 O           1.2710    2.4210    0.0000 O.2     1  LIG1       -0.1842
     38 O           2.2540    0.6920    0.0000 O.2     1  LIG1       -0.1842
@<TRIPOS>BOND
     1     1     2    1
     2     1    28    1
     3     1    37    2
     4     1    38    2
     5     2     3    1
     6     3     4   ar
     7     3    23   ar
     8     4     5    1
     9     4    20   ar
    10     5     6    1
    11     6     7   ar
    12     6    15   ar
    13     7     8   ar
    14     7    12   ar
    15     8     9   ar
    16     9    10   ar
    17     9    18    1
    18    10    11   ar
    19    10    16    1
    20    11    12   ar
    21    12    13   ar
    22    13    14   ar
    23    14    15   ar
    24    16    17    1
    25    18    19    1
    26    20    21   ar
    27    21    22   ar
    28    21    26    1
    29    22    23   ar
    30    22    24    1
    31    24    25    1
    32    26    27    1
    33    28    29   ar
    34    28    33   ar
    35    29    30   ar
    36    30    31   ar
    37    30    36    1
    38    31    32   ar
    39    31    34    1
    40    32    33   ar
    41    34    35    1
