@<TRIPOS>MOLECULE
34538_ChemDiv_8015-9166
 24 27 0 0 0
SMALL
GASTEIGER
Energy = 0

@<TRIPOS>ATOM
      1 N          -0.1080    0.1080    0.0000 N.am    1  LIG1       -0.2571
      2 C           0.2920   -0.8040    0.0000 C.2     1  LIG1        0.2528
      3 C           1.2920   -0.9130    0.0000 C.ar    1  LIG1        0.0571
      4 C           1.8790   -0.1040    0.0000 C.ar    1  LIG1        0.0447
      5 C           2.8790   -0.2040    0.0000 C.ar    1  LIG1        0.1766
      6 C           3.2790   -1.1170    0.0000 C.ar    1  LIG1        0.1764
      7 O           4.2790   -1.0170    0.0000 O.3     1  LIG1       -0.4346
      8 C           4.4880   -0.0420    0.0000 C.3     1  LIG1        0.4294
      9 O           3.6170    0.4630    0.0000 O.3     1  LIG1       -0.4346
     10 C           2.6920   -1.9290    0.0000 C.ar    1  LIG1        0.0403
     11 C           1.7000   -1.8250    0.0000 C.ar    1  LIG1        0.0078
     12 O          -0.2830   -1.6130    0.0000 O.2     1  LIG1       -0.2696
     13 C          -1.1040    0.2130    0.0000 C.ar    1  LIG1        0.0502
     14 C          -1.5040    1.1210    0.0000 C.ar    1  LIG1       -0.0054
     15 C          -2.5040    1.2330    0.0000 C.ar    1  LIG1        0.0339
     16 C          -3.0920    0.4210    0.0000 C.ar    1  LIG1        0.1385
     17 C          -2.6790   -0.4920    0.0000 C.ar    1  LIG1        0.0382
     18 C          -1.6830   -0.5920    0.0000 C.ar    1  LIG1        0.0177
     19 O          -4.0880    0.5250    0.0000 O.3     1  LIG1       -0.4714
     20 C          -4.4920    1.4380    0.0000 C.3     1  LIG1        0.2525
     21 C          -0.9170    1.9330    0.0000 C.3     1  LIG1        0.0294
     22 C           0.0790    1.8330    0.0000 C.3     1  LIG1        0.0249
     23 C           0.4790    0.9210    0.0000 C.3     1  LIG1        0.0805
     24 C           1.4790    0.9210    0.0000 C.3     1  LIG1        0.0219
@<TRIPOS>BOND
     1     1     2   am
     2     1    13    1
     3     1    23    1
     4     2     3    1
     5     2    12    2
     6     3     4   ar
     7     3    11   ar
     8     4     5   ar
     9     5     6   ar
    10     5     9    1
    11     6     7    1
    12     6    10   ar
    13     7     8    1
    14     8     9    1
    15    10    11   ar
    16    13    14   ar
    17    13    18   ar
    18    14    15   ar
    19    14    21    1
    20    15    16   ar
    21    16    17   ar
    22    16    19    1
    23    17    18   ar
    24    19    20    1
    25    21    22    1
    26    22    23    1
    27    23    24    1
