@<TRIPOS>MOLECULE
34533_ChemDiv_8014-5581
 15 16 0 0 0
SMALL
GASTEIGER
Energy = 0

@<TRIPOS>ATOM
      1 N          -0.8460    0.3670    0.0000 N.4     1  LIG1        0.3074
      2 C           0.1420    0.8670    0.0000 C.3     1  LIG1        0.1423
      3 C           0.1420    1.9630    0.0000 C.3     1  LIG1        0.2069
      4 C          -0.8040    2.5170    0.0000 C.3     1  LIG1        0.0482
      5 C          -0.5080    1.5080    0.0000 C.3     1  LIG1        0.0640
      6 C          -1.1500    1.2460    0.0000 C.3     1  LIG1        0.1093
      7 C          -1.7250    1.9420    0.0000 C.3     1  LIG1        0.0640
      8 C          -1.7250    0.8670    0.0000 C.3     1  LIG1        0.1093
      9 O           1.0170    2.4710    0.0000 O.3     1  LIG1       -0.2168
     10 C          -0.8460   -0.6250    0.0000 C.3     1  LIG1        0.2193
     11 C           0.0080   -1.1250    0.0000 C.2     1  LIG1        0.3739
     12 O           0.8750   -0.6170    0.0000 O.2     1  LIG1       -0.2435
     13 O           0.0080   -2.0170    0.0000 O.3     1  LIG1       -0.4445
     14 C           0.8670   -2.5130    0.0000 C.3     1  LIG1        0.2088
     15 C           1.7210   -2.0380    0.0000 C.3     1  LIG1        0.0513
@<TRIPOS>BOND
     1     1     2    1
     2     1     6    1
     3     1     8    1
     4     1    10    1
     5     2     3    1
     6     3     4    1
     7     3     9    1
     8     4     5    1
     9     4     7    1
    10     5     6    1
    11     7     8    1
    12    10    11    1
    13    11    12    2
    14    11    13    1
    15    13    14    1
    16    14    15    1
