@<TRIPOS>MOLECULE
34534_ChemDiv_8015-9007
 25 27 0 0 0
SMALL
GASTEIGER
Energy = 0

@<TRIPOS>ATOM
      1 C          -2.0290   -0.1790    0.0000 C.ar    1  LIG1        0.0846
      2 C          -2.8710    0.3080    0.0000 C.ar    1  LIG1        0.1567
      3 O          -2.8710    1.2790    0.0000 O.2     1  LIG1       -0.3580
      4 N          -1.1830    1.2790    0.0000 N.ar    1  LIG1       -0.0813
      5 C          -1.1830    0.3080    0.0000 C.ar    1  LIG1        0.1073
      6 C          -0.3460   -0.1580    0.0000 C.3     1  LIG1        0.0757
      7 C           0.4960    0.3080    0.0000 C.ar    1  LIG1       -0.0129
      8 C           1.3420   -0.1580    0.0000 C.ar    1  LIG1        0.0362
      9 C           2.1830    0.3080    0.0000 C.ar    1  LIG1        0.1719
     10 C           2.1830    1.3080    0.0000 C.ar    1  LIG1        0.1722
     11 C           1.3420    1.8080    0.0000 C.ar    1  LIG1        0.0397
     12 C           0.4960    1.3080    0.0000 C.ar    1  LIG1       -0.0006
     13 O           3.0290    1.8080    0.0000 O.3     1  LIG1       -0.4724
     14 C           3.8670    1.3460    0.0000 C.3     1  LIG1        0.2057
     15 C           4.6790    1.8420    0.0000 C.3     1  LIG1        0.0512
     16 O           3.0290   -0.1790    0.0000 O.3     1  LIG1       -0.4724
     17 C           3.8670    0.2790    0.0000 C.3     1  LIG1        0.2057
     18 C           4.6790   -0.2170    0.0000 C.3     1  LIG1        0.0512
     19 C          -3.7170   -0.1790    0.0000 C.3     1  LIG1        0.0678
     20 C          -3.7170   -1.1540    0.0000 C.3     1  LIG1        0.0145
     21 C          -2.8710   -1.6580    0.0000 C.3     1  LIG1        0.0697
     22 C          -2.0290   -1.1540    0.0000 C.2     1  LIG1        0.1770
     23 O          -1.1830   -1.6580    0.0000 O.2     1  LIG1       -0.2912
     24 C          -4.4040   -1.8380    0.0000 C.3     1  LIG1        0.0009
     25 C          -4.6830   -0.9920    0.0000 C.3     1  LIG1        0.0009
@<TRIPOS>BOND
     1     1     2   ar
     2     1     5   ar
     3     1    22    1
     4     2     3   ar
     5     2    19    1
     6     3     4   ar
     7     4     5   ar
     8     5     6    1
     9     6     7    1
    10     7     8   ar
    11     7    12   ar
    12     8     9   ar
    13     9    10   ar
    14     9    16    1
    15    10    11   ar
    16    10    13    1
    17    11    12   ar
    18    13    14    1
    19    14    15    1
    20    16    17    1
    21    17    18    1
    22    19    20    1
    23    20    21    1
    24    20    24    1
    25    20    25    1
    26    21    22    1
    27    22    23    2
