@<TRIPOS>MOLECULE
34530_ChemDiv_8015-8524
 20 21 0 0 0
SMALL
GASTEIGER
Energy = 0

@<TRIPOS>ATOM
      1 C           1.4540   -0.9380    0.0000 C.ar    1  LIG1        0.1604
      2 C           1.8290   -1.8880    0.0000 C.ar    1  LIG1        0.1424
      3 S           1.0540   -2.4790    0.0000 S.2     1  LIG1       -0.0430
      4 C           0.2380   -1.9170    0.0000 C.ar    1  LIG1        0.1287
      5 N           0.4750   -0.9380    0.0000 N.ar    1  LIG1       -0.3099
      6 C           0.0290   -0.0960    0.0000 C.3     1  LIG1        0.1119
      7 C          -0.9750   -0.1790    0.0000 C.3     1  LIG1        0.0508
      8 C          -1.5250    0.6830    0.0000 C.ar    1  LIG1       -0.0202
      9 C          -2.5580    0.6710    0.0000 C.ar    1  LIG1       -0.0042
     10 C          -3.0710    1.5210    0.0000 C.ar    1  LIG1       -0.0003
     11 C          -2.6330    2.3960    0.0000 C.ar    1  LIG1       -0.0000
     12 C          -1.6080    2.4080    0.0000 C.ar    1  LIG1       -0.0003
     13 C          -1.0750    1.5630    0.0000 C.ar    1  LIG1       -0.0042
     14 S          -0.7210   -2.3040    0.0000 S.2     1  LIG1       -0.0247
     15 N           2.8130   -2.1630    0.0000 N.pl3   1  LIG1       -0.1192
     16 C           2.0630   -0.1170    0.0000 C.2     1  LIG1        0.3592
     17 O           3.0670   -0.2000    0.0000 O.2     1  LIG1       -0.2432
     18 O           1.6540    0.7880    0.0000 O.3     1  LIG1       -0.4444
     19 C           2.1920    1.5830    0.0000 C.3     1  LIG1        0.2089
     20 C           1.7880    2.4830    0.0000 C.3     1  LIG1        0.0513
@<TRIPOS>BOND
     1     1     2   ar
     2     1     5   ar
     3     1    16    1
     4     2     3   ar
     5     2    15    1
     6     3     4   ar
     7     4     5   ar
     8     4    14    2
     9     5     6    1
    10     6     7    1
    11     7     8    1
    12     8     9   ar
    13     8    13   ar
    14     9    10   ar
    15    10    11   ar
    16    11    12   ar
    17    12    13   ar
    18    16    17    2
    19    16    18    1
    20    18    19    1
    21    19    20    1
