@<TRIPOS>MOLECULE
34543_ChemDiv_8014-8637
 12 13 0 0 0
SMALL
GASTEIGER
Energy = 0

@<TRIPOS>ATOM
      1 N          -0.0210   -0.3080    0.0000 N.ar    1  LIG1       -0.2831
      2 C           0.9670   -0.3080    0.0000 C.ar    1  LIG1        0.2753
      3 C           1.2960    0.6210    0.0000 C.ar    1  LIG1        0.1165
      4 N           0.4830    1.2210    0.0000 N.ar    1  LIG1       -0.2319
      5 C          -0.3290    0.6420    0.0000 C.ar    1  LIG1        0.1223
      6 C          -1.2580    0.9880    0.0000 C.3     1  LIG1        0.0640
      7 C          -2.1290    0.4630    0.0000 C.3     1  LIG1        0.0080
      8 C          -2.2670   -0.5210    0.0000 C.3     1  LIG1        0.0024
      9 C          -1.5880   -1.2170    0.0000 C.3     1  LIG1        0.0246
     10 C          -0.5790   -1.1380    0.0000 C.3     1  LIG1        0.1102
     11 C           2.2630    0.8920    0.0000 C.3     1  LIG1        0.0573
     12 O           1.5830   -1.1380    0.0000 O.3     1  LIG1       -0.2656
@<TRIPOS>BOND
     1     1     2   ar
     2     1     5   ar
     3     1    10    1
     4     2     3   ar
     5     2    12    1
     6     3     4   ar
     7     3    11    1
     8     4     5   ar
     9     5     6    1
    10     6     7    1
    11     7     8    1
    12     8     9    1
    13     9    10    1
