@<TRIPOS>MOLECULE
34541_ChemDiv_8014-8636
 28 30 0 0 0
SMALL
GASTEIGER
Energy = 0

@<TRIPOS>ATOM
      1 C           4.3210    0.4920    0.0000 C.ar    1  LIG1        0.1954
      2 C           3.7330    1.3000    0.0000 C.ar    1  LIG1        0.2665
      3 N           4.3210    2.1080    0.0000 N.ar    1  LIG1       -0.1530
      4 S           5.2750    1.8000    0.0000 S.2     1  LIG1        0.1206
      5 N           5.2750    0.8040    0.0000 N.ar    1  LIG1       -0.1716
      6 O           2.7330    1.3000    0.0000 O.3     1  LIG1       -0.4478
      7 C           2.2250    0.4380    0.0000 C.3     1  LIG1        0.2929
      8 C           1.2250    0.4460    0.0000 C.2     1  LIG1        0.2860
      9 O           0.7250    1.3130    0.0000 O.2     1  LIG1       -0.2693
     10 N           0.7210   -0.4170    0.0000 N.am    1  LIG1       -0.2019
     11 C          -0.2830   -0.4170    0.0000 C.3     1  LIG1        0.1199
     12 C          -0.7830    0.4460    0.0000 C.3     1  LIG1        0.0499
     13 C          -1.7790    0.4460    0.0000 C.ar    1  LIG1       -0.0172
     14 C          -2.2830   -0.4170    0.0000 C.ar    1  LIG1        0.0358
     15 C          -3.2790   -0.4170    0.0000 C.ar    1  LIG1        0.1721
     16 C          -3.7750    0.4460    0.0000 C.ar    1  LIG1        0.1724
     17 C          -3.2790    1.3170    0.0000 C.ar    1  LIG1        0.0397
     18 C          -2.2830    1.3170    0.0000 C.ar    1  LIG1       -0.0009
     19 O          -4.7790    0.4460    0.0000 O.3     1  LIG1       -0.4684
     20 C          -5.2790    1.3170    0.0000 C.3     1  LIG1        0.2526
     21 O          -3.7750   -1.2830    0.0000 O.3     1  LIG1       -0.4684
     22 C          -4.7790   -1.2830    0.0000 C.3     1  LIG1        0.2526
     23 N           3.8170   -0.3750    0.0000 N.pl3   1  LIG1       -0.2838
     24 C           4.3210   -1.2420    0.0000 C.3     1  LIG1        0.1244
     25 C           3.8170   -2.1040    0.0000 C.3     1  LIG1        0.1636
     26 O           2.8210   -2.1040    0.0000 O.3     1  LIG1       -0.3501
     27 C           2.3210   -1.2420    0.0000 C.3     1  LIG1        0.1636
     28 C           2.8210   -0.3750    0.0000 C.3     1  LIG1        0.1244
@<TRIPOS>BOND
     1     1     2   ar
     2     1     5   ar
     3     1    23    1
     4     2     3   ar
     5     2     6    1
     6     3     4   ar
     7     4     5   ar
     8     6     7    1
     9     7     8    1
    10     8     9    2
    11     8    10   am
    12    10    11    1
    13    11    12    1
    14    12    13    1
    15    13    14   ar
    16    13    18   ar
    17    14    15   ar
    18    15    16   ar
    19    15    21    1
    20    16    17   ar
    21    16    19    1
    22    17    18   ar
    23    19    20    1
    24    21    22    1
    25    23    24    1
    26    23    28    1
    27    24    25    1
    28    25    26    1
    29    26    27    1
    30    27    28    1
