@<TRIPOS>MOLECULE
34548_ChemDiv_8015-5841
 27 29 0 0 0
SMALL
GASTEIGER
Energy = 0

@<TRIPOS>ATOM
      1 C           1.6500   -1.2420    0.0000 C.2     1  LIG1        0.2651
      2 N           0.7790   -0.7420    0.0000 N.am    1  LIG1       -0.1985
      3 C           0.7790    0.2540    0.0000 C.3     1  LIG1        0.1233
      4 C           1.6500    0.7460    0.0000 C.3     1  LIG1        0.0678
      5 C           1.6500    1.7460    0.0000 C.2     1  LIG1        0.0524
      6 O           0.7790    2.2540    0.0000 O.co2   1  LIG1       -0.5491
      7 O           2.5170    2.2540    0.0000 O.co2   1  LIG1       -0.5491
      8 C          -0.0790    0.7460    0.0000 C.ar    1  LIG1       -0.0020
      9 C          -0.0790    1.7460    0.0000 C.ar    1  LIG1        0.0005
     10 C          -0.9460    2.2540    0.0000 C.ar    1  LIG1        0.0366
     11 C          -1.8040    1.7460    0.0000 C.ar    1  LIG1        0.1384
     12 O          -2.6790    2.2540    0.0000 O.3     1  LIG1       -0.4792
     13 C          -3.5420    1.7460    0.0000 C.3     1  LIG1        0.1659
     14 C          -3.6420    0.7540    0.0000 C.3     1  LIG1        0.0435
     15 C          -4.6210    0.5420    0.0000 C.3     1  LIG1        0.0038
     16 C          -5.1210    1.4170    0.0000 C.3     1  LIG1        0.0038
     17 C          -4.4540    2.1540    0.0000 C.3     1  LIG1        0.0435
     18 C          -1.8040    0.7460    0.0000 C.ar    1  LIG1        0.0366
     19 C          -0.9460    0.2540    0.0000 C.ar    1  LIG1        0.0005
     20 C           2.5170   -0.7420    0.0000 C.ar    1  LIG1        0.0573
     21 C           3.3790   -1.2420    0.0000 C.ar    1  LIG1        0.0342
     22 C           4.2500   -0.7420    0.0000 C.ar    1  LIG1        0.1403
     23 F           5.1170   -1.2420    0.0000 F       1  LIG1       -0.2042
     24 C           4.2500    0.2540    0.0000 C.ar    1  LIG1        0.0296
     25 C           3.3790    0.7460    0.0000 C.ar    1  LIG1        0.0025
     26 C           2.5170    0.2540    0.0000 C.ar    1  LIG1        0.0047
     27 O           1.6500   -2.2500    0.0000 O.2     1  LIG1       -0.2684
@<TRIPOS>BOND
     1     1     2   am
     2     1    20    1
     3     1    27    2
     4     2     3    1
     5     3     4    1
     6     3     8    1
     7     4     5    1
     8     5     6   ar
     9     5     7   ar
    10     8     9   ar
    11     8    19   ar
    12     9    10   ar
    13    10    11   ar
    14    11    12    1
    15    11    18   ar
    16    12    13    1
    17    13    14    1
    18    13    17    1
    19    14    15    1
    20    15    16    1
    21    16    17    1
    22    18    19   ar
    23    20    21   ar
    24    20    26   ar
    25    21    22   ar
    26    22    23    1
    27    22    24   ar
    28    24    25   ar
    29    25    26   ar
