@<TRIPOS>MOLECULE
34554_ChemDiv_8015-8217
 26 28 0 0 0
SMALL
GASTEIGER
Energy = 0

@<TRIPOS>ATOM
      1 C           2.0790   -1.2420    0.0000 C.2     1  LIG1        0.2411
      2 N           1.2170   -0.7420    0.0000 N.am    1  LIG1       -0.2023
      3 C           1.2170    0.2540    0.0000 C.3     1  LIG1        0.1230
      4 C           2.0790    0.7540    0.0000 C.3     1  LIG1        0.0678
      5 C           2.0790    1.7540    0.0000 C.2     1  LIG1        0.0524
      6 O           1.2170    2.2540    0.0000 O.co2   1  LIG1       -0.5491
      7 O           2.9540    2.2540    0.0000 O.co2   1  LIG1       -0.5491
      8 C           0.3500    0.7540    0.0000 C.ar    1  LIG1       -0.0020
      9 C          -0.5170    0.2540    0.0000 C.ar    1  LIG1        0.0005
     10 C          -1.3710    0.7540    0.0000 C.ar    1  LIG1        0.0366
     11 C          -1.3710    1.7460    0.0000 C.ar    1  LIG1        0.1384
     12 O          -2.2420    2.2540    0.0000 O.3     1  LIG1       -0.4792
     13 C          -3.1080    1.7460    0.0000 C.3     1  LIG1        0.1659
     14 C          -4.0250    2.1540    0.0000 C.3     1  LIG1        0.0435
     15 C          -4.6920    1.4170    0.0000 C.3     1  LIG1        0.0038
     16 C          -4.1920    0.5460    0.0000 C.3     1  LIG1        0.0038
     17 C          -3.2080    0.7540    0.0000 C.3     1  LIG1        0.0435
     18 C          -0.5170    2.2540    0.0000 C.ar    1  LIG1        0.0366
     19 C           0.3500    1.7460    0.0000 C.ar    1  LIG1        0.0005
     20 O           2.0790   -2.2500    0.0000 O.2     1  LIG1       -0.2733
     21 C           2.9540   -0.7420    0.0000 C.3     1  LIG1        0.0782
     22 C           3.8170   -1.2420    0.0000 C.3     1  LIG1        0.0091
     23 C           4.6880   -0.7420    0.0000 C.3     1  LIG1        0.0005
     24 C           4.6880    0.2540    0.0000 C.3     1  LIG1        0.0000
     25 C           3.8170    0.7540    0.0000 C.3     1  LIG1        0.0005
     26 C           2.9540    0.2540    0.0000 C.3     1  LIG1        0.0091
@<TRIPOS>BOND
     1     1     2   am
     2     1    20    2
     3     1    21    1
     4     2     3    1
     5     3     4    1
     6     3     8    1
     7     4     5    1
     8     5     6   ar
     9     5     7   ar
    10     8     9   ar
    11     8    19   ar
    12     9    10   ar
    13    10    11   ar
    14    11    12    1
    15    11    18   ar
    16    12    13    1
    17    13    14    1
    18    13    17    1
    19    14    15    1
    20    15    16    1
    21    16    17    1
    22    18    19   ar
    23    21    22    1
    24    21    26    1
    25    22    23    1
    26    23    24    1
    27    24    25    1
    28    25    26    1
