@<TRIPOS>MOLECULE
34559_ChemDiv_8015-1431
 32 35 0 0 0
SMALL
GASTEIGER
Energy = 0

@<TRIPOS>ATOM
      1 S          -2.3880    0.5130    0.0000 S.O2    1  LIG1        0.0666
      2 C          -1.5710   -0.1000    0.0000 C.ar    1  LIG1        0.1561
      3 C          -0.6210    0.2420    0.0000 C.ar    1  LIG1        0.0276
      4 C           0.1670   -0.3710    0.0000 C.ar    1  LIG1        0.0569
      5 C           1.1210   -0.0290    0.0000 C.2     1  LIG1        0.2690
      6 N           1.9080   -0.6790    0.0000 N.am    1  LIG1       -0.1747
      7 C           2.8630   -0.3380    0.0000 C.ar    1  LIG1        0.0865
      8 C           3.5790   -0.9540    0.0000 C.ar    1  LIG1        0.0869
      9 C           3.3420   -1.9750    0.0000 C.1     1  LIG1        0.1018
     10 N           3.1380   -2.9630    0.0000 N.1     1  LIG1       -0.1908
     11 C           4.5330   -0.6080    0.0000 C.ar    1  LIG1        0.0518
     12 C           4.7040    0.3460    0.0000 C.ar    1  LIG1        0.1772
     13 C           3.9540    0.9920    0.0000 C.ar    1  LIG1        0.1778
     14 C           3.0290    0.6500    0.0000 C.ar    1  LIG1        0.0575
     15 O           4.3290    1.9130    0.0000 O.3     1  LIG1       -0.4346
     16 C           5.3170    1.8080    0.0000 C.3     1  LIG1        0.4294
     17 O           5.5250    0.8880    0.0000 O.3     1  LIG1       -0.4346
     18 O           1.2920    0.9540    0.0000 O.2     1  LIG1       -0.2680
     19 C          -0.0080   -1.3630    0.0000 C.ar    1  LIG1        0.0078
     20 C          -0.9580   -1.7000    0.0000 C.ar    1  LIG1        0.0384
     21 C          -1.7420   -1.0540    0.0000 C.ar    1  LIG1        0.1572
     22 O          -2.7330   -1.3630    0.0000 O.3     1  LIG1       -0.4701
     23 C          -3.4460   -0.6460    0.0000 C.3     1  LIG1        0.2525
     24 N          -3.1750    1.1580    0.0000 N.3     1  LIG1       -0.1432
     25 C          -4.0960    0.7500    0.0000 C.3     1  LIG1        0.1584
     26 C          -4.8830    1.4000    0.0000 C.3     1  LIG1        0.1584
     27 N          -4.7460    2.3540    0.0000 N.4     1  LIG1        0.3843
     28 C          -3.8540    2.7290    0.0000 C.3     1  LIG1        0.1584
     29 C          -3.0380    2.1500    0.0000 C.3     1  LIG1        0.1584
     30 C          -5.5290    2.9670    0.0000 C.3     1  LIG1        0.2024
     31 O          -3.0000   -0.2710    0.0000 O.2     1  LIG1       -0.1527
     32 O          -1.7750    1.3330    0.0000 O.2     1  LIG1       -0.1527
@<TRIPOS>BOND
     1     1     2    1
     2     1    24    1
     3     1    31    2
     4     1    32    2
     5     2     3   ar
     6     2    21   ar
     7     3     4   ar
     8     4     5    1
     9     4    19   ar
    10     5     6   am
    11     5    18    2
    12     6     7    1
    13     7     8   ar
    14     7    14   ar
    15     8     9    1
    16     8    11   ar
    17     9    10    3
    18    11    12   ar
    19    12    13   ar
    20    12    17    1
    21    13    14   ar
    22    13    15    1
    23    15    16    1
    24    16    17    1
    25    19    20   ar
    26    20    21   ar
    27    21    22    1
    28    22    23    1
    29    24    25    1
    30    24    29    1
    31    25    26    1
    32    26    27    1
    33    27    28    1
    34    27    30    1
    35    28    29    1
