@<TRIPOS>MOLECULE
34553_ChemDiv_8015-1383
 28 31 0 0 0
SMALL
GASTEIGER
Energy = 0

@<TRIPOS>ATOM
      1 N          -3.5420   -1.0000    0.0000 N.ar    1  LIG1       -0.1886
      2 N          -4.3500   -0.4130    0.0000 N.ar    1  LIG1       -0.0385
      3 N          -5.1540   -1.0000    0.0000 N.ar    1  LIG1       -0.0222
      4 N          -4.8500   -1.9460    0.0000 N.ar    1  LIG1       -0.1045
      5 C          -3.8500   -1.9460    0.0000 C.ar    1  LIG1        0.2258
      6 C          -2.6920   -0.5000    0.0000 C.ar    1  LIG1        0.0863
      7 C          -2.6920    0.5000    0.0000 C.ar    1  LIG1        0.0194
      8 C          -1.8290    1.0000    0.0000 C.ar    1  LIG1        0.0061
      9 C          -0.9670    0.5000    0.0000 C.ar    1  LIG1        0.0537
     10 C          -0.1000    1.0000    0.0000 C.2     1  LIG1        0.2490
     11 N           0.7630    0.5000    0.0000 N.am    1  LIG1       -0.2756
     12 C           0.7630   -0.5000    0.0000 C.3     1  LIG1        0.1000
     13 C           1.6290   -1.0000    0.0000 C.3     1  LIG1        0.0819
     14 C           2.4920   -0.5000    0.0000 C.3     1  LIG1        0.1216
     15 N           3.4170    0.0210    0.0000 N.4     1  LIG1        0.3754
     16 C           4.2830   -0.4790    0.0000 C.3     1  LIG1        0.1386
     17 C           5.1500    0.0210    0.0000 C.3     1  LIG1        0.0629
     18 C           5.1500    1.0210    0.0000 C.3     1  LIG1        0.0123
     19 C           4.2830    1.5210    0.0000 C.3     1  LIG1        0.0629
     20 C           3.4170    1.0210    0.0000 C.3     1  LIG1        0.1386
     21 C           2.4920   -1.4920    0.0000 C.2     1  LIG1        0.3061
     22 O           1.6290   -1.9920    0.0000 O.2     1  LIG1       -0.2657
     23 N           3.3580   -1.9920    0.0000 N.am    1  LIG1       -0.0830
     24 C           2.4920    0.5000    0.0000 C.3     1  LIG1        0.0819
     25 C           1.6290    1.0000    0.0000 C.3     1  LIG1        0.1000
     26 O          -0.1000    1.9960    0.0000 O.2     1  LIG1       -0.2699
     27 C          -0.9670   -0.5000    0.0000 C.ar    1  LIG1        0.0061
     28 C          -1.8290   -1.0000    0.0000 C.ar    1  LIG1        0.0194
@<TRIPOS>BOND
     1     1     2   ar
     2     1     5   ar
     3     1     6    1
     4     2     3   ar
     5     3     4   ar
     6     4     5   ar
     7     6     7   ar
     8     6    28   ar
     9     7     8   ar
    10     8     9   ar
    11     9    10    1
    12     9    27   ar
    13    10    11   am
    14    10    26    2
    15    11    12    1
    16    11    25    1
    17    12    13    1
    18    13    14    1
    19    14    15    1
    20    14    21    1
    21    14    24    1
    22    15    16    1
    23    15    20    1
    24    16    17    1
    25    17    18    1
    26    18    19    1
    27    19    20    1
    28    21    22    2
    29    21    23   am
    30    24    25    1
    31    27    28   ar
