@<TRIPOS>MOLECULE
34558_ChemDiv_8015-8439
 18 19 0 0 0
SMALL
GASTEIGER
Energy = 0

@<TRIPOS>ATOM
      1 C           3.1580    0.7580    0.0000 C.3     1  LIG1        0.1202
      2 C           2.6540    1.6330    0.0000 C.2     1  LIG1        0.0571
      3 O           3.1580    2.4960    0.0000 O.co2   1  LIG1       -0.5489
      4 O           1.6580    1.6330    0.0000 O.co2   1  LIG1       -0.5489
      5 C           2.6540   -0.0960    0.0000 C.3     1  LIG1        0.2772
      6 C           1.6580   -0.0960    0.0000 C.ar    1  LIG1        0.0450
      7 C           1.1670    0.7580    0.0000 C.ar    1  LIG1        0.0049
      8 C           0.1540    0.7580    0.0000 C.ar    1  LIG1        0.0368
      9 C          -0.3540   -0.0960    0.0000 C.ar    1  LIG1        0.1384
     10 O          -1.3580   -0.0960    0.0000 O.3     1  LIG1       -0.4792
     11 C          -1.8460   -0.9710    0.0000 C.3     1  LIG1        0.1659
     12 C          -2.8630   -0.9710    0.0000 C.3     1  LIG1        0.0435
     13 C          -3.1630   -1.9210    0.0000 C.3     1  LIG1        0.0038
     14 C          -2.3580   -2.4920    0.0000 C.3     1  LIG1        0.0038
     15 C          -1.5500   -1.9210    0.0000 C.3     1  LIG1        0.0435
     16 C           0.1540   -0.9710    0.0000 C.ar    1  LIG1        0.0368
     17 C           1.1670   -0.9710    0.0000 C.ar    1  LIG1        0.0049
     18 N           3.1580   -0.9710    0.0000 N.4     1  LIG1        0.5952
@<TRIPOS>BOND
     1     1     2    1
     2     1     5    1
     3     2     3   ar
     4     2     4   ar
     5     5     6    1
     6     5    18    1
     7     6     7   ar
     8     6    17   ar
     9     7     8   ar
    10     8     9   ar
    11     9    10    1
    12     9    16   ar
    13    10    11    1
    14    11    12    1
    15    11    15    1
    16    12    13    1
    17    13    14    1
    18    14    15    1
    19    16    17   ar
