@<TRIPOS>MOLECULE
34552_ChemDiv_8015-8214
 26 28 0 0 0
SMALL
GASTEIGER
Energy = 0

@<TRIPOS>ATOM
      1 C           1.7290   -1.1460    0.0000 C.2     1  LIG1        0.2466
      2 N           0.8630   -0.6420    0.0000 N.am    1  LIG1       -0.2020
      3 C           0.8630    0.3540    0.0000 C.3     1  LIG1        0.1230
      4 C           1.7290    0.8460    0.0000 C.3     1  LIG1        0.0678
      5 C           1.7290    1.8540    0.0000 C.2     1  LIG1        0.0524
      6 O           0.8630    2.3540    0.0000 O.co2   1  LIG1       -0.5491
      7 O           2.5960    2.3540    0.0000 O.co2   1  LIG1       -0.5491
      8 C          -0.0080    0.8460    0.0000 C.ar    1  LIG1       -0.0020
      9 C          -0.0080    1.8540    0.0000 C.ar    1  LIG1        0.0005
     10 C          -0.8750    2.3540    0.0000 C.ar    1  LIG1        0.0366
     11 C          -1.7330    1.8540    0.0000 C.ar    1  LIG1        0.1384
     12 O          -2.5960    2.3540    0.0000 O.3     1  LIG1       -0.4792
     13 C          -3.4670    1.8540    0.0000 C.3     1  LIG1        0.1659
     14 C          -3.5670    0.8540    0.0000 C.3     1  LIG1        0.0435
     15 C          -4.5460    0.6540    0.0000 C.3     1  LIG1        0.0038
     16 C          -5.0460    1.5170    0.0000 C.3     1  LIG1        0.0038
     17 C          -4.3790    2.2540    0.0000 C.3     1  LIG1        0.0435
     18 C          -1.7330    0.8460    0.0000 C.ar    1  LIG1        0.0366
     19 C          -0.8750    0.3540    0.0000 C.ar    1  LIG1        0.0005
     20 C           2.5960   -0.6420    0.0000 C.3     1  LIG1        0.1196
     21 C           3.4540   -1.1460    0.0000 C.ar    1  LIG1        0.0165
     22 S           3.5670   -2.1420    0.0000 S.2     1  LIG1       -0.0903
     23 C           4.5420   -2.3500    0.0000 C.ar    1  LIG1        0.0351
     24 C           5.0420   -1.4790    0.0000 C.ar    1  LIG1        0.0072
     25 C           4.3750   -0.7380    0.0000 C.ar    1  LIG1        0.0032
     26 O           1.7290   -2.1420    0.0000 O.2     1  LIG1       -0.2729
@<TRIPOS>BOND
     1     1     2   am
     2     1    20    1
     3     1    26    2
     4     2     3    1
     5     3     4    1
     6     3     8    1
     7     4     5    1
     8     5     6   ar
     9     5     7   ar
    10     8     9   ar
    11     8    19   ar
    12     9    10   ar
    13    10    11   ar
    14    11    12    1
    15    11    18   ar
    16    12    13    1
    17    13    14    1
    18    13    17    1
    19    14    15    1
    20    15    16    1
    21    16    17    1
    22    18    19   ar
    23    20    21    1
    24    21    22   ar
    25    21    25   ar
    26    22    23   ar
    27    23    24   ar
    28    24    25   ar
