@<TRIPOS>MOLECULE
34550_ChemDiv_8015-8213
 27 29 0 0 0
SMALL
GASTEIGER
Energy = 0

@<TRIPOS>ATOM
      1 C           1.6500    0.9960    0.0000 C.3     1  LIG1        0.0678
      2 C           0.7790    0.4960    0.0000 C.3     1  LIG1        0.1230
      3 N           0.7790   -0.4920    0.0000 N.am    1  LIG1       -0.2020
      4 C           1.6500   -0.9920    0.0000 C.2     1  LIG1        0.2461
      5 O           1.6500   -2.0000    0.0000 O.2     1  LIG1       -0.2730
      6 C           2.5170   -0.4920    0.0000 C.3     1  LIG1        0.1131
      7 C           3.3790   -0.9920    0.0000 C.ar    1  LIG1       -0.0130
      8 C           3.3790   -2.0000    0.0000 C.ar    1  LIG1       -0.0038
      9 C           4.2500   -2.4920    0.0000 C.ar    1  LIG1       -0.0003
     10 C           5.1130   -2.0000    0.0000 C.ar    1  LIG1       -0.0000
     11 C           5.1130   -0.9920    0.0000 C.ar    1  LIG1       -0.0003
     12 C           4.2500   -0.4920    0.0000 C.ar    1  LIG1       -0.0038
     13 C          -0.0830    0.9960    0.0000 C.ar    1  LIG1       -0.0020
     14 C          -0.9500    0.4960    0.0000 C.ar    1  LIG1        0.0005
     15 C          -1.8080    0.9960    0.0000 C.ar    1  LIG1        0.0366
     16 C          -1.8080    1.9960    0.0000 C.ar    1  LIG1        0.1384
     17 O          -2.6830    2.4960    0.0000 O.3     1  LIG1       -0.4792
     18 C          -3.5460    1.9960    0.0000 C.3     1  LIG1        0.1659
     19 C          -3.6460    1.0040    0.0000 C.3     1  LIG1        0.0435
     20 C          -4.6250    0.7920    0.0000 C.3     1  LIG1        0.0038
     21 C          -5.1170    1.6580    0.0000 C.3     1  LIG1        0.0038
     22 C          -4.4580    2.4040    0.0000 C.3     1  LIG1        0.0435
     23 C          -0.9500    2.4960    0.0000 C.ar    1  LIG1        0.0366
     24 C          -0.0830    1.9960    0.0000 C.ar    1  LIG1        0.0005
     25 C           1.6500    1.9960    0.0000 C.2     1  LIG1        0.0524
     26 O           0.7790    2.4960    0.0000 O.co2   1  LIG1       -0.5491
     27 O           2.5170    2.4960    0.0000 O.co2   1  LIG1       -0.5491
@<TRIPOS>BOND
     1     1     2    1
     2     1    25    1
     3     2     3    1
     4     2    13    1
     5     3     4   am
     6     4     5    2
     7     4     6    1
     8     6     7    1
     9     7     8   ar
    10     7    12   ar
    11     8     9   ar
    12     9    10   ar
    13    10    11   ar
    14    11    12   ar
    15    13    14   ar
    16    13    24   ar
    17    14    15   ar
    18    15    16   ar
    19    16    17    1
    20    16    23   ar
    21    17    18    1
    22    18    19    1
    23    18    22    1
    24    19    20    1
    25    20    21    1
    26    21    22    1
    27    23    24   ar
    28    25    26   ar
    29    25    27   ar
