@<TRIPOS>MOLECULE
34557_ChemDiv_8015-1412
 15 16 0 0 0
SMALL
GASTEIGER
Energy = 0

@<TRIPOS>ATOM
      1 C           0.8250   -0.1710    0.0000 C.ar    1  LIG1        0.2027
      2 C           0.8250    0.7830    0.0000 C.ar    1  LIG1        0.2331
      3 N          -0.8330    0.7830    0.0000 N.ar    1  LIG1       -0.2649
      4 C          -0.8330   -0.1710    0.0000 C.ar    1  LIG1        0.1498
      5 N          -0.0080   -0.6500    0.0000 N.ar    1  LIG1       -0.2177
      6 C          -1.6630   -0.6500    0.0000 C.ar    1  LIG1        0.0384
      7 C          -2.4920   -0.1710    0.0000 C.ar    1  LIG1        0.0160
      8 C          -2.4920    0.7830    0.0000 C.ar    1  LIG1        0.0754
      9 C          -1.6630    1.2630    0.0000 C.ar    1  LIG1        0.0949
     10 CL         -3.3170    1.2630    0.0000 Cl      1  LIG1       -0.0807
     11 F           1.3000    1.6130    0.0000 F       1  LIG1       -0.1827
     12 C           1.6500   -0.6500    0.0000 C.2     1  LIG1        0.3631
     13 O           1.6500   -1.6080    0.0000 O.2     1  LIG1       -0.2430
     14 O           2.4830   -0.1710    0.0000 O.3     1  LIG1       -0.4402
     15 C           3.3130   -0.6500    0.0000 C.3     1  LIG1        0.2560
@<TRIPOS>BOND
     1     1     2   ar
     2     1     5   ar
     3     1    12    1
     4     2     3   ar
     5     2    11    1
     6     3     4   ar
     7     3     9   ar
     8     4     5   ar
     9     4     6   ar
    10     6     7   ar
    11     7     8   ar
    12     8     9   ar
    13     8    10    1
    14    12    13    2
    15    12    14    1
    16    14    15    1
