@<TRIPOS>MOLECULE
34556_ChemDiv_8015-8218
 27 29 0 0 0
SMALL
GASTEIGER
Energy = 0

@<TRIPOS>ATOM
      1 C           2.0710   -0.2540    0.0000 C.2     1  LIG1        0.3438
      2 N           1.2040   -0.7540    0.0000 N.am    1  LIG1       -0.1838
      3 C           0.3420   -0.2540    0.0000 C.3     1  LIG1        0.1246
      4 C           0.3420    0.7540    0.0000 C.3     1  LIG1        0.0679
      5 C          -0.5290    1.2460    0.0000 C.2     1  LIG1        0.0524
      6 O          -1.4040    0.7540    0.0000 O.co2   1  LIG1       -0.5491
      7 O          -0.5290    2.2630    0.0000 O.co2   1  LIG1       -0.5491
      8 C          -0.5290   -0.7710    0.0000 C.ar    1  LIG1       -0.0020
      9 C          -1.3830   -0.2580    0.0000 C.ar    1  LIG1        0.0005
     10 C          -2.2540   -0.7710    0.0000 C.ar    1  LIG1        0.0366
     11 C          -2.2540   -1.7580    0.0000 C.ar    1  LIG1        0.1384
     12 O          -3.1210   -2.2540    0.0000 O.3     1  LIG1       -0.4792
     13 C          -3.9790   -1.7580    0.0000 C.3     1  LIG1        0.1659
     14 C          -4.1040   -0.7580    0.0000 C.3     1  LIG1        0.0435
     15 C          -5.0880   -0.5920    0.0000 C.3     1  LIG1        0.0038
     16 C          -5.5540   -1.4460    0.0000 C.3     1  LIG1        0.0038
     17 C          -4.8540   -2.1710    0.0000 C.3     1  LIG1        0.0435
     18 C          -1.3830   -2.2580    0.0000 C.ar    1  LIG1        0.0366
     19 C          -0.5290   -1.7580    0.0000 C.ar    1  LIG1        0.0005
     20 N           2.9540   -0.7540    0.0000 N.am    1  LIG1       -0.1610
     21 C           3.8170   -0.2540    0.0000 C.ar    1  LIG1        0.0750
     22 C           4.6790   -0.7540    0.0000 C.ar    1  LIG1        0.0166
     23 C           5.5500   -0.2540    0.0000 C.ar    1  LIG1        0.0013
     24 C           5.5500    0.7540    0.0000 C.ar    1  LIG1        0.0001
     25 C           4.6790    1.2670    0.0000 C.ar    1  LIG1        0.0013
     26 C           3.8170    0.7540    0.0000 C.ar    1  LIG1        0.0166
     27 O           2.0710    0.7540    0.0000 O.2     1  LIG1       -0.2488
@<TRIPOS>BOND
     1     1     2   am
     2     1    20   am
     3     1    27    2
     4     2     3    1
     5     3     4    1
     6     3     8    1
     7     4     5    1
     8     5     6   ar
     9     5     7   ar
    10     8     9   ar
    11     8    19   ar
    12     9    10   ar
    13    10    11   ar
    14    11    12    1
    15    11    18   ar
    16    12    13    1
    17    13    14    1
    18    13    17    1
    19    14    15    1
    20    15    16    1
    21    16    17    1
    22    18    19   ar
    23    20    21    1
    24    21    22   ar
    25    21    26   ar
    26    22    23   ar
    27    23    24   ar
    28    24    25   ar
    29    25    26   ar
