@<TRIPOS>MOLECULE
34551_ChemDiv_8015-1357
 24 27 0 0 0
SMALL
GASTEIGER
Energy = 0

@<TRIPOS>ATOM
      1 C           0.0750    0.5540    0.0000 C.ar    1  LIG1        0.0738
      2 C           0.0750   -0.4420    0.0000 C.ar    1  LIG1        0.2623
      3 N           0.9420   -0.9380    0.0000 N.ar    1  LIG1       -0.2955
      4 C           1.8040   -0.4380    0.0000 C.ar    1  LIG1        0.0625
      5 C           1.8040    0.5580    0.0000 C.ar    1  LIG1        0.0169
      6 C           0.9420    1.0500    0.0000 C.ar    1  LIG1        0.0077
      7 C           2.6540    1.0540    0.0000 C.ar    1  LIG1        0.0128
      8 C           3.5130    0.5630    0.0000 C.ar    1  LIG1        0.0578
      9 C           3.5210   -0.4330    0.0000 C.ar    1  LIG1        0.0129
     10 C           2.6580   -0.9330    0.0000 C.ar    1  LIG1        0.0181
     11 CL          4.3790    1.0710    0.0000 Cl      1  LIG1       -0.0822
     12 C           0.9460   -1.9330    0.0000 C.3     1  LIG1        0.1091
     13 C           0.0750   -2.4380    0.0000 C.3     1  LIG1        0.0266
     14 O          -0.7920   -0.9330    0.0000 O.2     1  LIG1       -0.2669
     15 C          -0.9210    0.9210    0.0000 C.ar    1  LIG1        0.0858
     16 N          -1.7830    0.4250    0.0000 N.ar    1  LIG1       -0.2452
     17 C          -2.6460    0.9130    0.0000 C.ar    1  LIG1        0.0813
     18 C          -2.6460    1.9130    0.0000 C.ar    1  LIG1        0.0177
     19 C          -1.7880    2.4130    0.0000 C.ar    1  LIG1        0.0030
     20 C          -0.9250    1.9170    0.0000 C.ar    1  LIG1        0.0193
     21 C          -3.5250    2.4420    0.0000 C.ar    1  LIG1        0.0015
     22 C          -4.3830    1.9420    0.0000 C.ar    1  LIG1        0.0001
     23 C          -4.3630    0.9080    0.0000 C.ar    1  LIG1        0.0015
     24 C          -3.5000    0.4130    0.0000 C.ar    1  LIG1        0.0191
@<TRIPOS>BOND
     1     1     2   ar
     2     1     6   ar
     3     1    15    1
     4     2     3   ar
     5     2    14    2
     6     3     4   ar
     7     3    12    1
     8     4     5   ar
     9     4    10   ar
    10     5     6   ar
    11     5     7   ar
    12     7     8   ar
    13     8     9   ar
    14     8    11    1
    15     9    10   ar
    16    12    13    1
    17    15    16   ar
    18    15    20   ar
    19    16    17   ar
    20    17    18   ar
    21    17    24   ar
    22    18    19   ar
    23    18    21   ar
    24    19    20   ar
    25    21    22   ar
    26    22    23   ar
    27    23    24   ar
