@<TRIPOS>MOLECULE
34561_ChemDiv_8014-8726
 32 35 0 0 0
SMALL
GASTEIGER
Energy = 0

@<TRIPOS>ATOM
      1 C           0.1500    0.3210    0.0000 C.ar    1  LIG1        0.0468
      2 C          -0.1540   -0.6330    0.0000 C.ar    1  LIG1        0.0617
      3 S          -1.1630   -0.6330    0.0000 S.2     1  LIG1       -0.0744
      4 C          -1.4710    0.3210    0.0000 C.ar    1  LIG1        0.1020
      5 C          -0.6630    0.9170    0.0000 C.ar    1  LIG1        0.1018
      6 N          -0.6630    1.9130    0.0000 N.pl3   1  LIG1       -0.1273
      7 C          -2.4250    0.6380    0.0000 C.2     1  LIG1        0.2763
      8 N          -3.1580   -0.0380    0.0000 N.am    1  LIG1       -0.1750
      9 C          -4.1210    0.2710    0.0000 C.ar    1  LIG1        0.0739
     10 C          -4.3250    1.2500    0.0000 C.ar    1  LIG1        0.0197
     11 C          -5.2710    1.5670    0.0000 C.ar    1  LIG1        0.0382
     12 C          -6.0210    0.8960    0.0000 C.ar    1  LIG1        0.1388
     13 C          -5.8130   -0.0830    0.0000 C.ar    1  LIG1        0.0382
     14 C          -4.8580   -0.3920    0.0000 C.ar    1  LIG1        0.0197
     15 O          -6.9580    1.2040    0.0000 O.3     1  LIG1       -0.4714
     16 C          -7.6880    0.5420    0.0000 C.3     1  LIG1        0.2525
     17 O          -2.6330    1.6170    0.0000 O.2     1  LIG1       -0.2674
     18 S           0.6460   -1.2170    0.0000 S.2     1  LIG1       -0.0744
     19 C           1.4540   -0.6210    0.0000 C.ar    1  LIG1        0.1020
     20 C           1.1500    0.3290    0.0000 C.ar    1  LIG1        0.1018
     21 N           1.7380    1.1380    0.0000 N.pl3   1  LIG1       -0.1273
     22 C           2.4080   -0.9290    0.0000 C.2     1  LIG1        0.2763
     23 N           3.1540   -0.2540    0.0000 N.am    1  LIG1       -0.1750
     24 C           4.1040   -0.5630    0.0000 C.ar    1  LIG1        0.0739
     25 C           4.8460    0.1080    0.0000 C.ar    1  LIG1        0.0197
     26 C           5.7960   -0.2000    0.0000 C.ar    1  LIG1        0.0382
     27 C           6.0080   -1.1750    0.0000 C.ar    1  LIG1        0.1388
     28 C           5.2540   -1.8500    0.0000 C.ar    1  LIG1        0.0382
     29 C           4.3080   -1.5460    0.0000 C.ar    1  LIG1        0.0197
     30 O           6.9500   -1.4830    0.0000 O.3     1  LIG1       -0.4714
     31 C           7.6880   -0.8130    0.0000 C.3     1  LIG1        0.2525
     32 O           2.6290   -1.9080    0.0000 O.2     1  LIG1       -0.2674
@<TRIPOS>BOND
     1     1     2   ar
     2     1     5   ar
     3     1    20   ar
     4     2     3   ar
     5     2    18   ar
     6     3     4   ar
     7     4     5   ar
     8     4     7    1
     9     5     6    1
    10     7     8   am
    11     7    17    2
    12     8     9    1
    13     9    10   ar
    14     9    14   ar
    15    10    11   ar
    16    11    12   ar
    17    12    13   ar
    18    12    15    1
    19    13    14   ar
    20    15    16    1
    21    18    19   ar
    22    19    20   ar
    23    19    22    1
    24    20    21    1
    25    22    23   am
    26    22    32    2
    27    23    24    1
    28    24    25   ar
    29    24    29   ar
    30    25    26   ar
    31    26    27   ar
    32    27    28   ar
    33    27    30    1
    34    28    29   ar
    35    30    31    1
