@<TRIPOS>MOLECULE
34569_ChemDiv_8014-8918
 17 18 0 0 0
SMALL
GASTEIGER
Energy = 0

@<TRIPOS>ATOM
      1 C          -1.6580    0.0330    0.0000 C.ar    1  LIG1        0.1687
      2 C          -0.7880   -0.4630    0.0000 C.ar    1  LIG1        0.0911
      3 C           0.0790    0.0460    0.0000 C.2     1  LIG1        0.2678
      4 N           0.9380   -0.4630    0.0000 N.am    1  LIG1       -0.2016
      5 C           1.7960    0.0460    0.0000 C.3     1  LIG1        0.1154
      6 C           2.6630   -0.4500    0.0000 C.3     1  LIG1        0.0217
      7 C           3.3670    0.2500    0.0000 C.3     1  LIG1        0.0018
      8 C           2.6540   -1.4500    0.0000 C.3     1  LIG1        0.0018
      9 O           0.0710    1.0460    0.0000 O.2     1  LIG1       -0.2683
     10 C          -0.7880   -1.4670    0.0000 C.ar    1  LIG1        0.0077
     11 C          -1.6580   -1.9710    0.0000 C.ar    1  LIG1        0.0019
     12 C          -2.5250   -1.4670    0.0000 C.ar    1  LIG1        0.0223
     13 C          -2.5170   -0.4630    0.0000 C.ar    1  LIG1        0.1187
     14 N          -3.2630    0.2000    0.0000 N.ar    1  LIG1       -0.2121
     15 C          -2.8540    1.1040    0.0000 C.ar    1  LIG1        0.2062
     16 O          -1.8630    1.0080    0.0000 O.2     1  LIG1       -0.4382
     17 C          -3.3710    1.9750    0.0000 C.3     1  LIG1        0.0950
@<TRIPOS>BOND
     1     1     2   ar
     2     1    13   ar
     3     1    16   ar
     4     2     3    1
     5     2    10   ar
     6     3     4   am
     7     3     9    2
     8     4     5    1
     9     5     6    1
    10     6     7    1
    11     6     8    1
    12    10    11   ar
    13    11    12   ar
    14    12    13   ar
    15    13    14   ar
    16    14    15   ar
    17    15    16   ar
    18    15    17    1
