@<TRIPOS>MOLECULE
34560_ChemDiv_8015-9262
 21 22 0 0 0
SMALL
GASTEIGER
Energy = 0

@<TRIPOS>ATOM
      1 C           3.3830   -0.2460    0.0000 C.2     1  LIG1        0.3592
      2 N           2.5130   -0.7460    0.0000 N.am    1  LIG1       -0.1827
      3 C           1.6420   -0.2460    0.0000 C.3     1  LIG1        0.1247
      4 C           1.6420    0.7580    0.0000 C.3     1  LIG1        0.0679
      5 C           0.7670    1.2580    0.0000 C.2     1  LIG1        0.0524
      6 O          -0.1040    0.7580    0.0000 O.co2   1  LIG1       -0.5491
      7 O           0.7670    2.2630    0.0000 O.co2   1  LIG1       -0.5491
      8 C           0.7670   -0.7580    0.0000 C.ar    1  LIG1       -0.0020
      9 C          -0.0830   -0.2580    0.0000 C.ar    1  LIG1        0.0005
     10 C          -0.9580   -0.7580    0.0000 C.ar    1  LIG1        0.0366
     11 C          -0.9580   -1.7580    0.0000 C.ar    1  LIG1        0.1384
     12 O          -1.8290   -2.2460    0.0000 O.3     1  LIG1       -0.4792
     13 C          -2.6920   -1.7580    0.0000 C.3     1  LIG1        0.1659
     14 C          -2.8080   -0.7540    0.0000 C.3     1  LIG1        0.0435
     15 C          -3.7960   -0.5830    0.0000 C.3     1  LIG1        0.0038
     16 C          -4.2630   -1.4460    0.0000 C.3     1  LIG1        0.0038
     17 C          -3.5670   -2.1710    0.0000 C.3     1  LIG1        0.0435
     18 C          -0.0830   -2.2580    0.0000 C.ar    1  LIG1        0.0366
     19 C           0.7670   -1.7580    0.0000 C.ar    1  LIG1        0.0005
     20 O           3.3830    0.7580    0.0000 O.2     1  LIG1       -0.2474
     21 N           4.2580   -0.7460    0.0000 N.am    1  LIG1       -0.0679
@<TRIPOS>BOND
     1     1     2   am
     2     1    20    2
     3     1    21   am
     4     2     3    1
     5     3     4    1
     6     3     8    1
     7     4     5    1
     8     5     6   ar
     9     5     7   ar
    10     8     9   ar
    11     8    19   ar
    12     9    10   ar
    13    10    11   ar
    14    11    12    1
    15    11    18   ar
    16    12    13    1
    17    13    14    1
    18    13    17    1
    19    14    15    1
    20    15    16    1
    21    16    17    1
    22    18    19   ar
