@<TRIPOS>MOLECULE
34575_ChemDiv_C561-2928
 36 39 0 0 0
SMALL
GASTEIGER
Energy = 0

@<TRIPOS>ATOM
      1 N          -5.2380   -2.8000    0.0000 N.ar    1  LIG1       -0.2467
      2 C          -5.2380   -3.7880    0.0000 C.ar    1  LIG1        0.3349
      3 N          -4.3920   -4.2710    0.0000 N.ar    1  LIG1       -0.2640
      4 C          -3.5460   -3.7880    0.0000 C.ar    1  LIG1        0.1510
      5 C          -3.5380   -2.8000    0.0000 C.ar    1  LIG1        0.0862
      6 C          -4.3920   -2.3000    0.0000 C.ar    1  LIG1        0.2668
      7 O          -4.3920   -1.3130    0.0000 O.2     1  LIG1       -0.2668
      8 C          -2.6880   -2.3000    0.0000 C.ar    1  LIG1       -0.0171
      9 C          -1.8290   -2.8000    0.0000 C.ar    1  LIG1       -0.0118
     10 C          -1.8290   -3.7960    0.0000 C.ar    1  LIG1        0.0567
     11 N          -2.6880   -4.2790    0.0000 N.ar    1  LIG1       -0.2326
     12 C          -0.9790   -4.2880    0.0000 C.3     1  LIG1        0.0518
     13 C          -0.9710   -2.3170    0.0000 C.3     1  LIG1        0.0368
     14 C          -0.1210   -2.8130    0.0000 C.3     1  LIG1        0.0915
     15 C           0.7330   -2.3250    0.0000 C.2     1  LIG1        0.2419
     16 O           1.5790   -2.8250    0.0000 O.2     1  LIG1       -0.2733
     17 N           0.7420   -1.3000    0.0000 N.am    1  LIG1       -0.1990
     18 C           1.6420   -0.7920    0.0000 C.3     1  LIG1        0.1775
     19 C           1.6460    0.2380    0.0000 C.3     1  LIG1        0.1624
     20 N           2.5380    0.7380    0.0000 N.4     1  LIG1        0.3786
     21 C           2.5500    1.7750    0.0000 C.3     1  LIG1        0.1386
     22 C           3.4420    2.2880    0.0000 C.3     1  LIG1        0.0632
     23 C           4.3330    1.7630    0.0000 C.3     1  LIG1        0.0162
     24 C           5.2250    2.2750    0.0000 C.3     1  LIG1        0.0268
     25 C           5.2250    3.2710    0.0000 C.ar    1  LIG1       -0.0222
     26 C           6.0830    3.7580    0.0000 C.ar    1  LIG1       -0.0043
     27 C           6.0960    4.7500    0.0000 C.ar    1  LIG1       -0.0003
     28 C           5.2330    5.2580    0.0000 C.ar    1  LIG1       -0.0000
     29 C           4.3630    4.7500    0.0000 C.ar    1  LIG1       -0.0003
     30 C           4.3630    3.7670    0.0000 C.ar    1  LIG1       -0.0043
     31 C           4.3290    0.7330    0.0000 C.3     1  LIG1        0.0632
     32 C           3.4250    0.2250    0.0000 C.3     1  LIG1        0.1386
     33 C          -2.6750   -1.3170    0.0000 C.3     1  LIG1        0.0310
     34 C          -4.3920   -5.2580    0.0000 C.3     1  LIG1        0.1366
     35 O          -6.0960   -4.2790    0.0000 O.2     1  LIG1       -0.2461
     36 C          -6.0960   -2.3000    0.0000 C.3     1  LIG1        0.1382
@<TRIPOS>BOND
     1     1     2   ar
     2     1     6   ar
     3     1    36    1
     4     2     3   ar
     5     2    35    2
     6     3     4   ar
     7     3    34    1
     8     4     5   ar
     9     4    11   ar
    10     5     6   ar
    11     5     8   ar
    12     6     7    2
    13     8     9   ar
    14     8    33    1
    15     9    10   ar
    16     9    13    1
    17    10    11   ar
    18    10    12    1
    19    13    14    1
    20    14    15    1
    21    15    16    2
    22    15    17   am
    23    17    18    1
    24    18    19    1
    25    19    20    1
    26    20    21    1
    27    20    32    1
    28    21    22    1
    29    22    23    1
    30    23    24    1
    31    23    31    1
    32    24    25    1
    33    25    26   ar
    34    25    30   ar
    35    26    27   ar
    36    27    28   ar
    37    28    29   ar
    38    29    30   ar
    39    31    32    1
