@<TRIPOS>MOLECULE
34573_ChemDiv_C561-2824
 33 35 0 0 0
SMALL
GASTEIGER
Energy = 0

@<TRIPOS>ATOM
      1 N          -5.1960   -1.7380    0.0000 N.ar    1  LIG1       -0.2467
      2 C          -5.1960   -2.7380    0.0000 C.ar    1  LIG1        0.3349
      3 N          -4.3380   -3.2330    0.0000 N.ar    1  LIG1       -0.2640
      4 C          -3.4830   -2.7380    0.0000 C.ar    1  LIG1        0.1510
      5 C          -3.4710   -1.7380    0.0000 C.ar    1  LIG1        0.0862
      6 C          -4.3380   -1.2330    0.0000 C.ar    1  LIG1        0.2668
      7 O          -4.3380   -0.2290    0.0000 O.2     1  LIG1       -0.2668
      8 C          -2.6080   -1.2380    0.0000 C.ar    1  LIG1       -0.0171
      9 C          -1.7420   -1.7380    0.0000 C.ar    1  LIG1       -0.0118
     10 C          -1.7420   -2.7380    0.0000 C.ar    1  LIG1        0.0567
     11 N          -2.6170   -3.2420    0.0000 N.ar    1  LIG1       -0.2326
     12 C          -0.8880   -3.2500    0.0000 C.3     1  LIG1        0.0518
     13 C          -0.8710   -1.2460    0.0000 C.3     1  LIG1        0.0368
     14 C          -0.0080   -1.7540    0.0000 C.3     1  LIG1        0.0915
     15 C           0.8580   -1.2540    0.0000 C.2     1  LIG1        0.2417
     16 O           1.7210   -1.7630    0.0000 O.2     1  LIG1       -0.2733
     17 N           0.8670   -0.2500    0.0000 N.am    1  LIG1       -0.2051
     18 C           1.7380    0.2420    0.0000 C.3     1  LIG1        0.1198
     19 C           1.7380    1.2420    0.0000 C.3     1  LIG1        0.0499
     20 C           2.6040    1.7420    0.0000 C.ar    1  LIG1       -0.0172
     21 C           3.4670    1.2380    0.0000 C.ar    1  LIG1        0.0358
     22 C           4.3330    1.7380    0.0000 C.ar    1  LIG1        0.1721
     23 C           4.3420    2.7380    0.0000 C.ar    1  LIG1        0.1724
     24 C           3.4670    3.2380    0.0000 C.ar    1  LIG1        0.0397
     25 C           2.6040    2.7380    0.0000 C.ar    1  LIG1       -0.0009
     26 O           5.1960    3.2380    0.0000 O.3     1  LIG1       -0.4684
     27 C           5.2080    4.2380    0.0000 C.3     1  LIG1        0.2526
     28 O           5.1960    1.2380    0.0000 O.3     1  LIG1       -0.4684
     29 C           6.0630    1.7380    0.0000 C.3     1  LIG1        0.2526
     30 C          -2.6000   -0.2380    0.0000 C.3     1  LIG1        0.0310
     31 C          -4.3290   -4.2380    0.0000 C.3     1  LIG1        0.1366
     32 O          -6.0630   -3.2420    0.0000 O.2     1  LIG1       -0.2461
     33 C          -6.0630   -1.2380    0.0000 C.3     1  LIG1        0.1382
@<TRIPOS>BOND
     1     1     2   ar
     2     1     6   ar
     3     1    33    1
     4     2     3   ar
     5     2    32    2
     6     3     4   ar
     7     3    31    1
     8     4     5   ar
     9     4    11   ar
    10     5     6   ar
    11     5     8   ar
    12     6     7    2
    13     8     9   ar
    14     8    30    1
    15     9    10   ar
    16     9    13    1
    17    10    11   ar
    18    10    12    1
    19    13    14    1
    20    14    15    1
    21    15    16    2
    22    15    17   am
    23    17    18    1
    24    18    19    1
    25    19    20    1
    26    20    21   ar
    27    20    25   ar
    28    21    22   ar
    29    22    23   ar
    30    22    28    1
    31    23    24   ar
    32    23    26    1
    33    24    25   ar
    34    26    27    1
    35    28    29    1
