@<TRIPOS>MOLECULE
34578_ChemDiv_8016-2308
 27 29 0 0 0
SMALL
GASTEIGER
Energy = 0

@<TRIPOS>ATOM
      1 C           1.8420    0.0080    0.0000 C.2     1  LIG1        0.2650
      2 N           2.3420    0.8670    0.0000 N.am    1  LIG1       -0.1985
      3 C           1.8420    1.7290    0.0000 C.3     1  LIG1        0.1233
      4 C           2.3420    2.5960    0.0000 C.3     1  LIG1        0.0678
      5 C           3.3500    2.5960    0.0000 C.2     1  LIG1        0.0524
      6 O           3.8500    1.7290    0.0000 O.co2   1  LIG1       -0.5491
      7 O           3.8500    3.4670    0.0000 O.co2   1  LIG1       -0.5491
      8 C           0.8420    1.7290    0.0000 C.ar    1  LIG1       -0.0020
      9 C           0.3420    0.8670    0.0000 C.ar    1  LIG1        0.0005
     10 C          -0.6540    0.8670    0.0000 C.ar    1  LIG1        0.0366
     11 C          -1.1540    1.7290    0.0000 C.ar    1  LIG1        0.1384
     12 O          -2.1460    1.7290    0.0000 O.3     1  LIG1       -0.4792
     13 C          -2.6460    0.8670    0.0000 C.3     1  LIG1        0.1659
     14 C          -3.6420    0.7670    0.0000 C.3     1  LIG1        0.0435
     15 C          -3.8540   -0.2130    0.0000 C.3     1  LIG1        0.0038
     16 C          -2.9830   -0.7130    0.0000 C.3     1  LIG1        0.0038
     17 C          -2.2420   -0.0460    0.0000 C.3     1  LIG1        0.0435
     18 C          -0.6540    2.5960    0.0000 C.ar    1  LIG1        0.0366
     19 C           0.3420    2.5960    0.0000 C.ar    1  LIG1        0.0005
     20 C           2.3420   -0.8630    0.0000 C.ar    1  LIG1        0.0551
     21 C           3.3500   -0.8630    0.0000 C.ar    1  LIG1        0.0054
     22 C           3.8420   -1.7290    0.0000 C.ar    1  LIG1        0.0115
     23 C           3.3500   -2.5920    0.0000 C.ar    1  LIG1        0.0577
     24 C           2.3420   -2.5920    0.0000 C.ar    1  LIG1        0.0115
     25 C           1.8420   -1.7290    0.0000 C.ar    1  LIG1        0.0054
     26 CL          3.8500   -3.4630    0.0000 Cl      1  LIG1       -0.0822
     27 O           0.8420    0.0080    0.0000 O.2     1  LIG1       -0.2684
@<TRIPOS>BOND
     1     1     2   am
     2     1    20    1
     3     1    27    2
     4     2     3    1
     5     3     4    1
     6     3     8    1
     7     4     5    1
     8     5     6   ar
     9     5     7   ar
    10     8     9   ar
    11     8    19   ar
    12     9    10   ar
    13    10    11   ar
    14    11    12    1
    15    11    18   ar
    16    12    13    1
    17    13    14    1
    18    13    17    1
    19    14    15    1
    20    15    16    1
    21    16    17    1
    22    18    19   ar
    23    20    21   ar
    24    20    25   ar
    25    21    22   ar
    26    22    23   ar
    27    23    24   ar
    28    23    26    1
    29    24    25   ar
