@<TRIPOS>MOLECULE
34571_ChemDiv_8014-8926
 22 24 0 0 0
SMALL
GASTEIGER
Energy = 0

@<TRIPOS>ATOM
      1 N          -2.0170   -0.2210    0.0000 N.ar    1  LIG1       -0.2466
      2 C          -2.0170   -1.2500    0.0000 C.ar    1  LIG1        0.3349
      3 N          -1.1790   -1.7210    0.0000 N.ar    1  LIG1       -0.2639
      4 C          -0.3290   -1.2250    0.0000 C.ar    1  LIG1        0.1565
      5 C          -0.3290   -0.2210    0.0000 C.ar    1  LIG1        0.1251
      6 C          -1.1790    0.2830    0.0000 C.ar    1  LIG1        0.2702
      7 O          -1.2080    1.2880    0.0000 O.2     1  LIG1       -0.2666
      8 C           0.5460    0.2830    0.0000 C.ar    1  LIG1        0.1600
      9 C           1.3920   -0.2210    0.0000 C.ar    1  LIG1        0.0877
     10 C           1.3920   -1.2500    0.0000 C.ar    1  LIG1        0.1891
     11 N           0.5460   -1.7210    0.0000 N.ar    1  LIG1       -0.2072
     12 N           2.3330   -1.5380    0.0000 N.ar    1  LIG1       -0.1286
     13 N           2.8920   -0.7250    0.0000 N.ar    1  LIG1       -0.1507
     14 C           2.3330    0.0960    0.0000 C.ar    1  LIG1        0.0869
     15 C           2.6790    1.0670    0.0000 C.3     1  LIG1        0.0542
     16 O           0.5790    1.2880    0.0000 O.3     1  LIG1       -0.4237
     17 C           1.4500    1.7500    0.0000 C.2     1  LIG1        0.3220
     18 O           2.3000    1.2540    0.0000 O.2     1  LIG1       -0.2497
     19 C           1.4830    2.7580    0.0000 C.3     1  LIG1        0.1216
     20 C          -1.2080   -2.7540    0.0000 C.3     1  LIG1        0.1366
     21 O          -2.8960   -1.7880    0.0000 O.2     1  LIG1       -0.2461
     22 C          -2.8670    0.3420    0.0000 C.3     1  LIG1        0.1382
@<TRIPOS>BOND
     1     1     2   ar
     2     1     6   ar
     3     1    22    1
     4     2     3   ar
     5     2    21    2
     6     3     4   ar
     7     3    20    1
     8     4     5   ar
     9     4    11   ar
    10     5     6   ar
    11     5     8   ar
    12     6     7    2
    13     8     9   ar
    14     8    16    1
    15     9    10   ar
    16     9    14   ar
    17    10    11   ar
    18    10    12   ar
    19    12    13   ar
    20    13    14   ar
    21    14    15    1
    22    16    17    1
    23    17    18    2
    24    17    19    1
