@<TRIPOS>MOLECULE
34582_ChemDiv_8016-8119
 32 36 0 0 0
SMALL
GASTEIGER
Energy = 0

@<TRIPOS>ATOM
      1 C           3.3460   -1.5080    0.0000 C.3     1  LIG1        0.0705
      2 C           2.4710   -2.0170    0.0000 C.2     1  LIG1        0.2407
      3 N           1.5960   -1.5080    0.0000 N.am    1  LIG1       -0.2023
      4 C           1.5960   -0.5040    0.0000 C.3     1  LIG1        0.1230
      5 C           2.4710    0.0040    0.0000 C.3     1  LIG1        0.0678
      6 C           2.4710    1.0130    0.0000 C.2     1  LIG1        0.0524
      7 O           1.5960    1.5210    0.0000 O.co2   1  LIG1       -0.5491
      8 O           3.3460    1.5210    0.0000 O.co2   1  LIG1       -0.5491
      9 C           0.7210    0.0040    0.0000 C.ar    1  LIG1       -0.0020
     10 C          -0.1540   -0.5040    0.0000 C.ar    1  LIG1        0.0005
     11 C          -1.0210    0.0040    0.0000 C.ar    1  LIG1        0.0366
     12 C          -1.0210    1.0130    0.0000 C.ar    1  LIG1        0.1390
     13 O          -1.9000    1.5210    0.0000 O.3     1  LIG1       -0.4706
     14 C          -2.7670    1.0130    0.0000 C.3     1  LIG1        0.2320
     15 C          -3.6420    1.5210    0.0000 C.ar    1  LIG1        0.0212
     16 C          -4.5170    1.0130    0.0000 C.ar    1  LIG1       -0.0007
     17 C          -5.3880    1.5210    0.0000 C.ar    1  LIG1       -0.0002
     18 C          -5.3880    2.5210    0.0000 C.ar    1  LIG1       -0.0000
     19 C          -4.5170    3.0250    0.0000 C.ar    1  LIG1       -0.0002
     20 C          -3.6420    2.5210    0.0000 C.ar    1  LIG1       -0.0007
     21 C          -0.1540    1.5210    0.0000 C.ar    1  LIG1        0.0366
     22 C           0.7210    1.0130    0.0000 C.ar    1  LIG1        0.0005
     23 O           2.4710   -3.0210    0.0000 O.2     1  LIG1       -0.2734
     24 C           3.7960   -0.9670    0.0000 C.3     1  LIG1        0.0087
     25 C           5.0080   -0.9790    0.0000 C.3     1  LIG1        0.0005
     26 C           5.2960   -2.0080    0.0000 C.3     1  LIG1        0.0000
     27 C           4.5920   -2.7330    0.0000 C.3     1  LIG1        0.0005
     28 C           3.6170   -2.4830    0.0000 C.3     1  LIG1        0.0087
     29 C           4.8420   -1.7580    0.0000 C.3     1  LIG1        0.0000
     30 C           4.5460   -0.6830    0.0000 C.3     1  LIG1        0.0005
     31 C           3.6830   -0.6460    0.0000 C.3     1  LIG1        0.0087
     32 C           5.3830   -0.1710    0.0000 C.3     1  LIG1        0.0000
@<TRIPOS>BOND
     1     1     2    1
     2     1    24    1
     3     1    28    1
     4     1    31    1
     5     2     3   am
     6     2    23    2
     7     3     4    1
     8     4     5    1
     9     4     9    1
    10     5     6    1
    11     6     7   ar
    12     6     8   ar
    13     9    10   ar
    14     9    22   ar
    15    10    11   ar
    16    11    12   ar
    17    12    13    1
    18    12    21   ar
    19    13    14    1
    20    14    15    1
    21    15    16   ar
    22    15    20   ar
    23    16    17   ar
    24    17    18   ar
    25    18    19   ar
    26    19    20   ar
    27    21    22   ar
    28    24    25    1
    29    25    26    1
    30    25    32    1
    31    26    27    1
    32    27    28    1
    33    27    29    1
    34    29    30    1
    35    30    31    1
    36    30    32    1
