@<TRIPOS>MOLECULE
34583_ChemDiv_8015-2110
 17 18 0 0 0
SMALL
GASTEIGER
Energy = 0

@<TRIPOS>ATOM
      1 C          -0.3960   -0.2790    0.0000 C.3     1  LIG1        0.0396
      2 C          -1.3130    0.1750    0.0000 C.ar    1  LIG1        0.0058
      3 C          -2.1580   -0.3210    0.0000 C.ar    1  LIG1        0.1361
      4 F          -2.1210   -1.3330    0.0000 F       1  LIG1       -0.2045
      5 C          -3.0540    0.1460    0.0000 C.ar    1  LIG1        0.0293
      6 C          -3.0630    1.1420    0.0000 C.ar    1  LIG1        0.0023
      7 C          -2.2170    1.6670    0.0000 C.ar    1  LIG1       -0.0002
      8 C          -1.3290    1.1880    0.0000 C.ar    1  LIG1       -0.0020
      9 C           0.4130    0.2380    0.0000 C.3     1  LIG1        0.1010
     10 C           1.3000   -0.2420    0.0000 C.ar    1  LIG1       -0.0158
     11 C           1.3170   -1.2330    0.0000 C.ar    1  LIG1       -0.0041
     12 C           2.2040   -1.7290    0.0000 C.ar    1  LIG1       -0.0003
     13 C           3.0580   -1.2040    0.0000 C.ar    1  LIG1       -0.0000
     14 C           3.0380   -0.1920    0.0000 C.ar    1  LIG1       -0.0003
     15 C           2.1540    0.2630    0.0000 C.ar    1  LIG1       -0.0041
     16 C           0.4000    1.2290    0.0000 C.3     1  LIG1        0.3197
     17 N          -0.4540    1.7330    0.0000 N.4     1  LIG1        0.5975
@<TRIPOS>BOND
     1     1     2    1
     2     1     9    1
     3     2     3   ar
     4     2     8   ar
     5     3     4    1
     6     3     5   ar
     7     5     6   ar
     8     6     7   ar
     9     7     8   ar
    10     9    10    1
    11     9    16    1
    12    10    11   ar
    13    10    15   ar
    14    11    12   ar
    15    12    13   ar
    16    13    14   ar
    17    14    15   ar
    18    16    17    1
