@<TRIPOS>MOLECULE
34580_ChemDiv_8016-7718
 32 34 0 0 0
SMALL
GASTEIGER
Energy = 0

@<TRIPOS>ATOM
      1 C           0.7830   -1.2500    0.0000 C.2     1  LIG1        0.2651
      2 N          -0.0830   -0.7500    0.0000 N.am    1  LIG1       -0.1985
      3 C          -0.0830    0.2460    0.0000 C.3     1  LIG1        0.1233
      4 C           0.7830    0.7540    0.0000 C.3     1  LIG1        0.0678
      5 C           0.7830    1.7540    0.0000 C.2     1  LIG1        0.0524
      6 O          -0.0830    2.2540    0.0000 O.co2   1  LIG1       -0.5491
      7 O           1.6500    2.2460    0.0000 O.co2   1  LIG1       -0.5491
      8 C          -0.9460    0.7540    0.0000 C.ar    1  LIG1       -0.0020
      9 C          -0.9460    1.7460    0.0000 C.ar    1  LIG1        0.0005
     10 C          -1.8130    2.2460    0.0000 C.ar    1  LIG1        0.0366
     11 C          -2.6830    1.7460    0.0000 C.ar    1  LIG1        0.1384
     12 O          -3.5460    2.2460    0.0000 O.3     1  LIG1       -0.4792
     13 C          -4.4040    1.7460    0.0000 C.3     1  LIG1        0.1659
     14 C          -5.3170    2.1540    0.0000 C.3     1  LIG1        0.0435
     15 C          -5.9830    1.4170    0.0000 C.3     1  LIG1        0.0038
     16 C          -5.4920    0.5460    0.0000 C.3     1  LIG1        0.0038
     17 C          -4.5130    0.7540    0.0000 C.3     1  LIG1        0.0435
     18 C          -2.6830    0.7540    0.0000 C.ar    1  LIG1        0.0366
     19 C          -1.8130    0.2460    0.0000 C.ar    1  LIG1        0.0005
     20 C           1.6500   -0.7500    0.0000 C.ar    1  LIG1        0.0563
     21 C           2.5130   -1.2500    0.0000 C.ar    1  LIG1        0.0212
     22 C           3.3830   -0.7500    0.0000 C.ar    1  LIG1        0.0735
     23 N           4.2460   -1.2500    0.0000 N.am    1  LIG1       -0.1792
     24 C           5.1080   -0.7500    0.0000 C.2     1  LIG1        0.2451
     25 O           5.9790   -1.2500    0.0000 O.2     1  LIG1       -0.2730
     26 C           5.1080    0.2540    0.0000 C.3     1  LIG1        0.0786
     27 C           5.9790    0.7540    0.0000 C.3     1  LIG1        0.0096
     28 C           4.2500    0.7540    0.0000 C.3     1  LIG1        0.0096
     29 C           3.3830    0.2540    0.0000 C.ar    1  LIG1        0.0166
     30 C           2.5130    0.7540    0.0000 C.ar    1  LIG1        0.0015
     31 C           1.6500    0.2540    0.0000 C.ar    1  LIG1        0.0046
     32 O           0.7830   -2.2500    0.0000 O.2     1  LIG1       -0.2684
@<TRIPOS>BOND
     1     1     2   am
     2     1    20    1
     3     1    32    2
     4     2     3    1
     5     3     4    1
     6     3     8    1
     7     4     5    1
     8     5     6   ar
     9     5     7   ar
    10     8     9   ar
    11     8    19   ar
    12     9    10   ar
    13    10    11   ar
    14    11    12    1
    15    11    18   ar
    16    12    13    1
    17    13    14    1
    18    13    17    1
    19    14    15    1
    20    15    16    1
    21    16    17    1
    22    18    19   ar
    23    20    21   ar
    24    20    31   ar
    25    21    22   ar
    26    22    23    1
    27    22    29   ar
    28    23    24   am
    29    24    25    2
    30    24    26    1
    31    26    27    1
    32    26    28    1
    33    29    30   ar
    34    30    31   ar
