@<TRIPOS>MOLECULE
34585_ChemDiv_8015-2111
 10 11 0 0 0
SMALL
GASTEIGER
Energy = 0

@<TRIPOS>ATOM
      1 C           0.1080    0.0000    0.0000 C.ar    1  LIG1        0.3328
      2 N           1.0460    0.3080    0.0000 N.ar    1  LIG1        0.1088
      3 C           1.6330   -0.4750    0.0000 C.ar    1  LIG1        0.4736
      4 N           1.0460   -1.3040    0.0000 N.ar    1  LIG1       -0.1667
      5 C           0.1080   -1.0000    0.0000 C.ar    1  LIG1        0.1589
      6 C          -0.7630   -1.5040    0.0000 C.ar    1  LIG1        0.0257
      7 C          -1.6380   -1.0000    0.0000 C.ar    1  LIG1        0.0033
      8 C          -1.6380    0.0000    0.0000 C.ar    1  LIG1        0.0245
      9 C          -0.7630    0.5040    0.0000 C.ar    1  LIG1        0.1606
     10 N          -0.7630    1.5080    0.0000 N.pl3   1  LIG1       -0.1215
@<TRIPOS>BOND
     1     1     2   ar
     2     1     5   ar
     3     1     9   ar
     4     2     3   ar
     5     3     4   ar
     6     4     5   ar
     7     5     6   ar
     8     6     7   ar
     9     7     8   ar
    10     8     9   ar
    11     9    10    1
