@<TRIPOS>MOLECULE
34589_ChemDiv_8017-8353
 12 13 0 0 0
SMALL
GASTEIGER
Energy = 0

@<TRIPOS>ATOM
      1 C           1.5670    0.0170    0.0000 C.ar    1  LIG1        0.3688
      2 N           0.9790   -0.7960    0.0000 N.ar    1  LIG1       -0.1893
      3 C           0.0290   -0.4960    0.0000 C.ar    1  LIG1        0.1043
      4 C           0.0250    0.5080    0.0000 C.ar    1  LIG1        0.1051
      5 N           0.9750    0.8210    0.0000 N.ar    1  LIG1       -0.1893
      6 C          -0.8460    1.0080    0.0000 C.ar    1  LIG1        0.0393
      7 C          -1.7080    0.5080    0.0000 C.ar    1  LIG1        0.0968
      8 C          -1.7080   -0.5040    0.0000 C.ar    1  LIG1        0.0529
      9 C          -0.8460   -1.0040    0.0000 C.ar    1  LIG1        0.0288
     10 BR         -2.5710   -0.9960    0.0000 Br      1  LIG1       -0.0475
     11 N          -2.5710    1.0000    0.0000 N.pl3   1  LIG1       -0.1275
     12 O           2.5670    0.0210    0.0000 O.2     1  LIG1       -0.2426
@<TRIPOS>BOND
     1     1     2   ar
     2     1     5   ar
     3     1    12    2
     4     2     3   ar
     5     3     4   ar
     6     3     9   ar
     7     4     5   ar
     8     4     6   ar
     9     6     7   ar
    10     7     8   ar
    11     7    11    1
    12     8     9   ar
    13     8    10    1
