@<TRIPOS>MOLECULE
34597_ChemDiv_D029-0001
 24 26 0 0 0
SMALL
GASTEIGER
Energy = 0

@<TRIPOS>ATOM
      1 N          -2.5920   -0.5000    0.0000 N.ar    1  LIG1       -0.2466
      2 C          -2.5920   -1.5000    0.0000 C.ar    1  LIG1        0.3349
      3 N          -1.7380   -2.0000    0.0000 N.ar    1  LIG1       -0.2640
      4 C          -0.8630   -1.5000    0.0000 C.ar    1  LIG1        0.1520
      5 C          -0.8710   -0.5000    0.0000 C.ar    1  LIG1        0.0905
      6 C          -1.7380    0.0000    0.0000 C.ar    1  LIG1        0.2672
      7 O          -1.7380    1.0040    0.0000 O.2     1  LIG1       -0.2667
      8 C          -0.0080    0.0000    0.0000 C.ar    1  LIG1        0.0092
      9 C           0.8580   -0.5000    0.0000 C.ar    1  LIG1        0.0260
     10 C           0.8670   -1.5000    0.0000 C.ar    1  LIG1        0.1582
     11 N          -0.0080   -2.0000    0.0000 N.ar    1  LIG1       -0.2215
     12 C           1.7330   -2.0000    0.0000 C.2     1  LIG1        0.3593
     13 O           1.7380   -3.0000    0.0000 O.2     1  LIG1       -0.2432
     14 O           2.5960   -1.4960    0.0000 O.3     1  LIG1       -0.4403
     15 C           3.4580   -1.9960    0.0000 C.3     1  LIG1        0.2560
     16 C          -0.0080    1.0040    0.0000 C.ar    1  LIG1        0.0003
     17 C          -0.8710    1.4920    0.0000 C.ar    1  LIG1        0.0000
     18 C          -0.8750    2.4960    0.0000 C.ar    1  LIG1        0.0000
     19 C          -0.0080    3.0040    0.0000 C.ar    1  LIG1        0.0000
     20 C           0.8580    2.5040    0.0000 C.ar    1  LIG1        0.0000
     21 C           0.8580    1.5040    0.0000 C.ar    1  LIG1        0.0000
     22 C          -1.7380   -3.0000    0.0000 C.3     1  LIG1        0.1366
     23 O          -3.4630   -2.0000    0.0000 O.2     1  LIG1       -0.2461
     24 C          -3.4630    0.0000    0.0000 C.3     1  LIG1        0.1382
@<TRIPOS>BOND
     1     1     2   ar
     2     1     6   ar
     3     1    24    1
     4     2     3   ar
     5     2    23    2
     6     3     4   ar
     7     3    22    1
     8     4     5   ar
     9     4    11   ar
    10     5     6   ar
    11     5     8   ar
    12     6     7    2
    13     8     9   ar
    14     8    16    1
    15     9    10   ar
    16    10    11   ar
    17    10    12    1
    18    12    13    2
    19    12    14    1
    20    14    15    1
    21    16    17   ar
    22    16    21   ar
    23    17    18   ar
    24    18    19   ar
    25    19    20   ar
    26    20    21   ar
