@<TRIPOS>MOLECULE
34590_ChemDiv_8015-5600
 26 29 0 0 0
SMALL
GASTEIGER
Energy = 0

@<TRIPOS>ATOM
      1 N           0.8790    2.9920    0.0000 N.ar    1  LIG1       -0.2743
      2 C           0.8790    1.9750    0.0000 C.ar    1  LIG1        0.1654
      3 N           0.0130    1.4880    0.0000 N.ar    1  LIG1       -0.3008
      4 C          -0.8580    1.9750    0.0000 C.ar    1  LIG1        0.0664
      5 C          -0.8580    2.9920    0.0000 C.ar    1  LIG1        0.0720
      6 C           0.0130    3.4830    0.0000 C.ar    1  LIG1        0.2637
      7 O           0.0130    4.4830    0.0000 O.2     1  LIG1       -0.2669
      8 C          -1.7460    3.4830    0.0000 C.ar    1  LIG1        0.0062
      9 C          -2.6130    2.9920    0.0000 C.ar    1  LIG1        0.0003
     10 C          -2.6130    1.9750    0.0000 C.ar    1  LIG1        0.0015
     11 C          -1.7460    1.4880    0.0000 C.ar    1  LIG1        0.0174
     12 C           0.0130    0.4750    0.0000 C.3     1  LIG1        0.1770
     13 C           0.8790   -0.0170    0.0000 C.2     1  LIG1        0.1958
     14 C           0.8790   -1.0290    0.0000 C.ar    1  LIG1        0.0363
     15 C           1.7460   -1.5170    0.0000 C.ar    1  LIG1       -0.0017
     16 C           1.7460   -2.4920    0.0000 C.ar    1  LIG1       -0.0260
     17 C           0.8790   -3.0170    0.0000 C.ar    1  LIG1       -0.0261
     18 C           0.0130   -2.4920    0.0000 C.ar    1  LIG1       -0.0045
     19 C           0.0130   -1.5170    0.0000 C.ar    1  LIG1        0.0026
     20 C           0.8790   -3.9920    0.0000 C.3     1  LIG1        0.0260
     21 C           1.7460   -4.4830    0.0000 C.3     1  LIG1        0.0050
     22 C           2.6080   -3.9920    0.0000 C.3     1  LIG1        0.0050
     23 C           2.6080   -3.0170    0.0000 C.3     1  LIG1        0.0260
     24 O           1.7460    0.4750    0.0000 O.2     1  LIG1       -0.2893
     25 S           1.7460    1.4500    0.0000 S.2     1  LIG1       -0.0125
     26 C           1.7460    3.4830    0.0000 C.3     1  LIG1        0.1355
@<TRIPOS>BOND
     1     1     2   ar
     2     1     6   ar
     3     1    26    1
     4     2     3   ar
     5     2    25    2
     6     3     4   ar
     7     3    12    1
     8     4     5   ar
     9     4    11   ar
    10     5     6   ar
    11     5     8   ar
    12     6     7    2
    13     8     9   ar
    14     9    10   ar
    15    10    11   ar
    16    12    13    1
    17    13    14    1
    18    13    24    2
    19    14    15   ar
    20    14    19   ar
    21    15    16   ar
    22    16    17   ar
    23    16    23    1
    24    17    18   ar
    25    17    20    1
    26    18    19   ar
    27    20    21    1
    28    21    22    1
    29    22    23    1
