@<TRIPOS>MOLECULE
34594_ChemDiv_8015-9714
 24 26 0 0 0
SMALL
GASTEIGER
Energy = 0

@<TRIPOS>ATOM
      1 S          -3.0710   -1.8130    0.0000 S.O2    1  LIG1       -0.0091
      2 C          -2.2710   -1.2290    0.0000 C.3     1  LIG1        0.1616
      3 C          -2.5750   -0.2790    0.0000 C.3     1  LIG1        0.0734
      4 S          -2.0710    0.5880    0.0000 S.3     1  LIG1       -0.1296
      5 C          -1.0750    0.5880    0.0000 C.3     1  LIG1        0.1446
      6 C          -0.5710   -0.2790    0.0000 C.2     1  LIG1        0.2566
      7 N           0.4290   -0.2790    0.0000 N.am    1  LIG1       -0.1785
      8 C           0.9330    0.5880    0.0000 C.ar    1  LIG1        0.0734
      9 C           1.9330    0.5880    0.0000 C.ar    1  LIG1        0.0153
     10 C           2.4330   -0.2790    0.0000 C.ar    1  LIG1        0.0013
     11 C           1.9330   -1.1420    0.0000 C.ar    1  LIG1        0.0000
     12 C           2.4330   -2.0040    0.0000 C.ar    1  LIG1        0.0000
     13 C           3.4330   -2.0040    0.0000 C.ar    1  LIG1        0.0000
     14 C           3.9330   -1.1420    0.0000 C.ar    1  LIG1        0.0000
     15 C           3.4330   -0.2790    0.0000 C.ar    1  LIG1        0.0000
     16 C           2.4330    1.4580    0.0000 C.ar    1  LIG1        0.0013
     17 C           1.9330    2.3210    0.0000 C.ar    1  LIG1        0.0001
     18 C           0.9330    2.3210    0.0000 C.ar    1  LIG1        0.0013
     19 C           0.4290    1.4580    0.0000 C.ar    1  LIG1        0.0166
     20 O          -1.0750   -1.1420    0.0000 O.2     1  LIG1       -0.2720
     21 C          -3.5750   -0.2790    0.0000 C.3     1  LIG1        0.0379
     22 C          -3.8830   -1.2290    0.0000 C.3     1  LIG1        0.1518
     23 O          -2.2080   -2.3170    0.0000 O.2     1  LIG1       -0.1730
     24 O          -3.9380   -2.3170    0.0000 O.2     1  LIG1       -0.1730
@<TRIPOS>BOND
     1     1     2    1
     2     1    22    1
     3     1    23    2
     4     1    24    2
     5     2     3    1
     6     3     4    1
     7     3    21    1
     8     4     5    1
     9     5     6    1
    10     6     7   am
    11     6    20    2
    12     7     8    1
    13     8     9   ar
    14     8    19   ar
    15     9    10    1
    16     9    16   ar
    17    10    11   ar
    18    10    15   ar
    19    11    12   ar
    20    12    13   ar
    21    13    14   ar
    22    14    15   ar
    23    16    17   ar
    24    17    18   ar
    25    18    19   ar
    26    21    22    1
