@<TRIPOS>MOLECULE
34596_ChemDiv_8015-9978
 13 13 0 0 0
SMALL
GASTEIGER
Energy = 0

@<TRIPOS>ATOM
      1 C          -0.0080   -0.4920    0.0000 C.ar    1  LIG1        0.1205
      2 C          -0.8830    0.0000    0.0000 C.ar    1  LIG1        0.2699
      3 N          -0.8830    1.0080    0.0000 N.ar    1  LIG1       -0.2987
      4 C          -0.0080    1.5080    0.0000 C.ar    1  LIG1        0.0399
      5 C           0.8580    1.0080    0.0000 C.ar    1  LIG1        0.0094
      6 C           0.8670    0.0000    0.0000 C.ar    1  LIG1       -0.0065
      7 C           1.7330   -0.4920    0.0000 C.3     1  LIG1        0.0319
      8 C          -0.0080    2.5080    0.0000 C.3     1  LIG1        0.0501
      9 C          -1.7380    1.5000    0.0000 C.3     1  LIG1        0.1088
     10 C          -1.7380    2.5000    0.0000 C.3     1  LIG1        0.0266
     11 O          -1.7330   -0.4880    0.0000 O.2     1  LIG1       -0.2663
     12 C          -0.0080   -1.5040    0.0000 C.1     1  LIG1        0.1049
     13 N          -0.0080   -2.5040    0.0000 N.1     1  LIG1       -0.1907
@<TRIPOS>BOND
     1     1     2   ar
     2     1     6   ar
     3     1    12    1
     4     2     3   ar
     5     2    11    2
     6     3     4   ar
     7     3     9    1
     8     4     5   ar
     9     4     8    1
    10     5     6   ar
    11     6     7    1
    12     9    10    1
    13    12    13    3
