@<TRIPOS>MOLECULE
34595_ChemDiv_C561-2964
 32 35 0 0 0
SMALL
GASTEIGER
Energy = 0

@<TRIPOS>ATOM
      1 N          -4.3290   -1.2250    0.0000 N.ar    1  LIG1       -0.2467
      2 C          -4.3290   -2.2330    0.0000 C.ar    1  LIG1        0.3349
      3 N          -3.4750   -2.7210    0.0000 N.ar    1  LIG1       -0.2640
      4 C          -2.6130   -2.2330    0.0000 C.ar    1  LIG1        0.1510
      5 C          -2.6080   -1.2250    0.0000 C.ar    1  LIG1        0.0862
      6 C          -3.4750   -0.7210    0.0000 C.ar    1  LIG1        0.2668
      7 O          -3.4750    0.2880    0.0000 O.2     1  LIG1       -0.2668
      8 C          -1.7460   -0.7250    0.0000 C.ar    1  LIG1       -0.0171
      9 C          -0.8750   -1.2330    0.0000 C.ar    1  LIG1       -0.0118
     10 C          -0.8750   -2.2380    0.0000 C.ar    1  LIG1        0.0567
     11 N          -1.7460   -2.7290    0.0000 N.ar    1  LIG1       -0.2326
     12 C          -0.0170   -2.7380    0.0000 C.3     1  LIG1        0.0518
     13 C          -0.0080   -0.7380    0.0000 C.3     1  LIG1        0.0368
     14 C           0.8630   -1.2420    0.0000 C.3     1  LIG1        0.0900
     15 C           1.7290   -0.7420    0.0000 C.2     1  LIG1        0.2260
     16 N           1.7380    0.2580    0.0000 N.am    1  LIG1       -0.2792
     17 C           2.6040    0.7540    0.0000 C.3     1  LIG1        0.0977
     18 C           2.6040    1.7420    0.0000 C.3     1  LIG1        0.0422
     19 C           3.4750    2.2380    0.0000 C.ar    1  LIG1       -0.0208
     20 C           4.3330    1.7380    0.0000 C.ar    1  LIG1       -0.0042
     21 C           5.2040    2.2250    0.0000 C.ar    1  LIG1       -0.0003
     22 C           5.2040    3.2210    0.0000 C.ar    1  LIG1       -0.0000
     23 C           4.3420    3.7330    0.0000 C.ar    1  LIG1       -0.0003
     24 C           3.4790    3.2330    0.0000 C.ar    1  LIG1       -0.0042
     25 C           1.7420    2.2500    0.0000 C.3     1  LIG1        0.0078
     26 C           0.8750    1.7580    0.0000 C.3     1  LIG1        0.0219
     27 C           0.8670    0.7540    0.0000 C.3     1  LIG1        0.0934
     28 O           2.5880   -1.2540    0.0000 O.2     1  LIG1       -0.2749
     29 C          -1.7380    0.2750    0.0000 C.3     1  LIG1        0.0310
     30 C          -3.4710   -3.7290    0.0000 C.3     1  LIG1        0.1366
     31 O          -5.2080   -2.7290    0.0000 O.2     1  LIG1       -0.2461
     32 C          -5.2080   -0.7250    0.0000 C.3     1  LIG1        0.1382
@<TRIPOS>BOND
     1     1     2   ar
     2     1     6   ar
     3     1    32    1
     4     2     3   ar
     5     2    31    2
     6     3     4   ar
     7     3    30    1
     8     4     5   ar
     9     4    11   ar
    10     5     6   ar
    11     5     8   ar
    12     6     7    2
    13     8     9   ar
    14     8    29    1
    15     9    10   ar
    16     9    13    1
    17    10    11   ar
    18    10    12    1
    19    13    14    1
    20    14    15    1
    21    15    16   am
    22    15    28    2
    23    16    17    1
    24    16    27    1
    25    17    18    1
    26    18    19    1
    27    18    25    1
    28    19    20   ar
    29    19    24   ar
    30    20    21   ar
    31    21    22   ar
    32    22    23   ar
    33    23    24   ar
    34    25    26    1
    35    26    27    1
