@<TRIPOS>MOLECULE
34599_ChemDiv_D029-0002
 25 27 0 0 0
SMALL
GASTEIGER
Energy = 0

@<TRIPOS>ATOM
      1 N          -2.5920   -1.0040    0.0000 N.ar    1  LIG1       -0.2466
      2 C          -2.5920   -2.0040    0.0000 C.ar    1  LIG1        0.3349
      3 N          -1.7380   -2.4960    0.0000 N.ar    1  LIG1       -0.2640
      4 C          -0.8630   -2.0040    0.0000 C.ar    1  LIG1        0.1520
      5 C          -0.8710   -1.0040    0.0000 C.ar    1  LIG1        0.0905
      6 C          -1.7380   -0.4960    0.0000 C.ar    1  LIG1        0.2672
      7 O          -1.7380    0.5080    0.0000 O.2     1  LIG1       -0.2667
      8 C          -0.0080   -0.4960    0.0000 C.ar    1  LIG1        0.0092
      9 C           0.8580   -0.9960    0.0000 C.ar    1  LIG1        0.0260
     10 C           0.8670   -1.9960    0.0000 C.ar    1  LIG1        0.1582
     11 N          -0.0080   -2.4960    0.0000 N.ar    1  LIG1       -0.2215
     12 C           1.7330   -2.4960    0.0000 C.2     1  LIG1        0.3593
     13 O           1.7380   -3.4960    0.0000 O.2     1  LIG1       -0.2432
     14 O           2.5960   -1.9960    0.0000 O.3     1  LIG1       -0.4403
     15 C           3.4630   -2.4960    0.0000 C.3     1  LIG1        0.2560
     16 C          -0.0080    0.5080    0.0000 C.ar    1  LIG1        0.0003
     17 C          -0.8710    0.9920    0.0000 C.ar    1  LIG1       -0.0003
     18 C          -0.8750    1.9960    0.0000 C.ar    1  LIG1       -0.0043
     19 C          -0.0080    2.5000    0.0000 C.ar    1  LIG1       -0.0218
     20 C           0.8580    2.0000    0.0000 C.ar    1  LIG1       -0.0043
     21 C           0.8580    1.0080    0.0000 C.ar    1  LIG1       -0.0003
     22 C          -0.0130    3.5000    0.0000 C.3     1  LIG1        0.0310
     23 C          -1.7380   -3.4960    0.0000 C.3     1  LIG1        0.1366
     24 O          -3.4670   -2.5040    0.0000 O.2     1  LIG1       -0.2461
     25 C          -3.4670   -0.5040    0.0000 C.3     1  LIG1        0.1382
@<TRIPOS>BOND
     1     1     2   ar
     2     1     6   ar
     3     1    25    1
     4     2     3   ar
     5     2    24    2
     6     3     4   ar
     7     3    23    1
     8     4     5   ar
     9     4    11   ar
    10     5     6   ar
    11     5     8   ar
    12     6     7    2
    13     8     9   ar
    14     8    16    1
    15     9    10   ar
    16    10    11   ar
    17    10    12    1
    18    12    13    2
    19    12    14    1
    20    14    15    1
    21    16    17   ar
    22    16    21   ar
    23    17    18   ar
    24    18    19   ar
    25    19    20   ar
    26    19    22    1
    27    20    21   ar
