@<TRIPOS>MOLECULE
34602_ChemDiv_8016-0036
 17 18 0 0 0
SMALL
GASTEIGER
Energy = 0

@<TRIPOS>ATOM
      1 N           1.2920    1.7630    0.0000 N.2     1  LIG1       -0.0761
      2 C           0.4290    2.2630    0.0000 C.cat   1  LIG1        0.4520
      3 N          -0.4330    1.7630    0.0000 N.pl3   1  LIG1       -0.0436
      4 C          -0.4330    0.7630    0.0000 C.3     1  LIG1        0.2876
      5 N           0.4290    0.2630    0.0000 N.3     1  LIG1       -0.1951
      6 C           1.2920    0.7630    0.0000 C.3     1  LIG1        0.3004
      7 C           0.4290   -0.7380    0.0000 C.3     1  LIG1        0.1410
      8 C          -0.4330   -1.2290    0.0000 C.3     1  LIG1        0.1566
      9 N          -0.4330   -2.2380    0.0000 N.4     1  LIG1        0.3823
     10 C          -1.2960   -2.7380    0.0000 C.3     1  LIG1        0.1714
     11 C          -1.2960   -3.7420    0.0000 C.3     1  LIG1        0.2047
     12 O          -0.4330   -4.2460    0.0000 O.3     1  LIG1       -0.3411
     13 C           0.4420   -3.7420    0.0000 C.3     1  LIG1        0.2047
     14 C           0.4420   -2.7380    0.0000 C.3     1  LIG1        0.1714
     15 N           0.4290    3.2500    0.0000 N.pl3   1  LIG1        0.0433
     16 C          -0.4330    3.7580    0.0000 C.1     1  LIG1        0.2835
     17 N          -1.2960    4.2460    0.0000 N.1     1  LIG1       -0.1530
@<TRIPOS>BOND
     1     1     2    2
     2     1     6    1
     3     2     3    1
     4     2    15    1
     5     3     4    1
     6     4     5    1
     7     5     6    1
     8     5     7    1
     9     7     8    1
    10     8     9    1
    11     9    10    1
    12     9    14    1
    13    10    11    1
    14    11    12    1
    15    12    13    1
    16    13    14    1
    17    15    16    1
    18    16    17    3
