@<TRIPOS>MOLECULE
34607_ChemDiv_8014-9098
 18 20 0 0 0
SMALL
GASTEIGER
Energy = 0

@<TRIPOS>ATOM
      1 C          -0.0670   -0.6920    0.0000 C.ar    1  LIG1        0.3133
      2 N          -0.6540    0.1130    0.0000 N.ar    1  LIG1       -0.1931
      3 C          -1.6040   -0.1960    0.0000 C.ar    1  LIG1        0.1202
      4 C          -1.6040   -1.1920    0.0000 C.ar    1  LIG1        0.1661
      5 O          -0.6540   -1.5000    0.0000 O.2     1  LIG1       -0.4225
      6 C          -2.4630   -1.6880    0.0000 C.ar    1  LIG1        0.0392
      7 C          -3.3250   -1.1960    0.0000 C.ar    1  LIG1        0.0032
      8 C          -3.3250   -0.1960    0.0000 C.ar    1  LIG1        0.0018
      9 C          -2.4630    0.3080    0.0000 C.ar    1  LIG1        0.0224
     10 N           0.9330   -0.7000    0.0000 N.pl3   1  LIG1       -0.1623
     11 C           1.6380    0.0170    0.0000 C.ar    1  LIG1        0.0671
     12 C           2.6130   -0.2380    0.0000 C.ar    1  LIG1       -0.0068
     13 C           3.3210    0.4630    0.0000 C.ar    1  LIG1       -0.0030
     14 C           3.0580    1.4330    0.0000 C.ar    1  LIG1       -0.0006
     15 C           2.0830    1.6920    0.0000 C.ar    1  LIG1       -0.0030
     16 C           1.3710    0.9790    0.0000 C.ar    1  LIG1       -0.0068
     17 C           0.4080    1.2330    0.0000 C.3     1  LIG1        0.0324
     18 C           2.8750   -1.2080    0.0000 C.3     1  LIG1        0.0324
@<TRIPOS>BOND
     1     1     2   ar
     2     1     5   ar
     3     1    10    1
     4     2     3   ar
     5     3     4   ar
     6     3     9   ar
     7     4     5   ar
     8     4     6   ar
     9     6     7   ar
    10     7     8   ar
    11     8     9   ar
    12    10    11    1
    13    11    12   ar
    14    11    16   ar
    15    12    13   ar
    16    12    18    1
    17    13    14   ar
    18    14    15   ar
    19    15    16   ar
    20    16    17    1
