@<TRIPOS>MOLECULE
34600_ChemDiv_8016-0023
 35 40 0 0 0
SMALL
GASTEIGER
Energy = 0

@<TRIPOS>ATOM
      1 N          -3.8460    1.1040    0.0000 N.ar    1  LIG1       -0.1292
      2 N          -2.1830    1.1040    0.0000 N.ar    1  LIG1       -0.1413
      3 N          -2.1830    0.1460    0.0000 N.ar    1  LIG1       -0.0446
      4 N          -3.0130   -0.3290    0.0000 N.ar    1  LIG1       -0.1077
      5 C          -3.8460    0.1460    0.0000 C.ar    1  LIG1        0.2058
      6 C          -4.6830   -0.3290    0.0000 C.ar    1  LIG1        0.0393
      7 C          -4.6830   -1.2880    0.0000 C.ar    1  LIG1        0.0032
      8 C          -5.5170   -1.7790    0.0000 C.ar    1  LIG1        0.0001
      9 C          -6.3380   -1.2880    0.0000 C.ar    1  LIG1        0.0000
     10 C          -6.3380   -0.3290    0.0000 C.ar    1  LIG1        0.0001
     11 C          -5.5170    0.1460    0.0000 C.ar    1  LIG1        0.0032
     12 C          -1.5080    1.7920    0.0000 C.3     1  LIG1        0.2377
     13 C          -0.5710    1.5330    0.0000 C.2     1  LIG1        0.2724
     14 N          -0.3210    0.6170    0.0000 N.am    1  LIG1       -0.1770
     15 C           0.6380    0.3540    0.0000 C.ar    1  LIG1        0.0796
     16 C           0.8880   -0.6040    0.0000 C.ar    1  LIG1        0.0496
     17 C           1.8500   -0.8630    0.0000 C.ar    1  LIG1        0.0037
     18 C           2.5500   -0.1540    0.0000 C.ar    1  LIG1       -0.0223
     19 C           3.5130   -0.4130    0.0000 C.3     1  LIG1        0.0180
     20 C           3.9000    0.4830    0.0000 C.3     1  LIG1        0.0001
     21 C           4.8960    0.4670    0.0000 C.3     1  LIG1       -0.0194
     22 C           5.1080   -0.4380    0.0000 C.3     1  LIG1       -0.0079
     23 C           4.7750   -1.2920    0.0000 C.3     1  LIG1       -0.0194
     24 C           3.8130   -1.2880    0.0000 C.3     1  LIG1        0.0001
     25 C           5.6000   -2.0790    0.0000 C.3     1  LIG1       -0.0079
     26 C           5.3380   -1.1040    0.0000 C.3     1  LIG1       -0.0194
     27 C           4.3080   -1.0920    0.0000 C.3     1  LIG1        0.0001
     28 C           5.7130   -0.2000    0.0000 C.3     1  LIG1       -0.0079
     29 C           2.2960    0.8040    0.0000 C.ar    1  LIG1       -0.0029
     30 C           1.3330    1.0580    0.0000 C.ar    1  LIG1        0.0168
     31 BR          0.1750   -1.3040    0.0000 Br      1  LIG1       -0.0477
     32 O           0.1130    2.2170    0.0000 O.2     1  LIG1       -0.2707
     33 H           5.2460    1.4040    0.0000 H       1  LIG1        0.0318
     34 H           4.4000   -2.2130    0.0000 H       1  LIG1        0.0318
     35 H           6.3380   -1.1670    0.0000 H       1  LIG1        0.0318
@<TRIPOS>BOND
     1     1     2   ar
     2     1     5   ar
     3     2     3   ar
     4     2    12    1
     5     3     4   ar
     6     4     5   ar
     7     5     6    1
     8     6     7   ar
     9     6    11   ar
    10     7     8   ar
    11     8     9   ar
    12     9    10   ar
    13    10    11   ar
    14    12    13    1
    15    13    14   am
    16    13    32    2
    17    14    15    1
    18    15    16   ar
    19    15    30   ar
    20    16    17   ar
    21    16    31    1
    22    17    18   ar
    23    18    19    1
    24    18    29   ar
    25    19    20    1
    26    19    24    1
    27    19    27    1
    28    20    21    1
    29    21    22    1
    30    21    28    1
    31    21    33    1
    32    22    23    1
    33    23    24    1
    34    23    25    1
    35    23    34    1
    36    26    25    1
    37    26    27    1
    38    26    28    1
    39    26    35    1
    40    29    30   ar
