@<TRIPOS>MOLECULE
34605_ChemDiv_8014-9010
 19 21 0 0 0
SMALL
GASTEIGER
Energy = 0

@<TRIPOS>ATOM
      1 C1         -0.2500   -0.1000    0.0000 C.ar    1  <1>         0.0734
      2 C2          0.6210    0.3960    0.0000 C.3     1  <1>         0.2194
      3 N1          1.5330   -0.0080    0.0000 N.4     1  <1>         0.4558
      4 C3          2.2040    0.7380    0.0000 C.3     1  <1>         0.1933
      5 C4          3.2040    0.7380    0.0000 C.2     1  <1>         0.1082
      6 O1          3.7080   -0.1290    0.0000 O.co2   1  <1>        -0.5436
      7 O2          3.7080    1.6040    0.0000 O.co2   1  <1>        -0.5436
      8 C5          1.7040    1.6040    0.0000 C.3     1  <1>         0.1320
      9 S1          0.7250    1.3960    0.0000 S.3     1  <1>        -0.0685
     10 C6         -0.2500   -1.0960    0.0000 C.ar    1  <1>         0.1407
     11 N2         -1.1170   -1.6000    0.0000 N.ar    1  <1>        -0.2340
     12 C7         -1.9790   -1.0960    0.0000 C.ar    1  <1>         0.0822
     13 C8         -1.9790   -0.1000    0.0000 C.ar    1  <1>         0.0177
     14 C9         -1.1170    0.3960    0.0000 C.ar    1  <1>         0.0062
     15 C10        -2.8460    0.3960    0.0000 C.ar    1  <1>         0.0015
     16 C11        -3.7130   -0.1000    0.0000 C.ar    1  <1>         0.0001
     17 C12        -3.7130   -1.0960    0.0000 C.ar    1  <1>         0.0015
     18 C13        -2.8460   -1.6000    0.0000 C.ar    1  <1>         0.0191
     19 Cl1         0.6170   -1.6000    0.0000 Cl      1  <1>        -0.0614
@<TRIPOS>BOND
     1     1     2    1
     2     1    10   ar
     3     1    14   ar
     4     2     3    1
     5     2     9    1
     6     3     4    1
     7     4     5    1
     8     4     8    1
     9     5     6   ar
    10     5     7   ar
    11     8     9    1
    12    10    11   ar
    13    10    19    1
    14    11    12   ar
    15    12    13   ar
    16    12    18   ar
    17    13    14   ar
    18    13    15   ar
    19    15    16   ar
    20    16    17   ar
    21    17    18   ar
