@<TRIPOS>MOLECULE
34608_ChemDiv_8016-0392
 21 24 0 0 0
SMALL
GASTEIGER
Energy = 0

@<TRIPOS>ATOM
      1 C           1.3630   -0.2290    0.0000 C.ar    1  LIG1        0.1871
      2 C           1.3630    0.7670    0.0000 C.ar    1  LIG1        0.1973
      3 N           0.4040    1.0790    0.0000 N.ar    1  LIG1       -0.1222
      4 N          -0.1830    0.2670    0.0000 N.ar    1  LIG1       -0.0620
      5 N           0.4040   -0.5380    0.0000 N.ar    1  LIG1       -0.2101
      6 C          -0.0960   -1.4000    0.0000 C.3     1  LIG1        0.1572
      7 C          -1.0960   -1.4000    0.0000 C.ar    1  LIG1        0.0022
      8 C          -1.5960   -0.5380    0.0000 C.ar    1  LIG1       -0.0021
      9 C          -2.5960   -0.5380    0.0000 C.ar    1  LIG1       -0.0002
     10 C          -3.0960   -1.4000    0.0000 C.ar    1  LIG1       -0.0000
     11 C          -2.5960   -2.2670    0.0000 C.ar    1  LIG1       -0.0003
     12 C          -1.5960   -2.2670    0.0000 C.ar    1  LIG1       -0.0023
     13 C          -3.0960    0.3290    0.0000 C.ar    1  LIG1       -0.0000
     14 C          -2.5960    1.1920    0.0000 C.ar    1  LIG1       -0.0000
     15 C          -1.5960    1.1920    0.0000 C.ar    1  LIG1       -0.0000
     16 C          -1.0960    0.3290    0.0000 C.ar    1  LIG1       -0.0003
     17 C           2.2250    1.2670    0.0000 C.ar    1  LIG1        0.3032
     18 N           3.0920    0.7670    0.0000 N.ar    1  LIG1       -0.1841
     19 C           3.0920   -0.2290    0.0000 C.ar    1  LIG1        0.2031
     20 N           2.2250   -0.7250    0.0000 N.ar    1  LIG1       -0.2033
     21 O           2.2250    2.2710    0.0000 O.2     1  LIG1       -0.2633
@<TRIPOS>BOND
     1     1     2   ar
     2     1     5   ar
     3     1    20   ar
     4     2     3   ar
     5     2    17   ar
     6     3     4   ar
     7     4     5   ar
     8     5     6    1
     9     6     7    1
    10     7     8   ar
    11     7    12   ar
    12     8     9   ar
    13     8    16   ar
    14     9    10   ar
    15     9    13   ar
    16    10    11   ar
    17    11    12   ar
    18    13    14   ar
    19    14    15   ar
    20    15    16   ar
    21    17    18   ar
    22    17    21    2
    23    18    19   ar
    24    19    20   ar
