@<TRIPOS>MOLECULE
34614_ChemDiv_8015-5738
 34 37 0 0 0
SMALL
GASTEIGER
Energy = 0

@<TRIPOS>ATOM
      1 C          -1.1460    0.4580    0.0000 C.ar    1  LIG1        0.0443
      2 C          -1.7210    1.2710    0.0000 C.ar    1  LIG1        0.0153
      3 C          -2.6830    0.9710    0.0000 C.ar    1  LIG1        0.0146
      4 C          -2.6830   -0.0580    0.0000 C.ar    1  LIG1        0.0596
      5 N          -1.7210   -0.3580    0.0000 N.ar    1  LIG1       -0.3262
      6 C          -1.4000   -1.3210    0.0000 C.3     1  LIG1        0.1324
      7 C          -2.0630   -2.0670    0.0000 C.ar    1  LIG1        0.0004
      8 C          -3.0460   -1.8790    0.0000 C.ar    1  LIG1       -0.0024
      9 C          -3.7080   -2.6210    0.0000 C.ar    1  LIG1       -0.0003
     10 C          -3.3880   -3.5420    0.0000 C.ar    1  LIG1       -0.0000
     11 C          -2.4250   -3.7540    0.0000 C.ar    1  LIG1       -0.0003
     12 C          -1.7630   -3.0080    0.0000 C.ar    1  LIG1       -0.0024
     13 C          -3.5380   -0.5460    0.0000 C.ar    1  LIG1        0.0172
     14 C          -4.4130   -0.0580    0.0000 C.ar    1  LIG1        0.0015
     15 C          -4.4130    0.9710    0.0000 C.ar    1  LIG1        0.0001
     16 C          -3.5380    1.4580    0.0000 C.ar    1  LIG1        0.0012
     17 C          -1.4000    2.2250    0.0000 C.3     1  LIG1        0.1834
     18 S          -0.4330    2.4330    0.0000 S.O2    1  LIG1        0.0129
     19 O          -0.6250    3.4210    0.0000 O.2     1  LIG1       -0.1683
     20 O          -0.2500    1.4580    0.0000 O.2     1  LIG1       -0.1683
     21 C           0.5540    2.6210    0.0000 C.ar    1  LIG1        0.1060
     22 C           1.2290    1.8750    0.0000 C.ar    1  LIG1        0.0184
     23 C           2.2080    2.0710    0.0000 C.ar    1  LIG1        0.0013
     24 C           2.5210    2.9960    0.0000 C.ar    1  LIG1        0.0001
     25 C           1.8790    3.7580    0.0000 C.ar    1  LIG1        0.0013
     26 C           0.8960    3.5580    0.0000 C.ar    1  LIG1        0.0184
     27 C          -0.1420    0.4580    0.0000 C.3     1  LIG1        0.1301
     28 C           0.3710   -0.4210    0.0000 C.2     1  LIG1        0.2473
     29 O          -0.1420   -1.2790    0.0000 O.2     1  LIG1       -0.2729
     30 N           1.3710   -0.4210    0.0000 N.am    1  LIG1       -0.2050
     31 C           1.8920   -1.2790    0.0000 C.3     1  LIG1        0.1179
     32 C           2.8960   -1.2790    0.0000 C.3     1  LIG1        0.0589
     33 C           3.4080   -2.1540    0.0000 C.3     1  LIG1        0.1839
     34 O           4.4080   -2.1540    0.0000 O.3     1  LIG1       -0.2204
@<TRIPOS>BOND
     1     1     2   ar
     2     1     5   ar
     3     1    27    1
     4     2     3   ar
     5     2    17    1
     6     3     4   ar
     7     3    16   ar
     8     4     5   ar
     9     4    13   ar
    10     5     6    1
    11     6     7    1
    12     7     8   ar
    13     7    12   ar
    14     8     9   ar
    15     9    10   ar
    16    10    11   ar
    17    11    12   ar
    18    13    14   ar
    19    14    15   ar
    20    15    16   ar
    21    17    18    1
    22    18    19    2
    23    18    20    2
    24    18    21    1
    25    21    22   ar
    26    21    26   ar
    27    22    23   ar
    28    23    24   ar
    29    24    25   ar
    30    25    26   ar
    31    27    28    1
    32    28    29    2
    33    28    30   am
    34    30    31    1
    35    31    32    1
    36    32    33    1
    37    33    34    1
