@<TRIPOS>MOLECULE
34616_ChemDiv_8015-7379
 34 37 0 0 0
SMALL
GASTEIGER
Energy = 0

@<TRIPOS>ATOM
      1 C          -0.6750    0.4670    0.0000 C.ar    1  LIG1        0.0443
      2 C          -1.2460    1.2790    0.0000 C.ar    1  LIG1        0.0153
      3 C          -2.2080    0.9580    0.0000 C.ar    1  LIG1        0.0146
      4 C          -2.2080   -0.0290    0.0000 C.ar    1  LIG1        0.0596
      5 N          -1.2460   -0.3420    0.0000 N.ar    1  LIG1       -0.3262
      6 C          -0.9330   -1.3040    0.0000 C.3     1  LIG1        0.1324
      7 C          -1.5830   -2.0670    0.0000 C.ar    1  LIG1        0.0004
      8 C          -1.2460   -2.9920    0.0000 C.ar    1  LIG1       -0.0024
      9 C          -1.8880   -3.7630    0.0000 C.ar    1  LIG1       -0.0003
     10 C          -2.8710   -3.6040    0.0000 C.ar    1  LIG1       -0.0000
     11 C          -3.2080   -2.6420    0.0000 C.ar    1  LIG1       -0.0003
     12 C          -2.5630   -1.9040    0.0000 C.ar    1  LIG1       -0.0024
     13 C          -3.0830   -0.5250    0.0000 C.ar    1  LIG1        0.0172
     14 C          -3.9580   -0.0290    0.0000 C.ar    1  LIG1        0.0015
     15 C          -3.9580    0.9580    0.0000 C.ar    1  LIG1        0.0001
     16 C          -3.0830    1.4540    0.0000 C.ar    1  LIG1        0.0012
     17 C          -0.9380    2.2210    0.0000 C.3     1  LIG1        0.1834
     18 S           0.0170    2.4330    0.0000 S.O2    1  LIG1        0.0129
     19 C           1.0130    2.6290    0.0000 C.ar    1  LIG1        0.1061
     20 C           1.6750    1.8790    0.0000 C.ar    1  LIG1        0.0192
     21 C           2.6540    2.0790    0.0000 C.ar    1  LIG1        0.0127
     22 C           2.9670    3.0040    0.0000 C.ar    1  LIG1        0.0578
     23 C           2.3290    3.7670    0.0000 C.ar    1  LIG1        0.0127
     24 C           1.3380    3.5670    0.0000 C.ar    1  LIG1        0.0192
     25 CL          3.9540    3.1790    0.0000 Cl      1  LIG1       -0.0822
     26 O          -0.1710    3.4290    0.0000 O.2     1  LIG1       -0.1683
     27 O           0.2040    1.4540    0.0000 O.2     1  LIG1       -0.1683
     28 C           0.3540    0.4670    0.0000 C.3     1  LIG1        0.1301
     29 C           0.8420   -0.4040    0.0000 C.2     1  LIG1        0.2474
     30 O           0.3290   -1.2790    0.0000 O.2     1  LIG1       -0.2729
     31 N           1.8290   -0.4040    0.0000 N.am    1  LIG1       -0.2023
     32 C           2.3290    0.4420    0.0000 C.3     1  LIG1        0.1506
     33 C           3.3420    0.4420    0.0000 C.3     1  LIG1        0.2054
     34 O           3.8380    1.3040    0.0000 O.3     1  LIG1       -0.2184
@<TRIPOS>BOND
     1     1     2   ar
     2     1     5   ar
     3     1    28    1
     4     2     3   ar
     5     2    17    1
     6     3     4   ar
     7     3    16   ar
     8     4     5   ar
     9     4    13   ar
    10     5     6    1
    11     6     7    1
    12     7     8   ar
    13     7    12   ar
    14     8     9   ar
    15     9    10   ar
    16    10    11   ar
    17    11    12   ar
    18    13    14   ar
    19    14    15   ar
    20    15    16   ar
    21    17    18    1
    22    18    19    1
    23    18    26    2
    24    18    27    2
    25    19    20   ar
    26    19    24   ar
    27    20    21   ar
    28    21    22   ar
    29    22    23   ar
    30    22    25    1
    31    23    24   ar
    32    28    29    1
    33    29    30    2
    34    29    31   am
    35    31    32    1
    36    32    33    1
    37    33    34    1
