@<TRIPOS>MOLECULE
34619_ChemDiv_8015-2294
 24 27 0 0 0
SMALL
GASTEIGER
Energy = 0

@<TRIPOS>ATOM
      1 C          -1.6920    0.9750    0.0000 C.ar    1  LIG1        0.2925
      2 N          -1.6920    1.9420    0.0000 N.ar    1  LIG1       -0.1946
      3 C          -3.3790    1.9420    0.0000 C.ar    1  LIG1        0.1202
      4 C          -3.3790    0.9750    0.0000 C.ar    1  LIG1        0.1660
      5 O          -2.5420    0.4880    0.0000 O.2     1  LIG1       -0.4237
      6 C          -4.2290    0.4880    0.0000 C.ar    1  LIG1        0.0392
      7 C          -5.0630    0.9750    0.0000 C.ar    1  LIG1        0.0032
      8 C          -5.0630    1.9420    0.0000 C.ar    1  LIG1        0.0018
      9 C          -4.2290    2.4380    0.0000 C.ar    1  LIG1        0.0224
     10 N          -0.8460    0.4880    0.0000 N.pl3   1  LIG1       -0.2601
     11 C          -0.8460   -0.4790    0.0000 C.3     1  LIG1        0.1166
     12 C          -0.0130   -0.9670    0.0000 C.3     1  LIG1        0.1150
     13 N           0.8380   -0.4790    0.0000 N.am    1  LIG1       -0.2758
     14 C           1.6750   -0.9670    0.0000 C.2     1  LIG1        0.2302
     15 C           2.5210   -0.4790    0.0000 C.3     1  LIG1        0.1116
     16 C           3.3580   -0.9670    0.0000 C.ar    1  LIG1       -0.0131
     17 C           3.3580   -1.9500    0.0000 C.ar    1  LIG1       -0.0038
     18 C           4.2080   -2.4330    0.0000 C.ar    1  LIG1       -0.0003
     19 C           5.0580   -1.9500    0.0000 C.ar    1  LIG1       -0.0000
     20 C           5.0580   -0.9670    0.0000 C.ar    1  LIG1       -0.0003
     21 C           4.2080   -0.4790    0.0000 C.ar    1  LIG1       -0.0038
     22 O           1.6750   -1.9500    0.0000 O.2     1  LIG1       -0.2745
     23 C           0.8380    0.4880    0.0000 C.3     1  LIG1        0.1150
     24 C          -0.0130    0.9750    0.0000 C.3     1  LIG1        0.1166
@<TRIPOS>BOND
     1     1     2   ar
     2     1     5   ar
     3     1    10    1
     4     2     3   ar
     5     3     4   ar
     6     3     9   ar
     7     4     5   ar
     8     4     6   ar
     9     6     7   ar
    10     7     8   ar
    11     8     9   ar
    12    10    11    1
    13    10    24    1
    14    11    12    1
    15    12    13    1
    16    13    14   am
    17    13    23    1
    18    14    15    1
    19    14    22    2
    20    15    16    1
    21    16    17   ar
    22    16    21   ar
    23    17    18   ar
    24    18    19   ar
    25    19    20   ar
    26    20    21   ar
    27    23    24    1
