@<TRIPOS>MOLECULE
34618_ChemDiv_8015-6150
 25 29 0 0 0
SMALL
GASTEIGER
Energy = 0

@<TRIPOS>ATOM
      1 N           0.5830    0.0960    0.0000 N.ar    1  LIG1       -0.1870
      2 C          -0.2420    0.6880    0.0000 C.ar    1  LIG1        0.2036
      3 N           0.0830    1.6750    0.0000 N.ar    1  LIG1       -0.0556
      4 O           1.0830    1.6750    0.0000 O.2     1  LIG1       -0.3324
      5 C           1.3830    0.7080    0.0000 C.ar    1  LIG1        0.2601
      6 C           2.3330    0.4210    0.0000 C.ar    1  LIG1        0.0593
      7 C           3.0960    1.0880    0.0000 C.ar    1  LIG1        0.0449
      8 C           4.0370    0.7880    0.0000 C.ar    1  LIG1        0.1766
      9 C           4.2750   -0.1830    0.0000 C.ar    1  LIG1        0.1764
     10 O           5.2630   -0.2540    0.0000 O.3     1  LIG1       -0.4346
     11 C           5.6380    0.6960    0.0000 C.3     1  LIG1        0.4294
     12 O           4.8750    1.3000    0.0000 O.3     1  LIG1       -0.4346
     13 C           3.5250   -0.8580    0.0000 C.ar    1  LIG1        0.0403
     14 C           2.5670   -0.5540    0.0000 C.ar    1  LIG1        0.0081
     15 C          -1.1960    0.3460    0.0000 C.ar    1  LIG1        0.0392
     16 C          -1.3670   -0.6420    0.0000 C.ar    1  LIG1        0.0046
     17 C          -2.3080   -0.9960    0.0000 C.ar    1  LIG1        0.0176
     18 C          -3.0960   -0.3580    0.0000 C.ar    1  LIG1        0.0641
     19 N          -4.0290   -0.6960    0.0000 N.ar    1  LIG1       -0.3036
     20 C          -4.8830   -0.1540    0.0000 C.ar    1  LIG1        0.0802
     21 C          -5.6420   -0.7830    0.0000 C.ar    1  LIG1        0.0205
     22 C          -5.2830   -1.6710    0.0000 C.ar    1  LIG1        0.0205
     23 C          -4.2830   -1.6330    0.0000 C.ar    1  LIG1        0.0802
     24 C          -2.9250    0.6210    0.0000 C.ar    1  LIG1        0.0176
     25 C          -1.9790    0.9750    0.0000 C.ar    1  LIG1        0.0046
@<TRIPOS>BOND
     1     1     2   ar
     2     1     5   ar
     3     2     3   ar
     4     2    15    1
     5     3     4   ar
     6     4     5   ar
     7     5     6    1
     8     6     7   ar
     9     6    14   ar
    10     7     8   ar
    11     8     9   ar
    12     8    12    1
    13     9    10    1
    14     9    13   ar
    15    10    11    1
    16    11    12    1
    17    13    14   ar
    18    15    16   ar
    19    15    25   ar
    20    16    17   ar
    21    17    18   ar
    22    18    19    1
    23    18    24   ar
    24    19    20   ar
    25    19    23   ar
    26    20    21   ar
    27    21    22   ar
    28    22    23   ar
    29    24    25   ar
