@<TRIPOS>MOLECULE
34612_ChemDiv_8015-6822
 22 24 0 0 0
SMALL
GASTEIGER
Energy = 0

@<TRIPOS>ATOM
      1 C          -0.0500   -0.0580    0.0000 C.ar    1  LIG1        0.1222
      2 C          -0.3630    0.8960    0.0000 C.ar    1  LIG1        0.1821
      3 N          -1.3630    0.8960    0.0000 N.ar    1  LIG1       -0.2042
      4 C          -1.6710   -0.0580    0.0000 C.ar    1  LIG1        0.1849
      5 S          -0.8580   -0.6460    0.0000 S.2     1  LIG1       -0.0437
      6 N          -2.5380   -0.5580    0.0000 N.pl3   1  LIG1       -0.1885
      7 C          -3.4000   -0.0580    0.0000 C.ar    1  LIG1        0.0726
      8 C          -4.2710   -0.5580    0.0000 C.ar    1  LIG1        0.0166
      9 C          -5.1330   -0.0580    0.0000 C.ar    1  LIG1        0.0013
     10 C          -5.1330    0.9460    0.0000 C.ar    1  LIG1        0.0001
     11 C          -4.2710    1.4460    0.0000 C.ar    1  LIG1        0.0013
     12 C          -3.4000    0.9460    0.0000 C.ar    1  LIG1        0.0166
     13 N           0.1380    1.7630    0.0000 N.pl3   1  LIG1       -0.1064
     14 C           0.8170   -0.5580    0.0000 C.2     1  LIG1        0.2794
     15 N           1.6790   -0.0580    0.0000 N.am    1  LIG1       -0.1529
     16 C           2.5420   -0.5580    0.0000 C.ar    1  LIG1        0.1961
     17 N           2.6500   -1.5540    0.0000 N.ar    1  LIG1       -0.0604
     18 O           3.6290   -1.7580    0.0000 O.2     1  LIG1       -0.3565
     19 C           4.1290   -0.8960    0.0000 C.ar    1  LIG1        0.1563
     20 C           3.4540   -0.1540    0.0000 C.ar    1  LIG1        0.0751
     21 C           5.1290   -0.8960    0.0000 C.3     1  LIG1        0.0754
     22 O           0.8170   -1.5580    0.0000 O.2     1  LIG1       -0.2673
@<TRIPOS>BOND
     1     1     2   ar
     2     1     5   ar
     3     1    14    1
     4     2     3   ar
     5     2    13    1
     6     3     4   ar
     7     4     5   ar
     8     4     6    1
     9     6     7    1
    10     7     8   ar
    11     7    12   ar
    12     8     9   ar
    13     9    10   ar
    14    10    11   ar
    15    11    12   ar
    16    14    15   am
    17    14    22    2
    18    15    16    1
    19    16    17   ar
    20    16    20   ar
    21    17    18   ar
    22    18    19   ar
    23    19    20   ar
    24    19    21    1
