@<TRIPOS>MOLECULE
34610_ChemDiv_8015-5673
 18 19 0 0 0
SMALL
GASTEIGER
Energy = 0

@<TRIPOS>ATOM
      1 C          -0.4830   -0.0540    0.0000 C.ar    1  LIG1        0.1222
      2 C          -0.7920    0.8960    0.0000 C.ar    1  LIG1        0.1820
      3 N          -1.7920    0.8960    0.0000 N.ar    1  LIG1       -0.2045
      4 C          -2.1040   -0.0540    0.0000 C.ar    1  LIG1        0.1806
      5 S          -1.2920   -0.6380    0.0000 S.2     1  LIG1       -0.0441
      6 N          -2.9670   -0.5500    0.0000 N.pl3   1  LIG1       -0.2147
      7 C          -3.8330   -0.0540    0.0000 C.3     1  LIG1        0.1144
      8 C          -4.7040   -0.5500    0.0000 C.3     1  LIG1        0.0252
      9 N          -0.2920    1.7580    0.0000 N.pl3   1  LIG1       -0.1064
     10 C           0.3790   -0.5500    0.0000 C.2     1  LIG1        0.2794
     11 N           1.2420   -0.0540    0.0000 N.am    1  LIG1       -0.1529
     12 C           2.1130   -0.5500    0.0000 C.ar    1  LIG1        0.1961
     13 N           2.2170   -1.5420    0.0000 N.ar    1  LIG1       -0.0604
     14 O           3.1920   -1.7540    0.0000 O.2     1  LIG1       -0.3565
     15 C           3.6920   -0.8920    0.0000 C.ar    1  LIG1        0.1563
     16 C           3.0290   -0.1420    0.0000 C.ar    1  LIG1        0.0751
     17 C           4.7000   -0.8920    0.0000 C.3     1  LIG1        0.0754
     18 O           0.3790   -1.5500    0.0000 O.2     1  LIG1       -0.2673
@<TRIPOS>BOND
     1     1     2   ar
     2     1     5   ar
     3     1    10    1
     4     2     3   ar
     5     2     9    1
     6     3     4   ar
     7     4     5   ar
     8     4     6    1
     9     6     7    1
    10     7     8    1
    11    10    11   am
    12    10    18    2
    13    11    12    1
    14    12    13   ar
    15    12    16   ar
    16    13    14   ar
    17    14    15   ar
    18    15    16   ar
    19    15    17    1
