@<TRIPOS>MOLECULE
34623_ChemDiv_8015-5077
 21 23 0 0 0
SMALL
GASTEIGER
Energy = 0

@<TRIPOS>ATOM
      1 C          -1.6830    0.7210    0.0000 C.ar    1  LIG1        0.2925
      2 N          -1.6830    1.6920    0.0000 N.ar    1  LIG1       -0.1946
      3 C          -3.3670    1.6920    0.0000 C.ar    1  LIG1        0.1202
      4 C          -3.3670    0.7210    0.0000 C.ar    1  LIG1        0.1660
      5 O          -2.5290    0.2420    0.0000 O.2     1  LIG1       -0.4237
      6 C          -4.1920    0.2420    0.0000 C.ar    1  LIG1        0.0392
      7 C          -5.0420    0.7210    0.0000 C.ar    1  LIG1        0.0032
      8 C          -5.0420    1.6920    0.0000 C.ar    1  LIG1        0.0018
      9 C          -4.1920    2.1830    0.0000 C.ar    1  LIG1        0.0224
     10 N          -0.8420    0.2420    0.0000 N.pl3   1  LIG1       -0.2601
     11 C          -0.0080    0.7210    0.0000 C.3     1  LIG1        0.1166
     12 C           0.8380    0.2420    0.0000 C.3     1  LIG1        0.1150
     13 N           0.8380   -0.7170    0.0000 N.am    1  LIG1       -0.2760
     14 C           1.6670   -1.2040    0.0000 C.2     1  LIG1        0.2283
     15 C           2.5170   -0.7170    0.0000 C.3     1  LIG1        0.1172
     16 C           3.3500   -1.2040    0.0000 C.3     1  LIG1        0.1518
     17 O           4.1920   -0.7170    0.0000 O.3     1  LIG1       -0.3506
     18 C           5.0380   -1.2040    0.0000 C.3     1  LIG1        0.1741
     19 O           1.6670   -2.1790    0.0000 O.2     1  LIG1       -0.2748
     20 C          -0.0080   -1.2040    0.0000 C.3     1  LIG1        0.1150
     21 C          -0.8420   -0.7170    0.0000 C.3     1  LIG1        0.1166
@<TRIPOS>BOND
     1     1     2   ar
     2     1     5   ar
     3     1    10    1
     4     2     3   ar
     5     3     4   ar
     6     3     9   ar
     7     4     5   ar
     8     4     6   ar
     9     6     7   ar
    10     7     8   ar
    11     8     9   ar
    12    10    11    1
    13    10    21    1
    14    11    12    1
    15    12    13    1
    16    13    14   am
    17    13    20    1
    18    14    15    1
    19    14    19    2
    20    15    16    1
    21    16    17    1
    22    17    18    1
    23    20    21    1
