@<TRIPOS>MOLECULE
34626_ChemDiv_8016-0407
 19 22 0 0 0
SMALL
GASTEIGER
Energy = 0

@<TRIPOS>ATOM
      1 C           0.0750   -0.5420    0.0000 C.3     1  LIG1        0.0354
      2 C          -0.7710   -0.0540    0.0000 C.ar    1  LIG1        0.0583
      3 C          -0.7710    0.9210    0.0000 C.ar    1  LIG1        0.0158
      4 C          -1.6130    1.4210    0.0000 C.ar    1  LIG1        0.0167
      5 C          -1.6130    2.4080    0.0000 C.2     1  LIG1        0.0730
      6 O          -0.7580    2.9080    0.0000 O.co2   1  LIG1       -0.5446
      7 O          -2.4750    2.9080    0.0000 O.co2   1  LIG1       -0.5446
      8 C          -2.4630    0.9210    0.0000 C.ar    1  LIG1        0.0218
      9 C          -2.4630   -0.0540    0.0000 C.ar    1  LIG1        0.0985
     10 N          -1.6130   -0.5580    0.0000 N.ar    1  LIG1       -0.2482
     11 C           0.9460   -0.0540    0.0000 C.3     1  LIG1        0.0056
     12 C           1.7960   -0.5580    0.0000 C.3     1  LIG1        0.0004
     13 C           1.7960   -1.5330    0.0000 C.3     1  LIG1        0.0000
     14 C           0.9460   -2.0330    0.0000 C.3     1  LIG1        0.0004
     15 C           0.0750   -1.5170    0.0000 C.3     1  LIG1        0.0056
     16 C           1.4170   -2.9040    0.0000 C.3     1  LIG1        0.0000
     17 C           1.6040   -1.9330    0.0000 C.3     1  LIG1        0.0004
     18 C           0.5790   -1.4080    0.0000 C.3     1  LIG1        0.0056
     19 C           2.4710   -1.4460    0.0000 C.3     1  LIG1        0.0000
@<TRIPOS>BOND
     1     1     2    1
     2     1    11    1
     3     1    15    1
     4     1    18    1
     5     2     3   ar
     6     2    10   ar
     7     3     4   ar
     8     4     5    1
     9     4     8   ar
    10     5     6   ar
    11     5     7   ar
    12     8     9   ar
    13     9    10   ar
    14    11    12    1
    15    12    13    1
    16    12    19    1
    17    13    14    1
    18    14    15    1
    19    14    16    1
    20    16    17    1
    21    17    18    1
    22    17    19    1
