@<TRIPOS>MOLECULE
34622_ChemDiv_8015-6333
 26 28 0 0 0
SMALL
GASTEIGER
Energy = 0

@<TRIPOS>ATOM
      1 N          -0.4830   -1.1920    0.0000 N.ar    1  LIG1       -0.2226
      2 C          -0.1790   -2.1500    0.0000 C.ar    1  LIG1        0.1834
      3 S          -0.9920   -2.7290    0.0000 S.2     1  LIG1       -0.0492
      4 C          -1.8040   -2.1500    0.0000 C.ar    1  LIG1        0.0573
      5 C          -1.4830   -1.1920    0.0000 C.ar    1  LIG1        0.0898
      6 C          -2.0790   -0.3790    0.0000 C.ar    1  LIG1        0.0183
      7 C          -3.0710   -0.5000    0.0000 C.ar    1  LIG1        0.0028
      8 C          -3.6670    0.3080    0.0000 C.ar    1  LIG1        0.0166
      9 C          -3.2540    1.2380    0.0000 C.ar    1  LIG1        0.0734
     10 N          -3.8540    2.0460    0.0000 N.am    1  LIG1       -0.1792
     11 C          -4.8380    1.9380    0.0000 C.2     1  LIG1        0.2461
     12 O          -5.2420    1.0210    0.0000 O.2     1  LIG1       -0.2730
     13 C          -5.4290    2.7330    0.0000 C.3     1  LIG1        0.0968
     14 C          -2.2540    1.3460    0.0000 C.ar    1  LIG1        0.0166
     15 C          -1.6580    0.5330    0.0000 C.ar    1  LIG1        0.0028
     16 N           0.7670   -2.4540    0.0000 N.pl3   1  LIG1       -0.1886
     17 C           1.5170   -1.7920    0.0000 C.ar    1  LIG1        0.0727
     18 C           2.4630   -2.1040    0.0000 C.ar    1  LIG1        0.0179
     19 C           3.2000   -1.4290    0.0000 C.ar    1  LIG1        0.0179
     20 C           2.9920   -0.4540    0.0000 C.ar    1  LIG1        0.0734
     21 N           3.7380    0.2130    0.0000 N.am    1  LIG1       -0.1792
     22 C           4.6790   -0.0880    0.0000 C.2     1  LIG1        0.2461
     23 O           4.8920   -1.0630    0.0000 O.2     1  LIG1       -0.2730
     24 C           5.4250    0.5750    0.0000 C.3     1  LIG1        0.0968
     25 C           2.0420   -0.1540    0.0000 C.ar    1  LIG1        0.0179
     26 C           1.2920   -0.8170    0.0000 C.ar    1  LIG1        0.0179
@<TRIPOS>BOND
     1     1     2   ar
     2     1     5   ar
     3     2     3   ar
     4     2    16    1
     5     3     4   ar
     6     4     5   ar
     7     5     6    1
     8     6     7   ar
     9     6    15   ar
    10     7     8   ar
    11     8     9   ar
    12     9    10    1
    13     9    14   ar
    14    10    11   am
    15    11    12    2
    16    11    13    1
    17    14    15   ar
    18    16    17    1
    19    17    18   ar
    20    17    26   ar
    21    18    19   ar
    22    19    20   ar
    23    20    21    1
    24    20    25   ar
    25    21    22   am
    26    22    23    2
    27    22    24    1
    28    25    26   ar
