@<TRIPOS>MOLECULE
34625_ChemDiv_8017-5762
 19 21 0 0 0
SMALL
GASTEIGER
Energy = 0

@<TRIPOS>ATOM
      1 C          -0.3710   -1.6750    0.0000 C.ar    1  LIG1        0.3159
      2 N          -0.9580   -2.4750    0.0000 N.ar    1  LIG1       -0.1930
      3 C          -1.9080   -2.1670    0.0000 C.ar    1  LIG1        0.1202
      4 C          -1.9080   -1.1670    0.0000 C.ar    1  LIG1        0.1661
      5 O          -0.9580   -0.8540    0.0000 O.2     1  LIG1       -0.4225
      6 C          -2.7630   -0.6670    0.0000 C.ar    1  LIG1        0.0392
      7 C          -3.6330   -1.1670    0.0000 C.ar    1  LIG1        0.0032
      8 C          -3.6330   -2.1670    0.0000 C.ar    1  LIG1        0.0018
      9 C          -2.7630   -2.6670    0.0000 C.ar    1  LIG1        0.0224
     10 N           0.6290   -1.6750    0.0000 N.pl3   1  LIG1       -0.1252
     11 C           1.1290   -0.8130    0.0000 C.ar    1  LIG1        0.2459
     12 N           2.1290   -0.8130    0.0000 N.ar    1  LIG1       -0.1931
     13 C           2.6290    0.0500    0.0000 C.ar    1  LIG1        0.1836
     14 C           2.1290    0.9210    0.0000 C.ar    1  LIG1        0.1223
     15 C           2.6420    1.7960    0.0000 C.1     1  LIG1        0.1049
     16 N           3.1420    2.6710    0.0000 N.1     1  LIG1       -0.1907
     17 C           1.1290    0.9210    0.0000 C.ar    1  LIG1        0.1150
     18 N           0.6290    0.0500    0.0000 N.ar    1  LIG1       -0.2097
     19 N           3.6290    0.0330    0.0000 N.pl3   1  LIG1       -0.1063
@<TRIPOS>BOND
     1     1     2   ar
     2     1     5   ar
     3     1    10    1
     4     2     3   ar
     5     3     4   ar
     6     3     9   ar
     7     4     5   ar
     8     4     6   ar
     9     6     7   ar
    10     7     8   ar
    11     8     9   ar
    12    10    11    1
    13    11    12   ar
    14    11    18   ar
    15    12    13   ar
    16    13    14   ar
    17    13    19    1
    18    14    15    1
    19    14    17   ar
    20    15    16    3
    21    17    18   ar
