@<TRIPOS>MOLECULE
34627_ChemDiv_8014-9112
 24 27 0 0 0
SMALL
GASTEIGER
Energy = 0

@<TRIPOS>ATOM
      1 C          -1.4460   -1.2460    0.0000 C.ar    1  LIG1        0.2418
      2 N          -0.5750   -1.7330    0.0000 N.ar    1  LIG1       -0.1781
      3 C           0.3000   -1.2460    0.0000 C.ar    1  LIG1        0.2244
      4 N           0.3000   -0.2250    0.0000 N.ar    1  LIG1       -0.1944
      5 C          -0.5750    0.2670    0.0000 C.ar    1  LIG1        0.1682
      6 N          -1.4460   -0.2250    0.0000 N.ar    1  LIG1       -0.1918
      7 C          -0.5750    1.2630    0.0000 C.ar    1  LIG1        0.0360
      8 C           0.2880    1.7670    0.0000 C.ar    1  LIG1        0.0030
      9 C           0.2880    2.7500    0.0000 C.ar    1  LIG1        0.0001
     10 C          -0.5750    3.2540    0.0000 C.ar    1  LIG1        0.0000
     11 C          -1.4330    2.7500    0.0000 C.ar    1  LIG1        0.0001
     12 C          -1.4330    1.7670    0.0000 C.ar    1  LIG1        0.0030
     13 N           1.1710   -1.7330    0.0000 N.pl3   1  LIG1       -0.2666
     14 C           2.0710   -1.2460    0.0000 C.3     1  LIG1        0.1566
     15 C           2.9420   -1.7330    0.0000 C.3     1  LIG1        0.1608
     16 N           2.9420   -2.7170    0.0000 N.4     1  LIG1        0.3847
     17 C           2.0710   -3.2500    0.0000 C.3     1  LIG1        0.1608
     18 C           1.1710   -2.7170    0.0000 C.3     1  LIG1        0.1566
     19 C           3.8170   -3.2500    0.0000 C.3     1  LIG1        0.2024
     20 N          -2.3210   -1.7330    0.0000 N.ar    1  LIG1       -0.2557
     21 C          -3.2750   -1.4500    0.0000 C.ar    1  LIG1        0.1851
     22 N          -3.8210   -2.2670    0.0000 N.ar    1  LIG1       -0.2219
     23 C          -3.2750   -3.0460    0.0000 C.ar    1  LIG1        0.1197
     24 C          -2.3210   -2.7170    0.0000 C.ar    1  LIG1        0.1050
@<TRIPOS>BOND
     1     1     2   ar
     2     1     6   ar
     3     1    20    1
     4     2     3   ar
     5     3     4   ar
     6     3    13    1
     7     4     5   ar
     8     5     6   ar
     9     5     7    1
    10     7     8   ar
    11     7    12   ar
    12     8     9   ar
    13     9    10   ar
    14    10    11   ar
    15    11    12   ar
    16    13    14    1
    17    13    18    1
    18    14    15    1
    19    15    16    1
    20    16    17    1
    21    16    19    1
    22    17    18    1
    23    20    21   ar
    24    20    24   ar
    25    21    22   ar
    26    22    23   ar
    27    23    24   ar
