@<TRIPOS>MOLECULE
34621_ChemDiv_8015-2297
 21 23 0 0 0
SMALL
GASTEIGER
Energy = 0

@<TRIPOS>ATOM
      1 S           2.5080   -0.9630    0.0000 S.O2    1  LIG1        0.1022
      2 N           1.6750   -0.4750    0.0000 N.3     1  LIG1       -0.1418
      3 C           0.8380   -0.9630    0.0000 C.3     1  LIG1        0.1184
      4 C          -0.0040   -0.4750    0.0000 C.3     1  LIG1        0.1143
      5 N          -0.0040    0.4960    0.0000 N.pl3   1  LIG1       -0.2607
      6 C          -0.8420    0.9830    0.0000 C.ar    1  LIG1        0.2925
      7 N          -0.8420    1.9380    0.0000 N.ar    1  LIG1       -0.1946
      8 C          -2.5290    1.9380    0.0000 C.ar    1  LIG1        0.1202
      9 C          -2.5290    0.9830    0.0000 C.ar    1  LIG1        0.1660
     10 O          -1.6920    0.4960    0.0000 O.2     1  LIG1       -0.4237
     11 C          -3.3710    0.4960    0.0000 C.ar    1  LIG1        0.0392
     12 C          -4.2040    0.9830    0.0000 C.ar    1  LIG1        0.0032
     13 C          -4.2040    1.9380    0.0000 C.ar    1  LIG1        0.0018
     14 C          -3.3710    2.4250    0.0000 C.ar    1  LIG1        0.0224
     15 C           0.8380    0.9830    0.0000 C.3     1  LIG1        0.1143
     16 C           1.6750    0.4960    0.0000 C.3     1  LIG1        0.1184
     17 N           3.3500   -1.4460    0.0000 N.3     1  LIG1       -0.1424
     18 C           4.2000   -0.9630    0.0000 C.3     1  LIG1        0.1161
     19 C           3.3500   -2.4210    0.0000 C.3     1  LIG1        0.1161
     20 O           2.0290   -1.8000    0.0000 O.2     1  LIG1       -0.1408
     21 O           2.9960   -0.1210    0.0000 O.2     1  LIG1       -0.1408
@<TRIPOS>BOND
     1     1     2    1
     2     1    17    1
     3     1    20    2
     4     1    21    2
     5     2     3    1
     6     2    16    1
     7     3     4    1
     8     4     5    1
     9     5     6    1
    10     5    15    1
    11     6     7   ar
    12     6    10   ar
    13     7     8   ar
    14     8     9   ar
    15     8    14   ar
    16     9    10   ar
    17     9    11   ar
    18    11    12   ar
    19    12    13   ar
    20    13    14   ar
    21    15    16    1
    22    17    18    1
    23    17    19    1
