@<TRIPOS>MOLECULE
34638_ChemDiv_8016-0552
 24 27 0 0 0
SMALL
GASTEIGER
Energy = 0

@<TRIPOS>ATOM
      1 S           0.8670    1.5290    0.0000 S.O2    1  LIG1       -0.0577
      2 N           0.0040    2.0290    0.0000 N.pl3   1  LIG1       -0.5346
      3 C          -0.8670    1.5290    0.0000 C.ar    1  LIG1       -0.0927
      4 C          -1.7290    2.0290    0.0000 C.ar    1  LIG1       -0.0208
      5 C          -2.6040    1.5290    0.0000 C.ar    1  LIG1        0.0159
      6 C          -2.6040    0.5290    0.0000 C.ar    1  LIG1        0.0812
      7 N          -1.7290    0.0330    0.0000 N.ar    1  LIG1       -0.2457
      8 C          -0.8670    0.5290    0.0000 C.ar    1  LIG1        0.0750
      9 C          -3.4670    0.0330    0.0000 C.ar    1  LIG1        0.0191
     10 C          -4.3290    0.5290    0.0000 C.ar    1  LIG1        0.0015
     11 C          -4.3290    1.5290    0.0000 C.ar    1  LIG1        0.0001
     12 C          -3.4670    2.0290    0.0000 C.ar    1  LIG1        0.0014
     13 C           1.7290    1.0170    0.0000 C.ar    1  LIG1        0.0899
     14 C           1.7290    0.0330    0.0000 C.ar    1  LIG1        0.0250
     15 C           2.5920   -0.4750    0.0000 C.ar    1  LIG1        0.0529
     16 S           2.8170   -1.4420    0.0000 S.2     1  LIG1       -0.0242
     17 C           3.8130   -1.5500    0.0000 C.ar    1  LIG1        0.3107
     18 N           4.2040   -0.6540    0.0000 N.ar    1  LIG1       -0.2016
     19 C           3.4630    0.0330    0.0000 C.ar    1  LIG1        0.0912
     20 C           3.4630    1.0170    0.0000 C.ar    1  LIG1        0.0210
     21 C           2.5920    1.5290    0.0000 C.ar    1  LIG1        0.0185
     22 O           4.3250   -2.4130    0.0000 O.2     1  LIG1       -0.2576
     23 O           0.3540    0.6670    0.0000 O.2     1  LIG1       -0.1842
     24 O           1.3790    2.4170    0.0000 O.2     1  LIG1       -0.1842
@<TRIPOS>BOND
     1     1     2    1
     2     1    13    1
     3     1    23    2
     4     1    24    2
     5     2     3    1
     6     3     4   ar
     7     3     8   ar
     8     4     5   ar
     9     5     6   ar
    10     5    12   ar
    11     6     7   ar
    12     6     9   ar
    13     7     8   ar
    14     9    10   ar
    15    10    11   ar
    16    11    12   ar
    17    13    14   ar
    18    13    21   ar
    19    14    15   ar
    20    15    16   ar
    21    15    19   ar
    22    16    17   ar
    23    17    18   ar
    24    17    22    2
    25    18    19   ar
    26    19    20   ar
    27    20    21   ar
