@<TRIPOS>MOLECULE
34635_ChemDiv_8014-9510
 27 31 0 0 0
SMALL
GASTEIGER
Energy = 0

@<TRIPOS>ATOM
      1 S          -1.2330    0.9790    0.0000 S.O2    1  LIG1        0.0664
      2 N          -0.2290    0.9210    0.0000 N.3     1  LIG1       -0.1298
      3 C           0.2250    0.0330    0.0000 C.3     1  LIG1        0.1839
      4 N          -0.3250   -0.8040    0.0000 N.am    1  LIG1       -0.2367
      5 C           0.3080   -1.5830    0.0000 C.2     1  LIG1        0.2538
      6 C           1.2420   -1.2250    0.0000 C.ar    1  LIG1        0.0529
      7 C           1.1880   -0.2250    0.0000 C.ar    1  LIG1        0.0174
      8 C           2.0290    0.3170    0.0000 C.ar    1  LIG1       -0.0011
      9 C           2.9210   -0.1330    0.0000 C.ar    1  LIG1       -0.0002
     10 C           2.9750   -1.1330    0.0000 C.ar    1  LIG1        0.0001
     11 C           2.1330   -1.6750    0.0000 C.ar    1  LIG1        0.0043
     12 O           0.0500   -2.5460    0.0000 O.2     1  LIG1       -0.2695
     13 C          -1.3170   -0.7500    0.0000 C.ar    1  LIG1        0.0742
     14 C          -1.7710    0.1380    0.0000 C.ar    1  LIG1        0.1359
     15 C          -2.7710    0.1880    0.0000 C.ar    1  LIG1        0.0212
     16 C          -3.3210   -0.6500    0.0000 C.ar    1  LIG1        0.0015
     17 C          -2.8630   -1.5380    0.0000 C.ar    1  LIG1        0.0014
     18 C          -1.8670   -1.5920    0.0000 C.ar    1  LIG1        0.0163
     19 C           0.3170    1.7630    0.0000 C.3     1  LIG1        0.1242
     20 C           1.3130    1.7130    0.0000 C.ar    1  LIG1       -0.0044
     21 C           1.8580    2.5500    0.0000 C.ar    1  LIG1       -0.0029
     22 C           2.8540    2.4960    0.0000 C.ar    1  LIG1       -0.0003
     23 C           3.3170    1.6040    0.0000 C.ar    1  LIG1       -0.0000
     24 C           2.7670    0.7670    0.0000 C.ar    1  LIG1       -0.0003
     25 C           1.7670    0.8250    0.0000 C.ar    1  LIG1       -0.0029
     26 O          -2.2250    0.8960    0.0000 O.2     1  LIG1       -0.1527
     27 O          -0.9210    1.9290    0.0000 O.2     1  LIG1       -0.1527
@<TRIPOS>BOND
     1     1     2    1
     2     1    14    1
     3     1    26    2
     4     1    27    2
     5     2     3    1
     6     2    19    1
     7     3     4    1
     8     3     7    1
     9     4     5   am
    10     4    13    1
    11     5     6    1
    12     5    12    2
    13     6     7   ar
    14     6    11   ar
    15     7     8   ar
    16     8     9   ar
    17     9    10   ar
    18    10    11   ar
    19    13    14   ar
    20    13    18   ar
    21    14    15   ar
    22    15    16   ar
    23    16    17   ar
    24    17    18   ar
    25    19    20    1
    26    20    21   ar
    27    20    25   ar
    28    21    22   ar
    29    22    23   ar
    30    23    24   ar
    31    24    25   ar
