@<TRIPOS>MOLECULE
34637_ChemDiv_8014-9677
 28 33 0 0 0
SMALL
GASTEIGER
Energy = 0

@<TRIPOS>ATOM
      1 C           1.6500   -1.0380    0.0000 C.ar    1  LIG1        0.1681
      2 C           2.4540   -1.4960    0.0000 C.ar    1  LIG1        0.1171
      3 C           3.2670   -1.0380    0.0000 C.ar    1  LIG1        0.1760
      4 N           3.2670   -0.1210    0.0000 N.ar    1  LIG1       -0.2097
      5 N           1.6500   -0.1210    0.0000 N.ar    1  LIG1       -0.1581
      6 C           4.0920    0.3380    0.0000 C.ar    1  LIG1        0.1037
      7 C           4.8920   -0.1210    0.0000 C.ar    1  LIG1        0.0414
      8 C           4.8920   -1.0380    0.0000 C.ar    1  LIG1        0.1022
      9 N           4.0920   -1.4960    0.0000 N.ar    1  LIG1       -0.2242
     10 CL          2.4540   -2.4880    0.0000 Cl      1  LIG1       -0.0772
     11 C           0.7790   -1.5250    0.0000 C.2     1  LIG1        0.2698
     12 N          -0.0750   -0.9960    0.0000 N.am    1  LIG1       -0.2632
     13 C          -0.0500    0.0000    0.0000 C.3     1  LIG1        0.1567
     14 C          -0.8830    0.5290    0.0000 C.3     1  LIG1        0.1600
     15 N          -1.7790    0.0540    0.0000 N.4     1  LIG1        0.3718
     16 C          -2.6170    0.5710    0.0000 C.3     1  LIG1        0.0457
     17 C          -3.5000    0.8960    0.0000 C.3     1  LIG1        0.0512
     18 C          -3.9040    1.8170    0.0000 C.3     1  LIG1        0.0055
     19 C          -3.2290    2.6000    0.0000 C.3     1  LIG1        0.0004
     20 C          -2.3630    2.3130    0.0000 C.3     1  LIG1        0.0055
     21 C          -1.9830    1.2880    0.0000 C.3     1  LIG1        0.0512
     22 C          -3.3380    1.9630    0.0000 C.3     1  LIG1        0.0004
     23 C          -4.0420    1.1960    0.0000 C.3     1  LIG1        0.0055
     24 C          -3.6630    0.3000    0.0000 C.3     1  LIG1        0.0512
     25 C          -4.8960    1.4380    0.0000 C.3     1  LIG1        0.0004
     26 C          -1.7790   -0.9540    0.0000 C.3     1  LIG1        0.1600
     27 C          -0.9380   -1.4540    0.0000 C.3     1  LIG1        0.1567
     28 O           0.7790   -2.5960    0.0000 O.2     1  LIG1       -0.2682
@<TRIPOS>BOND
     1     1     2   ar
     2     1     5   ar
     3     1    11    1
     4     2     3   ar
     5     2    10    1
     6     3     4   ar
     7     3     9   ar
     8     4     5   ar
     9     4     6   ar
    10     6     7   ar
    11     7     8   ar
    12     8     9   ar
    13    11    12   am
    14    11    28    2
    15    12    13    1
    16    12    27    1
    17    13    14    1
    18    14    15    1
    19    15    16    1
    20    15    26    1
    21    16    17    1
    22    16    21    1
    23    16    24    1
    24    17    18    1
    25    18    19    1
    26    18    25    1
    27    19    20    1
    28    20    21    1
    29    20    22    1
    30    22    23    1
    31    23    24    1
    32    23    25    1
    33    26    27    1
