@<TRIPOS>MOLECULE
34639_ChemDiv_8015-8210
 28 33 0 0 0
SMALL
GASTEIGER
Energy = 0

@<TRIPOS>ATOM
      1 C           1.2210   -1.0420    0.0000 C.ar    1  LIG1        0.1577
      2 N           1.2210   -0.1210    0.0000 N.ar    1  LIG1       -0.1590
      3 N           2.8330   -0.1210    0.0000 N.ar    1  LIG1       -0.2100
      4 C           2.8330   -1.0420    0.0000 C.ar    1  LIG1        0.1655
      5 C           2.0210   -1.4960    0.0000 C.ar    1  LIG1        0.0643
      6 N           3.6580   -1.4960    0.0000 N.ar    1  LIG1       -0.2244
      7 C           4.4630   -1.0420    0.0000 C.ar    1  LIG1        0.1088
      8 C           4.4630   -0.1210    0.0000 C.ar    1  LIG1        0.0729
      9 C           3.6580    0.3380    0.0000 C.ar    1  LIG1        0.1103
     10 BR          5.3250    0.3830    0.0000 Br      1  LIG1       -0.0458
     11 C           0.3460   -1.5290    0.0000 C.2     1  LIG1        0.2689
     12 N          -0.5040   -0.9960    0.0000 N.am    1  LIG1       -0.2632
     13 C          -0.4790   -0.0040    0.0000 C.3     1  LIG1        0.1567
     14 C          -1.3170    0.5330    0.0000 C.3     1  LIG1        0.1600
     15 N          -2.2080    0.0580    0.0000 N.4     1  LIG1        0.3718
     16 C          -3.0460    0.5710    0.0000 C.3     1  LIG1        0.0457
     17 C          -2.4170    1.2880    0.0000 C.3     1  LIG1        0.0512
     18 C          -2.7920    2.3130    0.0000 C.3     1  LIG1        0.0055
     19 C          -3.7670    1.9630    0.0000 C.3     1  LIG1        0.0004
     20 C          -4.4710    1.1960    0.0000 C.3     1  LIG1        0.0055
     21 C          -4.0920    0.3000    0.0000 C.3     1  LIG1        0.0512
     22 C          -5.3290    1.4380    0.0000 C.3     1  LIG1        0.0004
     23 C          -4.3330    1.8210    0.0000 C.3     1  LIG1        0.0055
     24 C          -3.9290    0.8960    0.0000 C.3     1  LIG1        0.0512
     25 C          -3.6540    2.6000    0.0000 C.3     1  LIG1        0.0004
     26 C          -2.2080   -0.9580    0.0000 C.3     1  LIG1        0.1600
     27 C          -1.3670   -1.4580    0.0000 C.3     1  LIG1        0.1567
     28 O           0.3460   -2.5960    0.0000 O.2     1  LIG1       -0.2682
@<TRIPOS>BOND
     1     1     2   ar
     2     1     5   ar
     3     1    11    1
     4     2     3   ar
     5     3     4   ar
     6     3     9   ar
     7     4     5   ar
     8     4     6   ar
     9     6     7   ar
    10     7     8   ar
    11     8     9   ar
    12     8    10    1
    13    11    12   am
    14    11    28    2
    15    12    13    1
    16    12    27    1
    17    13    14    1
    18    14    15    1
    19    15    16    1
    20    15    26    1
    21    16    17    1
    22    16    21    1
    23    16    24    1
    24    17    18    1
    25    18    19    1
    26    18    25    1
    27    19    20    1
    28    20    21    1
    29    20    22    1
    30    22    23    1
    31    23    24    1
    32    23    25    1
    33    26    27    1
