@<TRIPOS>MOLECULE
34631_ChemDiv_8014-9259
 24 27 0 0 0
SMALL
GASTEIGER
Energy = 0

@<TRIPOS>ATOM
      1 N           0.2960   -0.0210    0.0000 N.ar    1  LIG1       -0.1752
      2 C           0.2960   -1.0170    0.0000 C.ar    1  LIG1        0.2606
      3 N          -0.5630   -1.5000    0.0000 N.ar    1  LIG1       -0.1768
      4 C          -0.5630   -2.4960    0.0000 C.ar    1  LIG1        0.2265
      5 N           0.2960   -2.9790    0.0000 N.ar    1  LIG1       -0.1609
      6 C           1.1630   -2.4960    0.0000 C.ar    1  LIG1        0.3250
      7 N           1.1630   -1.5000    0.0000 N.ar    1  LIG1       -0.1571
      8 O           2.0250   -3.0170    0.0000 O.3     1  LIG1       -0.4425
      9 C           2.9790   -2.5210    0.0000 C.3     1  LIG1        0.2559
     10 N          -1.4250   -3.0170    0.0000 N.pl3   1  LIG1       -0.2780
     11 C          -1.4750   -3.9790    0.0000 C.3     1  LIG1        0.0937
     12 C          -2.4380   -4.2750    0.0000 C.3     1  LIG1        0.0233
     13 C          -2.9830   -3.4250    0.0000 C.3     1  LIG1        0.0233
     14 C          -2.3630   -2.6460    0.0000 C.3     1  LIG1        0.0937
     15 N          -0.5630    0.5000    0.0000 N.ar    1  LIG1       -0.0570
     16 N          -0.3670    1.4630    0.0000 N.ar    1  LIG1       -0.1283
     17 C           0.6210    1.5710    0.0000 C.ar    1  LIG1        0.1237
     18 C           1.0420    0.6880    0.0000 C.ar    1  LIG1        0.1261
     19 C           1.0420    2.4630    0.0000 C.ar    1  LIG1        0.0210
     20 C           2.0250    2.5710    0.0000 C.ar    1  LIG1        0.0016
     21 C           2.4460    3.4630    0.0000 C.ar    1  LIG1        0.0000
     22 C           1.8790    4.2750    0.0000 C.ar    1  LIG1        0.0000
     23 C           0.8670    4.2000    0.0000 C.ar    1  LIG1        0.0000
     24 C           0.4460    3.2750    0.0000 C.ar    1  LIG1        0.0016
@<TRIPOS>BOND
     1     1     2    1
     2     1    15   ar
     3     1    18   ar
     4     2     3   ar
     5     2     7   ar
     6     3     4   ar
     7     4     5   ar
     8     4    10    1
     9     5     6   ar
    10     6     7   ar
    11     6     8    1
    12     8     9    1
    13    10    11    1
    14    10    14    1
    15    11    12    1
    16    12    13    1
    17    13    14    1
    18    15    16   ar
    19    16    17   ar
    20    17    18   ar
    21    17    19    1
    22    19    20   ar
    23    19    24   ar
    24    20    21   ar
    25    21    22   ar
    26    22    23   ar
    27    23    24   ar
