@<TRIPOS>MOLECULE
34647_ChemDiv_8015-2377
 29 33 0 0 0
SMALL
GASTEIGER
Energy = 0

@<TRIPOS>ATOM
      1 S          -0.1420   -1.1670    0.0000 S.O2    1  LIG1       -0.0578
      2 N           0.8630   -1.1670    0.0000 N.pl3   1  LIG1       -0.5358
      3 C           1.3580   -0.3000    0.0000 C.ar    1  LIG1       -0.1121
      4 C           2.3630   -0.3000    0.0000 C.ar    1  LIG1       -0.0210
      5 C           2.8630    0.5670    0.0000 C.ar    1  LIG1        0.0314
      6 C           3.8380    0.7710    0.0000 C.ar    1  LIG1        0.0110
      7 C           3.9420    1.7710    0.0000 C.ar    1  LIG1        0.1188
      8 O           3.0290    2.1750    0.0000 O.2     1  LIG1       -0.4581
      9 C           2.3630    1.4290    0.0000 C.ar    1  LIG1        0.1444
     10 C           1.3580    1.4290    0.0000 C.ar    1  LIG1        0.0356
     11 C           0.8630    0.5670    0.0000 C.ar    1  LIG1       -0.0207
     12 C           4.8540    2.1750    0.0000 C.3     1  LIG1        0.0642
     13 C           5.6710    1.5880    0.0000 C.3     1  LIG1        0.0083
     14 C           5.5630    0.5920    0.0000 C.3     1  LIG1        0.0052
     15 C           4.6500    0.1830    0.0000 C.3     1  LIG1        0.0292
     16 C          -1.1380   -1.1670    0.0000 C.ar    1  LIG1        0.0894
     17 C          -1.6380   -0.3000    0.0000 C.ar    1  LIG1        0.0182
     18 C          -2.6380   -0.3000    0.0000 C.ar    1  LIG1        0.0162
     19 C          -3.1380   -1.1670    0.0000 C.ar    1  LIG1        0.0539
     20 N          -4.1380   -1.1670    0.0000 N.am    1  LIG1       -0.2586
     21 C          -4.7250   -0.3580    0.0000 C.2     1  LIG1        0.2294
     22 O          -4.2290    0.5080    0.0000 O.2     1  LIG1       -0.2745
     23 C          -5.6750   -0.6670    0.0000 C.3     1  LIG1        0.0874
     24 C          -5.6750   -1.6710    0.0000 C.3     1  LIG1        0.0315
     25 C          -4.7250   -1.9750    0.0000 C.3     1  LIG1        0.0987
     26 C          -2.6380   -2.0330    0.0000 C.ar    1  LIG1        0.0162
     27 C          -1.6380   -2.0330    0.0000 C.ar    1  LIG1        0.0182
     28 O          -0.1420   -2.1710    0.0000 O.2     1  LIG1       -0.1842
     29 O          -0.1420   -0.1710    0.0000 O.2     1  LIG1       -0.1842
@<TRIPOS>BOND
     1     1     2    1
     2     1    16    1
     3     1    28    2
     4     1    29    2
     5     2     3    1
     6     3     4   ar
     7     3    11   ar
     8     4     5   ar
     9     5     6   ar
    10     5     9   ar
    11     6     7   ar
    12     6    15    1
    13     7     8   ar
    14     7    12    1
    15     8     9   ar
    16     9    10   ar
    17    10    11   ar
    18    12    13    1
    19    13    14    1
    20    14    15    1
    21    16    17   ar
    22    16    27   ar
    23    17    18   ar
    24    18    19   ar
    25    19    20    1
    26    19    26   ar
    27    20    21   am
    28    20    25    1
    29    21    22    2
    30    21    23    1
    31    23    24    1
    32    24    25    1
    33    26    27   ar
