@<TRIPOS>MOLECULE
34646_ChemDiv_8016-3529
 25 28 0 0 0
SMALL
GASTEIGER
Energy = 0

@<TRIPOS>ATOM
      1 C           4.2040    0.4960    0.0000 C.ar    1  LIG1        0.0111
      2 C           4.2040   -0.4920    0.0000 C.ar    1  LIG1        0.1188
      3 O           3.3540   -0.9790    0.0000 O.2     1  LIG1       -0.4581
      4 C           2.5080   -0.4920    0.0000 C.ar    1  LIG1        0.1446
      5 C           2.5080    0.4960    0.0000 C.ar    1  LIG1        0.0345
      6 C           1.6710    0.9830    0.0000 C.ar    1  LIG1        0.0194
      7 C           0.8330    0.4960    0.0000 C.ar    1  LIG1        0.0736
      8 N          -0.0130    0.9750    0.0000 N.am    1  LIG1       -0.1785
      9 C          -0.8500    0.4960    0.0000 C.2     1  LIG1        0.2566
     10 O          -0.8500   -0.4830    0.0000 O.2     1  LIG1       -0.2720
     11 C          -1.6960    0.9750    0.0000 C.3     1  LIG1        0.1448
     12 S          -2.5330    0.4960    0.0000 S.3     1  LIG1       -0.1257
     13 C          -3.3830    0.9750    0.0000 C.3     1  LIG1        0.0842
     14 C          -4.2210    0.4960    0.0000 C.ar    1  LIG1       -0.0113
     15 C          -4.2210   -0.4830    0.0000 C.ar    1  LIG1       -0.0034
     16 C          -5.0580   -0.9580    0.0000 C.ar    1  LIG1       -0.0003
     17 C          -5.9080   -0.4830    0.0000 C.ar    1  LIG1       -0.0000
     18 C          -5.9080    0.4960    0.0000 C.ar    1  LIG1       -0.0003
     19 C          -5.0580    0.9750    0.0000 C.ar    1  LIG1       -0.0034
     20 C           0.8330   -0.4920    0.0000 C.ar    1  LIG1        0.0197
     21 C           1.6710   -0.9790    0.0000 C.ar    1  LIG1        0.0388
     22 C           5.0540   -0.9790    0.0000 C.3     1  LIG1        0.0642
     23 C           5.9040   -0.4920    0.0000 C.3     1  LIG1        0.0083
     24 C           5.9040    0.4960    0.0000 C.3     1  LIG1        0.0052
     25 C           5.0540    0.9830    0.0000 C.3     1  LIG1        0.0292
@<TRIPOS>BOND
     1     1     2   ar
     2     1     5   ar
     3     1    25    1
     4     2     3   ar
     5     2    22    1
     6     3     4   ar
     7     4     5   ar
     8     4    21   ar
     9     5     6   ar
    10     6     7   ar
    11     7     8    1
    12     7    20   ar
    13     8     9   am
    14     9    10    2
    15     9    11    1
    16    11    12    1
    17    12    13    1
    18    13    14    1
    19    14    15   ar
    20    14    19   ar
    21    15    16   ar
    22    16    17   ar
    23    17    18   ar
    24    18    19   ar
    25    20    21   ar
    26    22    23    1
    27    23    24    1
    28    24    25    1
