@<TRIPOS>MOLECULE
34640_ChemDiv_8016-0553
 24 27 0 0 0
SMALL
GASTEIGER
Energy = 0

@<TRIPOS>ATOM
      1 S          -0.2880    1.1460    0.0000 S.O2    1  LIG1       -0.0577
      2 N          -1.2080    1.4750    0.0000 N.pl3   1  LIG1       -0.5346
      3 C          -2.1210    0.9830    0.0000 C.ar    1  LIG1       -0.0942
      4 C          -2.1210    0.0080    0.0000 C.ar    1  LIG1        0.0593
      5 N          -1.2500   -0.4920    0.0000 N.ar    1  LIG1       -0.2457
      6 C          -1.2500   -1.5040    0.0000 C.ar    1  LIG1        0.0988
      7 C          -2.1210   -2.0040    0.0000 C.ar    1  LIG1        0.0207
      8 C          -2.9830   -1.5000    0.0000 C.ar    1  LIG1        0.0030
      9 C          -2.9830   -0.4920    0.0000 C.ar    1  LIG1        0.0159
     10 C          -3.8500   -0.0170    0.0000 C.ar    1  LIG1        0.0014
     11 C          -3.8500    1.0000    0.0000 C.ar    1  LIG1       -0.0018
     12 C          -2.9580    1.5000    0.0000 C.ar    1  LIG1       -0.0224
     13 C           0.6580    0.8250    0.0000 C.ar    1  LIG1        0.0899
     14 C           0.8580   -0.1670    0.0000 C.ar    1  LIG1        0.0250
     15 C           1.7960   -0.4880    0.0000 C.ar    1  LIG1        0.0529
     16 S           2.1960   -1.3920    0.0000 S.2     1  LIG1       -0.0242
     17 C           3.1710   -1.3170    0.0000 C.ar    1  LIG1        0.3107
     18 N           3.4040   -0.3540    0.0000 N.ar    1  LIG1       -0.2016
     19 C           2.5580    0.1750    0.0000 C.ar    1  LIG1        0.0912
     20 C           2.3580    1.1460    0.0000 C.ar    1  LIG1        0.0210
     21 C           1.4170    1.4630    0.0000 C.ar    1  LIG1        0.0185
     22 O           3.8460   -2.0790    0.0000 O.2     1  LIG1       -0.2576
     23 O          -0.6130    0.1960    0.0000 O.2     1  LIG1       -0.1842
     24 O           0.0330    2.0830    0.0000 O.2     1  LIG1       -0.1842
@<TRIPOS>BOND
     1     1     2    1
     2     1    13    1
     3     1    23    2
     4     1    24    2
     5     2     3    1
     6     3     4   ar
     7     3    12   ar
     8     4     5   ar
     9     4     9   ar
    10     5     6   ar
    11     6     7   ar
    12     7     8   ar
    13     8     9   ar
    14     9    10   ar
    15    10    11   ar
    16    11    12   ar
    17    13    14   ar
    18    13    21   ar
    19    14    15   ar
    20    15    16   ar
    21    15    19   ar
    22    16    17   ar
    23    17    18   ar
    24    17    22    2
    25    18    19   ar
    26    19    20   ar
    27    20    21   ar
