@<TRIPOS>MOLECULE
34649_ChemDiv_8015-2386
 27 30 0 0 0
SMALL
GASTEIGER
Energy = 0

@<TRIPOS>ATOM
      1 S          -0.2380   -0.3380    0.0000 S.O2    1  LIG1        0.0633
      2 N           0.7630   -0.3380    0.0000 N.3     1  LIG1       -0.1555
      3 C           1.2630    0.5290    0.0000 C.3     1  LIG1        0.0961
      4 C           2.2630    0.5290    0.0000 C.3     1  LIG1        0.0235
      5 C           2.7670   -0.3380    0.0000 C.3     1  LIG1        0.0252
      6 C           2.2630   -1.2040    0.0000 C.3     1  LIG1        0.0235
      7 C           1.2630   -1.2040    0.0000 C.3     1  LIG1        0.0961
      8 C           3.7630   -0.3380    0.0000 C.ar    1  LIG1       -0.0224
      9 C           4.2670   -1.2040    0.0000 C.ar    1  LIG1       -0.0043
     10 C           5.2630   -1.2040    0.0000 C.ar    1  LIG1       -0.0003
     11 C           5.7670   -0.3380    0.0000 C.ar    1  LIG1       -0.0000
     12 C           5.2630    0.5290    0.0000 C.ar    1  LIG1       -0.0003
     13 C           4.2670    0.5290    0.0000 C.ar    1  LIG1       -0.0043
     14 C          -1.2380   -0.3380    0.0000 C.ar    1  LIG1        0.1223
     15 C          -1.7330   -1.2040    0.0000 C.ar    1  LIG1        0.0212
     16 C          -2.7330   -1.2040    0.0000 C.ar    1  LIG1        0.0163
     17 C          -3.2330   -0.3380    0.0000 C.ar    1  LIG1        0.0539
     18 N          -4.2330   -0.3380    0.0000 N.am    1  LIG1       -0.2586
     19 C          -4.8210    0.4710    0.0000 C.2     1  LIG1        0.2294
     20 O          -4.3210    1.3380    0.0000 O.2     1  LIG1       -0.2745
     21 C          -5.7710    0.1630    0.0000 C.3     1  LIG1        0.0874
     22 C          -5.7710   -0.8380    0.0000 C.3     1  LIG1        0.0315
     23 C          -4.8210   -1.1460    0.0000 C.3     1  LIG1        0.0987
     24 C          -2.7330    0.5290    0.0000 C.ar    1  LIG1        0.0163
     25 C          -1.7380    0.5290    0.0000 C.ar    1  LIG1        0.0212
     26 O          -0.2380    0.6630    0.0000 O.2     1  LIG1       -0.1528
     27 O          -0.2380   -1.3330    0.0000 O.2     1  LIG1       -0.1528
@<TRIPOS>BOND
     1     1     2    1
     2     1    14    1
     3     1    26    2
     4     1    27    2
     5     2     3    1
     6     2     7    1
     7     3     4    1
     8     4     5    1
     9     5     6    1
    10     5     8    1
    11     6     7    1
    12     8     9   ar
    13     8    13   ar
    14     9    10   ar
    15    10    11   ar
    16    11    12   ar
    17    12    13   ar
    18    14    15   ar
    19    14    25   ar
    20    15    16   ar
    21    16    17   ar
    22    17    18    1
    23    17    24   ar
    24    18    19   am
    25    18    23    1
    26    19    20    2
    27    19    21    1
    28    21    22    1
    29    22    23    1
    30    24    25   ar
