@<TRIPOS>MOLECULE
34648_ChemDiv_8016-5482
 27 32 0 0 0
SMALL
GASTEIGER
Energy = 0

@<TRIPOS>ATOM
      1 C          -2.9790    0.3920    0.0000 C.ar    1  LIG1        0.0111
      2 C          -3.5670   -0.4130    0.0000 C.ar    1  LIG1        0.1188
      3 O          -2.9790   -1.2170    0.0000 O.2     1  LIG1       -0.4581
      4 C          -2.0290   -0.9130    0.0000 C.ar    1  LIG1        0.1446
      5 C          -2.0290    0.0830    0.0000 C.ar    1  LIG1        0.0345
      6 C          -1.1670    0.5920    0.0000 C.ar    1  LIG1        0.0195
      7 C          -0.2920    0.0920    0.0000 C.ar    1  LIG1        0.0752
      8 N           0.5790    0.5960    0.0000 N.am    1  LIG1       -0.1610
      9 C           1.4460    0.0960    0.0000 C.2     1  LIG1        0.3434
     10 N           2.3080    0.6040    0.0000 N.am    1  LIG1       -0.1903
     11 C           3.1790    0.1080    0.0000 C.3     1  LIG1        0.0802
     12 C           3.1710    1.0670    0.0000 C.3     1  LIG1        0.0201
     13 C           4.0460    1.3830    0.0000 C.3     1  LIG1        0.0017
     14 C           3.3710    0.5790    0.0000 C.3     1  LIG1        0.0001
     15 C           3.3830   -0.4420    0.0000 C.3     1  LIG1        0.0017
     16 C           2.4040   -0.7170    0.0000 C.3     1  LIG1        0.0201
     17 C           4.2960   -0.8130    0.0000 C.3     1  LIG1        0.0001
     18 C           4.9460    0.0130    0.0000 C.3     1  LIG1        0.0017
     19 C           4.0420   -0.2040    0.0000 C.3     1  LIG1        0.0201
     20 C           4.9580    1.0040    0.0000 C.3     1  LIG1        0.0001
     21 O           1.4460   -0.8920    0.0000 O.2     1  LIG1       -0.2488
     22 C          -0.2830   -0.9130    0.0000 C.ar    1  LIG1        0.0198
     23 C          -1.1580   -1.4130    0.0000 C.ar    1  LIG1        0.0388
     24 C          -4.5540   -0.3040    0.0000 C.3     1  LIG1        0.0642
     25 C          -4.9630    0.6080    0.0000 C.3     1  LIG1        0.0083
     26 C          -4.3670    1.4170    0.0000 C.3     1  LIG1        0.0052
     27 C          -3.3670    1.3040    0.0000 C.3     1  LIG1        0.0292
@<TRIPOS>BOND
     1     1     2   ar
     2     1     5   ar
     3     1    27    1
     4     2     3   ar
     5     2    24    1
     6     3     4   ar
     7     4     5   ar
     8     4    23   ar
     9     5     6   ar
    10     6     7   ar
    11     7     8    1
    12     7    22   ar
    13     8     9   am
    14     9    10   am
    15     9    21    2
    16    10    11    1
    17    11    12    1
    18    11    16    1
    19    11    19    1
    20    12    13    1
    21    13    14    1
    22    13    20    1
    23    14    15    1
    24    15    16    1
    25    15    17    1
    26    17    18    1
    27    18    19    1
    28    18    20    1
    29    22    23   ar
    30    24    25    1
    31    25    26    1
    32    26    27    1
