@<TRIPOS>MOLECULE
34644_ChemDiv_8016-3094
 24 27 0 0 0
SMALL
GASTEIGER
Energy = 0

@<TRIPOS>ATOM
      1 C           2.9290    0.9080    0.0000 C.ar    1  LIG1        0.0111
      2 C           3.5250    0.1000    0.0000 C.ar    1  LIG1        0.1188
      3 O           2.9380   -0.7170    0.0000 O.2     1  LIG1       -0.4581
      4 C           1.9790   -0.4080    0.0000 C.ar    1  LIG1        0.1446
      5 C           1.9750    0.5960    0.0000 C.ar    1  LIG1        0.0345
      6 C           1.1040    1.0790    0.0000 C.ar    1  LIG1        0.0195
      7 C           0.2540    0.5830    0.0000 C.ar    1  LIG1        0.0752
      8 N          -0.6130    1.0710    0.0000 N.am    1  LIG1       -0.1607
      9 C          -1.4710    0.5830    0.0000 C.2     1  LIG1        0.3477
     10 N          -2.3380    1.0710    0.0000 N.am    1  LIG1       -0.1607
     11 C          -3.2080    0.5710    0.0000 C.ar    1  LIG1        0.0758
     12 C          -3.2080   -0.4420    0.0000 C.ar    1  LIG1        0.0280
     13 C          -4.0710   -0.9290    0.0000 C.ar    1  LIG1        0.0590
     14 CL         -4.0710   -1.9330    0.0000 Cl      1  LIG1       -0.0822
     15 C          -4.9330   -0.4420    0.0000 C.ar    1  LIG1        0.0115
     16 C          -4.9330    0.5710    0.0000 C.ar    1  LIG1        0.0022
     17 C          -4.0710    1.0710    0.0000 C.ar    1  LIG1        0.0167
     18 O          -1.4710   -0.4210    0.0000 O.2     1  LIG1       -0.2484
     19 C           0.2540   -0.4170    0.0000 C.ar    1  LIG1        0.0198
     20 C           1.1170   -0.9170    0.0000 C.ar    1  LIG1        0.0388
     21 C           4.5170    0.2080    0.0000 C.3     1  LIG1        0.0642
     22 C           4.9290    1.1210    0.0000 C.3     1  LIG1        0.0083
     23 C           4.3290    1.9380    0.0000 C.3     1  LIG1        0.0052
     24 C           3.3290    1.8290    0.0000 C.3     1  LIG1        0.0292
@<TRIPOS>BOND
     1     1     2   ar
     2     1     5   ar
     3     1    24    1
     4     2     3   ar
     5     2    21    1
     6     3     4   ar
     7     4     5   ar
     8     4    20   ar
     9     5     6   ar
    10     6     7   ar
    11     7     8    1
    12     7    19   ar
    13     8     9   am
    14     9    10   am
    15     9    18    2
    16    10    11    1
    17    11    12   ar
    18    11    17   ar
    19    12    13   ar
    20    13    14    1
    21    13    15   ar
    22    15    16   ar
    23    16    17   ar
    24    19    20   ar
    25    21    22    1
    26    22    23    1
    27    23    24    1
