@<TRIPOS>MOLECULE
34642_ChemDiv_8015-6521
 25 29 0 0 0
SMALL
GASTEIGER
Energy = 0

@<TRIPOS>ATOM
      1 C          -3.7210   -0.2380    0.0000 C.ar    1  LIG1        0.0111
      2 C          -3.7210   -1.2040    0.0000 C.ar    1  LIG1        0.1188
      3 O          -2.8830   -1.6880    0.0000 O.2     1  LIG1       -0.4581
      4 C          -2.0460   -1.2040    0.0000 C.ar    1  LIG1        0.1446
      5 C          -2.0460   -0.2380    0.0000 C.ar    1  LIG1        0.0345
      6 C          -1.2080    0.2460    0.0000 C.ar    1  LIG1        0.0194
      7 C          -0.3630   -0.2380    0.0000 C.ar    1  LIG1        0.0739
      8 N           0.4750    0.2460    0.0000 N.am    1  LIG1       -0.1754
      9 C           1.3130   -0.2380    0.0000 C.2     1  LIG1        0.2691
     10 C           2.1500    0.2460    0.0000 C.ar    1  LIG1        0.0586
     11 C           2.9920   -0.2380    0.0000 C.ar    1  LIG1        0.0448
     12 C           3.8290    0.2460    0.0000 C.ar    1  LIG1        0.1766
     13 C           3.8290    1.2080    0.0000 C.ar    1  LIG1        0.1764
     14 O           4.5670    1.5920    0.0000 O.3     1  LIG1       -0.4346
     15 C           5.3540    1.1540    0.0000 C.3     1  LIG1        0.4294
     16 O           5.3500    0.2460    0.0000 O.3     1  LIG1       -0.4346
     17 C           2.9920    1.6920    0.0000 C.ar    1  LIG1        0.0403
     18 C           2.1500    1.2080    0.0000 C.ar    1  LIG1        0.0079
     19 O           1.3130   -1.2040    0.0000 O.2     1  LIG1       -0.2680
     20 C          -0.3630   -1.2040    0.0000 C.ar    1  LIG1        0.0197
     21 C          -1.2080   -1.6880    0.0000 C.ar    1  LIG1        0.0388
     22 C          -4.5330   -1.6880    0.0000 C.3     1  LIG1        0.0642
     23 C          -5.3580   -1.2040    0.0000 C.3     1  LIG1        0.0083
     24 C          -5.3580   -0.2380    0.0000 C.3     1  LIG1        0.0052
     25 C          -4.5330    0.2460    0.0000 C.3     1  LIG1        0.0292
@<TRIPOS>BOND
     1     1     2   ar
     2     1     5   ar
     3     1    25    1
     4     2     3   ar
     5     2    22    1
     6     3     4   ar
     7     4     5   ar
     8     4    21   ar
     9     5     6   ar
    10     6     7   ar
    11     7     8    1
    12     7    20   ar
    13     8     9   am
    14     9    10    1
    15     9    19    2
    16    10    11   ar
    17    10    18   ar
    18    11    12   ar
    19    12    13   ar
    20    12    16    1
    21    13    14    1
    22    13    17   ar
    23    14    15    1
    24    15    16    1
    25    17    18   ar
    26    20    21   ar
    27    22    23    1
    28    23    24    1
    29    24    25    1
