@<TRIPOS>MOLECULE
34651_ChemDiv_8015-2409
 24 26 0 0 0
SMALL
GASTEIGER
Energy = 0

@<TRIPOS>ATOM
      1 S          -1.6210    1.0080    0.0000 S.O2    1  LIG1        0.0633
      2 N          -2.6250    1.0080    0.0000 N.3     1  LIG1       -0.1536
      3 C          -3.0830    0.1290    0.0000 C.3     1  LIG1        0.1049
      4 C          -2.7750   -0.8250    0.0000 C.3     1  LIG1        0.1684
      5 S          -3.5880   -1.4170    0.0000 S.O2    1  LIG1       -0.0086
      6 O          -2.8330   -2.0130    0.0000 O.2     1  LIG1       -0.1729
      7 O          -4.3630   -1.9500    0.0000 O.2     1  LIG1       -0.1729
      8 C          -4.4040   -0.8250    0.0000 C.3     1  LIG1        0.1524
      9 C          -4.0920    0.1290    0.0000 C.3     1  LIG1        0.0448
     10 C          -3.1290    1.8790    0.0000 C.3     1  LIG1        0.1149
     11 C          -0.6210    1.0080    0.0000 C.ar    1  LIG1        0.1222
     12 C          -0.1170    0.1380    0.0000 C.ar    1  LIG1        0.0196
     13 C           0.8830    0.1380    0.0000 C.ar    1  LIG1       -0.0029
     14 C           1.3830    1.0080    0.0000 C.ar    1  LIG1       -0.0224
     15 C           0.8830    1.8790    0.0000 C.ar    1  LIG1       -0.0029
     16 C          -0.1170    1.8790    0.0000 C.ar    1  LIG1        0.0196
     17 C           2.3880    1.0080    0.0000 C.3     1  LIG1        0.0223
     18 C           2.8960    1.8790    0.0000 C.3     1  LIG1        0.0044
     19 C           3.9000    1.8790    0.0000 C.3     1  LIG1        0.0003
     20 C           4.4000    1.0080    0.0000 C.3     1  LIG1        0.0000
     21 C           3.9000    0.1380    0.0000 C.3     1  LIG1        0.0003
     22 C           2.8960    0.1380    0.0000 C.3     1  LIG1        0.0044
     23 O          -1.6210    0.0040    0.0000 O.2     1  LIG1       -0.1528
     24 O          -1.6210    2.0170    0.0000 O.2     1  LIG1       -0.1528
@<TRIPOS>BOND
     1     1     2    1
     2     1    11    1
     3     1    23    2
     4     1    24    2
     5     2     3    1
     6     2    10    1
     7     3     4    1
     8     3     9    1
     9     4     5    1
    10     5     6    2
    11     5     7    2
    12     5     8    1
    13     8     9    1
    14    11    12   ar
    15    11    16   ar
    16    12    13   ar
    17    13    14   ar
    18    14    15   ar
    19    14    17    1
    20    15    16   ar
    21    17    18    1
    22    17    22    1
    23    18    19    1
    24    19    20    1
    25    20    21    1
    26    21    22    1
