@<TRIPOS>MOLECULE
34655_ChemDiv_8015-2519
 18 20 0 0 0
SMALL
GASTEIGER
Energy = 0

@<TRIPOS>ATOM
      1 N          -0.7750   -0.6040    0.0000 N.ar    1  LIG1       -0.2697
      2 C          -1.5790   -0.0130    0.0000 C.ar    1  LIG1        0.1821
      3 N          -1.4670    0.9830    0.0000 N.ar    1  LIG1       -0.1965
      4 C          -0.5580    1.3830    0.0000 C.ar    1  LIG1        0.2034
      5 N           0.2460    0.7920    0.0000 N.ar    1  LIG1       -0.2027
      6 C           0.1420   -0.1960    0.0000 C.ar    1  LIG1        0.1534
      7 C           0.9500   -0.7920    0.0000 C.ar    1  LIG1        0.0620
      8 C           1.8580   -0.3920    0.0000 C.ar    1  LIG1        0.1430
      9 F           1.9710    0.6080    0.0000 F       1  LIG1       -0.2041
     10 C           2.6750   -0.9790    0.0000 C.ar    1  LIG1        0.0297
     11 C           2.5580   -1.9790    0.0000 C.ar    1  LIG1        0.0023
     12 C           1.6420   -2.3790    0.0000 C.ar    1  LIG1        0.0002
     13 C           0.8380   -1.7880    0.0000 C.ar    1  LIG1        0.0053
     14 S          -0.4500    2.3830    0.0000 S.2     1  LIG1       -0.0091
     15 S          -2.3920   -0.5960    0.0000 S.2     1  LIG1       -0.0528
     16 C          -2.0880   -1.5420    0.0000 C.ar    1  LIG1        0.0280
     17 C          -1.0880   -1.5540    0.0000 C.ar    1  LIG1        0.0855
     18 C          -2.6790   -2.3500    0.0000 C.3     1  LIG1        0.0398
@<TRIPOS>BOND
     1     1     2   ar
     2     1     6   ar
     3     1    17   ar
     4     2     3   ar
     5     2    15   ar
     6     3     4   ar
     7     4     5   ar
     8     4    14    2
     9     5     6   ar
    10     6     7    1
    11     7     8   ar
    12     7    13   ar
    13     8     9    1
    14     8    10   ar
    15    10    11   ar
    16    11    12   ar
    17    12    13   ar
    18    15    16   ar
    19    16    17   ar
    20    16    18    1
