@<TRIPOS>MOLECULE
34650_ChemDiv_8016-9946
 22 25 0 0 0
SMALL
GASTEIGER
Energy = 0

@<TRIPOS>ATOM
      1 C          -1.6630   -1.5580    0.0000 C.ar    1  LIG1        0.0111
      2 C          -1.9750   -2.5170    0.0000 C.ar    1  LIG1        0.1188
      3 O          -1.1710   -3.0960    0.0000 O.2     1  LIG1       -0.4581
      4 C          -0.3580   -2.5170    0.0000 C.ar    1  LIG1        0.1446
      5 C          -0.6710   -1.5580    0.0000 C.ar    1  LIG1        0.0345
      6 C          -0.0080   -0.8210    0.0000 C.ar    1  LIG1        0.0194
      7 C           0.9670   -1.0210    0.0000 C.ar    1  LIG1        0.0736
      8 N           1.6290   -0.2790    0.0000 N.am    1  LIG1       -0.1792
      9 C           1.3170    0.6670    0.0000 C.2     1  LIG1        0.2451
     10 O           0.3420    0.8710    0.0000 O.2     1  LIG1       -0.2730
     11 C           1.9880    1.4080    0.0000 C.3     1  LIG1        0.0786
     12 C           2.9630    1.2040    0.0000 C.3     1  LIG1        0.0091
     13 C           3.6290    1.9420    0.0000 C.3     1  LIG1        0.0005
     14 C           3.3170    2.8920    0.0000 C.3     1  LIG1        0.0000
     15 C           2.3420    3.1000    0.0000 C.3     1  LIG1        0.0005
     16 C           1.6670    2.3540    0.0000 C.3     1  LIG1        0.0091
     17 C           1.2880   -1.9790    0.0000 C.ar    1  LIG1        0.0197
     18 C           0.6170   -2.7210    0.0000 C.ar    1  LIG1        0.0388
     19 C          -2.9580   -2.7290    0.0000 C.3     1  LIG1        0.0642
     20 C          -3.6330   -1.9790    0.0000 C.3     1  LIG1        0.0083
     21 C          -3.3210   -1.0210    0.0000 C.3     1  LIG1        0.0052
     22 C          -2.3330   -0.8080    0.0000 C.3     1  LIG1        0.0292
@<TRIPOS>BOND
     1     1     2   ar
     2     1     5   ar
     3     1    22    1
     4     2     3   ar
     5     2    19    1
     6     3     4   ar
     7     4     5   ar
     8     4    18   ar
     9     5     6   ar
    10     6     7   ar
    11     7     8    1
    12     7    17   ar
    13     8     9   am
    14     9    10    2
    15     9    11    1
    16    11    12    1
    17    11    16    1
    18    12    13    1
    19    13    14    1
    20    14    15    1
    21    15    16    1
    22    17    18   ar
    23    19    20    1
    24    20    21    1
    25    21    22    1
