@<TRIPOS>MOLECULE
34658_ChemDiv_8016-0925
 27 29 0 0 0
SMALL
GASTEIGER
Energy = 0

@<TRIPOS>ATOM
      1 S           2.2250   -0.5330    0.0000 S.O2    1  LIG1       -0.0578
      2 C           3.1250   -0.0420    0.0000 C.ar    1  LIG1        0.0899
      3 C           3.9630   -0.5790    0.0000 C.ar    1  LIG1        0.0250
      4 C           4.8330   -0.0960    0.0000 C.ar    1  LIG1        0.0529
      5 S           5.7880   -0.3540    0.0000 S.2     1  LIG1       -0.0242
      6 C           6.3630    0.4500    0.0000 C.ar    1  LIG1        0.3107
      7 N           5.7880    1.2210    0.0000 N.ar    1  LIG1       -0.2016
      8 C           4.8330    0.9460    0.0000 C.ar    1  LIG1        0.0912
      9 C           3.9630    1.4380    0.0000 C.ar    1  LIG1        0.0210
     10 C           3.1250    0.9080    0.0000 C.ar    1  LIG1        0.0185
     11 O           7.3580    0.4500    0.0000 O.2     1  LIG1       -0.2576
     12 N           1.3250   -0.9830    0.0000 N.pl3   1  LIG1       -0.5357
     13 C           0.4880   -0.4460    0.0000 C.ar    1  LIG1       -0.1093
     14 C          -0.4420   -0.8960    0.0000 C.ar    1  LIG1        0.0131
     15 C          -1.2790   -0.3540    0.0000 C.ar    1  LIG1        0.1367
     16 O          -2.1790   -0.8540    0.0000 O.3     1  LIG1       -0.4755
     17 C          -3.0170   -0.3130    0.0000 C.3     1  LIG1        0.2054
     18 C          -3.8880   -0.8080    0.0000 C.3     1  LIG1        0.0473
     19 C          -4.7540   -0.3130    0.0000 C.3     1  LIG1        0.0038
     20 C          -5.6250   -0.8080    0.0000 C.3     1  LIG1        0.0001
     21 C          -6.4920   -0.3130    0.0000 C.3     1  LIG1        0.0000
     22 C          -7.3580   -0.8080    0.0000 C.3     1  LIG1        0.0000
     23 C          -1.2250    0.6330    0.0000 C.ar    1  LIG1        0.0368
     24 C          -0.2880    1.0830    0.0000 C.ar    1  LIG1        0.0013
     25 C           0.5460    0.5460    0.0000 C.ar    1  LIG1       -0.0236
     26 O           2.6750   -1.4330    0.0000 O.2     1  LIG1       -0.1842
     27 O           1.7460    0.3630    0.0000 O.2     1  LIG1       -0.1842
@<TRIPOS>BOND
     1     1     2    1
     2     1    12    1
     3     1    26    2
     4     1    27    2
     5     2     3   ar
     6     2    10   ar
     7     3     4   ar
     8     4     5   ar
     9     4     8   ar
    10     5     6   ar
    11     6     7   ar
    12     6    11    2
    13     7     8   ar
    14     8     9   ar
    15     9    10   ar
    16    12    13    1
    17    13    14   ar
    18    13    25   ar
    19    14    15   ar
    20    15    16    1
    21    15    23   ar
    22    16    17    1
    23    17    18    1
    24    18    19    1
    25    19    20    1
    26    20    21    1
    27    21    22    1
    28    23    24   ar
    29    24    25   ar
