@<TRIPOS>MOLECULE
34652_ChemDiv_8017-0672
 26 29 0 0 0
SMALL
GASTEIGER
Energy = 0

@<TRIPOS>ATOM
      1 C          -2.6920   -0.9420    0.0000 C.ar    1  LIG1        0.0111
      2 C          -2.6920   -1.9380    0.0000 C.ar    1  LIG1        0.1188
      3 O          -1.7420   -2.2420    0.0000 O.2     1  LIG1       -0.4581
      4 C          -1.1580   -1.4380    0.0000 C.ar    1  LIG1        0.1446
      5 C          -1.7420   -0.6290    0.0000 C.ar    1  LIG1        0.0345
      6 C          -1.3420    0.2750    0.0000 C.ar    1  LIG1        0.0194
      7 C          -0.3540    0.3790    0.0000 C.ar    1  LIG1        0.0739
      8 N           0.0460    1.2960    0.0000 N.am    1  LIG1       -0.1754
      9 C           1.0420    1.4040    0.0000 C.2     1  LIG1        0.2719
     10 C           1.6290    0.6040    0.0000 C.ar    1  LIG1        0.0893
     11 C           2.6290    0.7170    0.0000 C.ar    1  LIG1        0.1436
     12 C           3.2290   -0.0830    0.0000 C.ar    1  LIG1        0.0432
     13 C           2.8290   -1.0130    0.0000 C.ar    1  LIG1        0.0283
     14 C           1.8290   -1.1250    0.0000 C.ar    1  LIG1        0.0065
     15 C           1.2290   -0.3170    0.0000 C.ar    1  LIG1        0.0081
     16 S           3.4250   -1.8130    0.0000 S.3     1  LIG1       -0.1126
     17 C           4.4170   -1.6920    0.0000 C.3     1  LIG1        0.0742
     18 O           3.0290    1.6330    0.0000 O.3     1  LIG1       -0.4713
     19 C           2.4290    2.4420    0.0000 C.3     1  LIG1        0.2525
     20 O           1.4420    2.3250    0.0000 O.2     1  LIG1       -0.2679
     21 C           0.2290   -0.4250    0.0000 C.ar    1  LIG1        0.0197
     22 C          -0.1750   -1.3290    0.0000 C.ar    1  LIG1        0.0388
     23 C          -3.5540   -2.4380    0.0000 C.3     1  LIG1        0.0642
     24 C          -4.4210   -1.9420    0.0000 C.3     1  LIG1        0.0083
     25 C          -4.4210   -0.9420    0.0000 C.3     1  LIG1        0.0052
     26 C          -3.5540   -0.4290    0.0000 C.3     1  LIG1        0.0292
@<TRIPOS>BOND
     1     1     2   ar
     2     1     5   ar
     3     1    26    1
     4     2     3   ar
     5     2    23    1
     6     3     4   ar
     7     4     5   ar
     8     4    22   ar
     9     5     6   ar
    10     6     7   ar
    11     7     8    1
    12     7    21   ar
    13     8     9   am
    14     9    10    1
    15     9    20    2
    16    10    11   ar
    17    10    15   ar
    18    11    12   ar
    19    11    18    1
    20    12    13   ar
    21    13    14   ar
    22    13    16    1
    23    14    15   ar
    24    16    17    1
    25    18    19    1
    26    21    22   ar
    27    23    24    1
    28    24    25    1
    29    25    26    1
