@<TRIPOS>MOLECULE
34664_ChemDiv_8016-0931
 25 28 0 0 0
SMALL
GASTEIGER
Energy = 0

@<TRIPOS>ATOM
      1 S          -0.5170    1.1380    0.0000 S.O2    1  LIG1       -0.0577
      2 N          -1.4460    1.4830    0.0000 N.pl3   1  LIG1       -0.5346
      3 C          -2.3540    0.9830    0.0000 C.ar    1  LIG1       -0.0942
      4 C          -2.3540    0.0000    0.0000 C.ar    1  LIG1        0.0593
      5 N          -1.4790   -0.4920    0.0000 N.ar    1  LIG1       -0.2457
      6 C          -1.4790   -1.5040    0.0000 C.ar    1  LIG1        0.0988
      7 C          -2.3540   -2.0040    0.0000 C.ar    1  LIG1        0.0207
      8 C          -3.2170   -1.5040    0.0000 C.ar    1  LIG1        0.0030
      9 C          -3.2170   -0.4920    0.0000 C.ar    1  LIG1        0.0159
     10 C          -4.0880   -0.0170    0.0000 C.ar    1  LIG1        0.0014
     11 C          -4.0880    1.0080    0.0000 C.ar    1  LIG1       -0.0018
     12 C          -3.1960    1.5000    0.0000 C.ar    1  LIG1       -0.0224
     13 C           0.4210    0.8250    0.0000 C.ar    1  LIG1        0.0899
     14 C           0.6210   -0.1670    0.0000 C.ar    1  LIG1        0.0250
     15 C           1.5580   -0.4790    0.0000 C.ar    1  LIG1        0.0509
     16 S           1.9540   -1.3920    0.0000 S.2     1  LIG1       -0.0259
     17 C           2.9330   -1.3170    0.0000 C.ar    1  LIG1        0.2923
     18 N           3.1670   -0.3630    0.0000 N.ar    1  LIG1       -0.2878
     19 C           2.3210    0.1710    0.0000 C.ar    1  LIG1        0.0692
     20 C           2.1170    1.1380    0.0000 C.ar    1  LIG1        0.0191
     21 C           1.1830    1.4710    0.0000 C.ar    1  LIG1        0.0184
     22 C           4.0830    0.0000    0.0000 C.3     1  LIG1        0.1341
     23 O           3.6080   -2.0790    0.0000 O.2     1  LIG1       -0.2594
     24 O          -0.8420    0.1880    0.0000 O.2     1  LIG1       -0.1842
     25 O          -0.2040    2.0830    0.0000 O.2     1  LIG1       -0.1842
@<TRIPOS>BOND
     1     1     2    1
     2     1    13    1
     3     1    24    2
     4     1    25    2
     5     2     3    1
     6     3     4   ar
     7     3    12   ar
     8     4     5   ar
     9     4     9   ar
    10     5     6   ar
    11     6     7   ar
    12     7     8   ar
    13     8     9   ar
    14     9    10   ar
    15    10    11   ar
    16    11    12   ar
    17    13    14   ar
    18    13    21   ar
    19    14    15   ar
    20    15    16   ar
    21    15    19   ar
    22    16    17   ar
    23    17    18   ar
    24    17    23    2
    25    18    19   ar
    26    18    22    1
    27    19    20   ar
    28    20    21   ar
