@<TRIPOS>MOLECULE
34668_ChemDiv_8016-1351
 24 26 0 0 0
SMALL
GASTEIGER
Energy = 0

@<TRIPOS>ATOM
      1 S           0.4670   -0.9290    0.0000 S.O2    1  LIG1       -0.0578
      2 C           1.3540   -0.4040    0.0000 C.ar    1  LIG1        0.0899
      3 C           2.2250   -0.9000    0.0000 C.ar    1  LIG1        0.0250
      4 C           3.0750   -0.4040    0.0000 C.ar    1  LIG1        0.0509
      5 S           4.0290   -0.7040    0.0000 S.2     1  LIG1       -0.0259
      6 C           4.5920    0.1040    0.0000 C.ar    1  LIG1        0.2923
      7 N           4.0290    0.8920    0.0000 N.ar    1  LIG1       -0.2878
      8 C           3.0750    0.5920    0.0000 C.ar    1  LIG1        0.0692
      9 C           2.2250    1.0830    0.0000 C.ar    1  LIG1        0.0191
     10 C           1.3540    0.5920    0.0000 C.ar    1  LIG1        0.0184
     11 C           4.3670    1.8170    0.0000 C.3     1  LIG1        0.1341
     12 O           5.5920    0.1040    0.0000 O.2     1  LIG1       -0.2594
     13 N          -0.4210   -1.4250    0.0000 N.pl3   1  LIG1       -0.5358
     14 C          -1.2670   -0.9290    0.0000 C.ar    1  LIG1       -0.1123
     15 C          -2.1330   -1.4250    0.0000 C.ar    1  LIG1       -0.0241
     16 C          -3.0080   -0.9290    0.0000 C.ar    1  LIG1       -0.0051
     17 C          -3.0080    0.0710    0.0000 C.ar    1  LIG1       -0.0072
     18 C          -2.1170    0.5670    0.0000 C.ar    1  LIG1       -0.0051
     19 C          -1.2670    0.0710    0.0000 C.ar    1  LIG1       -0.0241
     20 C          -3.8960    0.5670    0.0000 C.3     1  LIG1        0.1316
     21 C          -4.7460    0.0420    0.0000 C.1     1  LIG1        0.0780
     22 N          -5.5960   -0.4750    0.0000 N.1     1  LIG1       -0.1955
     23 O           0.9880   -1.8130    0.0000 O.2     1  LIG1       -0.1842
     24 O          -0.0540   -0.0580    0.0000 O.2     1  LIG1       -0.1842
@<TRIPOS>BOND
     1     1     2    1
     2     1    13    1
     3     1    23    2
     4     1    24    2
     5     2     3   ar
     6     2    10   ar
     7     3     4   ar
     8     4     5   ar
     9     4     8   ar
    10     5     6   ar
    11     6     7   ar
    12     6    12    2
    13     7     8   ar
    14     7    11    1
    15     8     9   ar
    16     9    10   ar
    17    13    14    1
    18    14    15   ar
    19    14    19   ar
    20    15    16   ar
    21    16    17   ar
    22    17    18   ar
    23    17    20    1
    24    18    19   ar
    25    20    21    1
    26    21    22    3
