@<TRIPOS>MOLECULE
34660_ChemDiv_8016-0927
 23 25 0 0 0
SMALL
GASTEIGER
Energy = 0

@<TRIPOS>ATOM
      1 S           0.4670   -0.5710    0.0000 S.O2    1  LIG1       -0.0578
      2 C           1.3540   -0.0420    0.0000 C.ar    1  LIG1        0.0899
      3 C           2.2250   -0.5420    0.0000 C.ar    1  LIG1        0.0250
      4 C           3.0670   -0.0420    0.0000 C.ar    1  LIG1        0.0529
      5 S           4.0290   -0.3420    0.0000 S.2     1  LIG1       -0.0242
      6 C           4.5920    0.4710    0.0000 C.ar    1  LIG1        0.3107
      7 N           4.0290    1.2540    0.0000 N.ar    1  LIG1       -0.2016
      8 C           3.0670    0.9540    0.0000 C.ar    1  LIG1        0.0912
      9 C           2.2250    1.4460    0.0000 C.ar    1  LIG1        0.0210
     10 C           1.3540    0.9540    0.0000 C.ar    1  LIG1        0.0185
     11 O           5.5920    0.4710    0.0000 O.2     1  LIG1       -0.2576
     12 N          -0.4250   -1.0580    0.0000 N.pl3   1  LIG1       -0.5358
     13 C          -1.2710   -0.5710    0.0000 C.ar    1  LIG1       -0.1123
     14 C          -1.2710    0.4330    0.0000 C.ar    1  LIG1       -0.0241
     15 C          -2.1210    0.9290    0.0000 C.ar    1  LIG1       -0.0051
     16 C          -3.0080    0.4330    0.0000 C.ar    1  LIG1       -0.0072
     17 C          -3.0080   -0.5710    0.0000 C.ar    1  LIG1       -0.0051
     18 C          -2.1380   -1.0580    0.0000 C.ar    1  LIG1       -0.0241
     19 C          -3.9000    0.9290    0.0000 C.3     1  LIG1        0.1316
     20 C          -4.7460    0.4040    0.0000 C.1     1  LIG1        0.0780
     21 N          -5.5960   -0.1130    0.0000 N.1     1  LIG1       -0.1955
     22 O           0.9880   -1.4420    0.0000 O.2     1  LIG1       -0.1842
     23 O          -0.0580    0.3080    0.0000 O.2     1  LIG1       -0.1842
@<TRIPOS>BOND
     1     1     2    1
     2     1    12    1
     3     1    22    2
     4     1    23    2
     5     2     3   ar
     6     2    10   ar
     7     3     4   ar
     8     4     5   ar
     9     4     8   ar
    10     5     6   ar
    11     6     7   ar
    12     6    11    2
    13     7     8   ar
    14     8     9   ar
    15     9    10   ar
    16    12    13    1
    17    13    14   ar
    18    13    18   ar
    19    14    15   ar
    20    15    16   ar
    21    16    17   ar
    22    16    19    1
    23    17    18   ar
    24    19    20    1
    25    20    21    3
