@<TRIPOS>MOLECULE
34662_ChemDiv_8016-0930
 25 28 0 0 0
SMALL
GASTEIGER
Energy = 0

@<TRIPOS>ATOM
      1 S           0.4330    1.5290    0.0000 S.O2    1  LIG1       -0.0577
      2 C           1.2960    1.0170    0.0000 C.ar    1  LIG1        0.0899
      3 C           1.2960    0.0330    0.0000 C.ar    1  LIG1        0.0250
      4 C           2.1670   -0.4790    0.0000 C.ar    1  LIG1        0.0509
      5 S           2.3830   -1.4420    0.0000 S.2     1  LIG1       -0.0259
      6 C           3.3790   -1.5500    0.0000 C.ar    1  LIG1        0.2923
      7 N           3.7750   -0.6540    0.0000 N.ar    1  LIG1       -0.2878
      8 C           3.0290    0.0330    0.0000 C.ar    1  LIG1        0.0692
      9 C           3.0290    1.0170    0.0000 C.ar    1  LIG1        0.0191
     10 C           2.1670    1.5290    0.0000 C.ar    1  LIG1        0.0184
     11 C           4.7540   -0.4790    0.0000 C.3     1  LIG1        0.1341
     12 O           3.8920   -2.4130    0.0000 O.2     1  LIG1       -0.2594
     13 N          -0.4170    2.0290    0.0000 N.pl3   1  LIG1       -0.5346
     14 C          -1.2960    1.5290    0.0000 C.ar    1  LIG1       -0.0927
     15 C          -2.1670    2.0290    0.0000 C.ar    1  LIG1       -0.0208
     16 C          -3.0250    1.5290    0.0000 C.ar    1  LIG1        0.0159
     17 C          -3.0250    0.5290    0.0000 C.ar    1  LIG1        0.0812
     18 N          -2.1670    0.0330    0.0000 N.ar    1  LIG1       -0.2457
     19 C          -1.2960    0.5290    0.0000 C.ar    1  LIG1        0.0750
     20 C          -3.8920    0.0330    0.0000 C.ar    1  LIG1        0.0191
     21 C          -4.7580    0.5290    0.0000 C.ar    1  LIG1        0.0015
     22 C          -4.7580    1.5290    0.0000 C.ar    1  LIG1        0.0001
     23 C          -3.8920    2.0290    0.0000 C.ar    1  LIG1        0.0014
     24 O          -0.0710    0.6670    0.0000 O.2     1  LIG1       -0.1842
     25 O           0.9460    2.4170    0.0000 O.2     1  LIG1       -0.1842
@<TRIPOS>BOND
     1     1     2    1
     2     1    13    1
     3     1    24    2
     4     1    25    2
     5     2     3   ar
     6     2    10   ar
     7     3     4   ar
     8     4     5   ar
     9     4     8   ar
    10     5     6   ar
    11     6     7   ar
    12     6    12    2
    13     7     8   ar
    14     7    11    1
    15     8     9   ar
    16     9    10   ar
    17    13    14    1
    18    14    15   ar
    19    14    19   ar
    20    15    16   ar
    21    16    17   ar
    22    16    23   ar
    23    17    18   ar
    24    17    20   ar
    25    18    19   ar
    26    20    21   ar
    27    21    22   ar
    28    22    23   ar
