@<TRIPOS>MOLECULE
34667_ChemDiv_8014-9831
 31 34 0 0 0
SMALL
GASTEIGER
Energy = 0

@<TRIPOS>ATOM
      1 N          -2.4750    0.3500    0.0000 N.am    1  LIG1       -0.1596
      2 S          -1.6080   -0.1540    0.0000 S.O2    1  LIG1        0.0787
      3 C          -0.7380   -0.6540    0.0000 C.ar    1  LIG1        0.1256
      4 C           0.1290   -0.1540    0.0000 C.ar    1  LIG1        0.0248
      5 C           0.9920   -0.6540    0.0000 C.ar    1  LIG1        0.0568
      6 C           1.8580   -0.1540    0.0000 C.2     1  LIG1        0.2708
      7 N           2.7250   -0.6540    0.0000 N.am    1  LIG1       -0.1490
      8 C           3.5920   -0.1540    0.0000 C.ar    1  LIG1        0.2079
      9 S           4.5080   -0.5580    0.0000 S.2     1  LIG1       -0.0330
     10 C           5.1790    0.1830    0.0000 C.ar    1  LIG1        0.1124
     11 N           4.6790    1.0500    0.0000 N.ar    1  LIG1       -0.1440
     12 N           3.7000    0.8420    0.0000 N.ar    1  LIG1       -0.1239
     13 C           6.1750    0.1830    0.0000 C.3     1  LIG1        0.0545
     14 C           6.6790   -0.6830    0.0000 C.3     1  LIG1        0.0073
     15 O           1.8580    0.8500    0.0000 O.2     1  LIG1       -0.2679
     16 C           0.9920   -1.6500    0.0000 C.ar    1  LIG1        0.0047
     17 C           0.1290   -2.1580    0.0000 C.ar    1  LIG1        0.0015
     18 C          -0.7380   -1.6500    0.0000 C.ar    1  LIG1        0.0202
     19 O          -2.1080   -1.0210    0.0000 O.2     1  LIG1       -0.1497
     20 O          -1.1040    0.7130    0.0000 O.2     1  LIG1       -0.1497
     21 C          -2.7790    1.3000    0.0000 C.2     1  LIG1        0.2445
     22 C          -3.7790    1.3000    0.0000 C.3     1  LIG1        0.0930
     23 C          -4.0830    0.3500    0.0000 C.3     1  LIG1        0.0532
     24 C          -3.2750   -0.2380    0.0000 C.3     1  LIG1        0.1235
     25 C          -4.9500   -0.1540    0.0000 C.ar    1  LIG1       -0.0203
     26 C          -4.9500   -1.1540    0.0000 C.ar    1  LIG1       -0.0042
     27 C          -5.8170   -1.6500    0.0000 C.ar    1  LIG1       -0.0003
     28 C          -6.6790   -1.1540    0.0000 C.ar    1  LIG1       -0.0000
     29 C          -6.6790   -0.1540    0.0000 C.ar    1  LIG1       -0.0003
     30 C          -5.8170    0.3500    0.0000 C.ar    1  LIG1       -0.0042
     31 O          -2.2830    2.1630    0.0000 O.2     1  LIG1       -0.2733
@<TRIPOS>BOND
     1     1     2    1
     2     1    21   am
     3     1    24    1
     4     2     3    1
     5     2    19    2
     6     2    20    2
     7     3     4   ar
     8     3    18   ar
     9     4     5   ar
    10     5     6    1
    11     5    16   ar
    12     6     7   am
    13     6    15    2
    14     7     8    1
    15     8     9   ar
    16     8    12   ar
    17     9    10   ar
    18    10    11   ar
    19    10    13    1
    20    11    12   ar
    21    13    14    1
    22    16    17   ar
    23    17    18   ar
    24    21    22    1
    25    21    31    2
    26    22    23    1
    27    23    24    1
    28    23    25    1
    29    25    26   ar
    30    25    30   ar
    31    26    27   ar
    32    27    28   ar
    33    28    29   ar
    34    29    30   ar
