@<TRIPOS>MOLECULE
34669_ChemDiv_8015-1452
 38 42 0 0 0
SMALL
GASTEIGER
Energy = 0

@<TRIPOS>ATOM
      1 N          -0.6790   -2.7630    0.0000 N.am    1  LIG1       -0.1596
      2 S           0.3330   -2.9670    0.0000 S.O2    1  LIG1        0.0787
      3 C           1.3250   -3.2000    0.0000 C.ar    1  LIG1        0.1256
      4 C           2.0500   -2.4960    0.0000 C.ar    1  LIG1        0.0248
      5 C           3.0080   -2.7630    0.0000 C.ar    1  LIG1        0.0568
      6 C           3.7170   -2.0420    0.0000 C.2     1  LIG1        0.2708
      7 N           3.4460   -1.0830    0.0000 N.am    1  LIG1       -0.1490
      8 C           2.5040   -0.8080    0.0000 C.ar    1  LIG1        0.2081
      9 S           2.2290    0.1250    0.0000 S.2     1  LIG1       -0.0294
     10 C           1.2540    0.1790    0.0000 C.ar    1  LIG1        0.1563
     11 N           0.8920   -0.7460    0.0000 N.ar    1  LIG1       -0.1402
     12 N           1.6710   -1.3540    0.0000 N.ar    1  LIG1       -0.1237
     13 C           0.7130    1.0290    0.0000 C.3     1  LIG1        0.2593
     14 O          -0.3170    1.0130    0.0000 O.3     1  LIG1       -0.4684
     15 C          -0.8420    1.8630    0.0000 C.ar    1  LIG1        0.1392
     16 C          -0.3540    2.7500    0.0000 C.ar    1  LIG1        0.0378
     17 C          -0.8630    3.6000    0.0000 C.ar    1  LIG1        0.0145
     18 C          -1.8710    3.6000    0.0000 C.ar    1  LIG1        0.0579
     19 CL         -2.3790    4.5000    0.0000 Cl      1  LIG1       -0.0822
     20 C          -2.3580    2.6960    0.0000 C.ar    1  LIG1        0.0145
     21 C          -1.8380    1.8420    0.0000 C.ar    1  LIG1        0.0378
     22 O           4.6750   -2.2960    0.0000 O.2     1  LIG1       -0.2679
     23 C           3.2630   -3.7040    0.0000 C.ar    1  LIG1        0.0047
     24 C           2.5420   -4.4290    0.0000 C.ar    1  LIG1        0.0015
     25 C           1.6000   -4.1580    0.0000 C.ar    1  LIG1        0.0202
     26 O           0.1170   -3.9580    0.0000 O.2     1  LIG1       -0.1497
     27 O           0.5500   -1.9880    0.0000 O.2     1  LIG1       -0.1497
     28 C          -1.3500   -3.4880    0.0000 C.2     1  LIG1        0.2445
     29 C          -2.2540   -3.0920    0.0000 C.3     1  LIG1        0.0930
     30 C          -2.1630   -2.1170    0.0000 C.3     1  LIG1        0.0532
     31 C          -1.1670   -1.8960    0.0000 C.3     1  LIG1        0.1235
     32 C          -2.9750   -1.5380    0.0000 C.ar    1  LIG1       -0.0203
     33 C          -2.8830   -0.5420    0.0000 C.ar    1  LIG1       -0.0042
     34 C          -3.6630    0.0380    0.0000 C.ar    1  LIG1       -0.0003
     35 C          -4.5670   -0.3790    0.0000 C.ar    1  LIG1       -0.0000
     36 C          -4.6790   -1.3540    0.0000 C.ar    1  LIG1       -0.0003
     37 C          -3.8630   -1.9540    0.0000 C.ar    1  LIG1       -0.0042
     38 O          -1.1500   -4.5000    0.0000 O.2     1  LIG1       -0.2733
@<TRIPOS>BOND
     1     1     2    1
     2     1    28   am
     3     1    31    1
     4     2     3    1
     5     2    26    2
     6     2    27    2
     7     3     4   ar
     8     3    25   ar
     9     4     5   ar
    10     5     6    1
    11     5    23   ar
    12     6     7   am
    13     6    22    2
    14     7     8    1
    15     8     9   ar
    16     8    12   ar
    17     9    10   ar
    18    10    11   ar
    19    10    13    1
    20    11    12   ar
    21    13    14    1
    22    14    15    1
    23    15    16   ar
    24    15    21   ar
    25    16    17   ar
    26    17    18   ar
    27    18    19    1
    28    18    20   ar
    29    20    21   ar
    30    23    24   ar
    31    24    25   ar
    32    28    29    1
    33    28    38    2
    34    29    30    1
    35    30    31    1
    36    30    32    1
    37    32    33   ar
    38    32    37   ar
    39    33    34   ar
    40    34    35   ar
    41    35    36   ar
    42    36    37   ar
