@<TRIPOS>MOLECULE
34670_ChemDiv_8016-1354
 26 29 0 0 0
SMALL
GASTEIGER
Energy = 0

@<TRIPOS>ATOM
      1 S          -0.4080    1.6330    0.0000 S.O2    1  LIG1       -0.0578
      2 N          -1.2460    2.1630    0.0000 N.pl3   1  LIG1       -0.5358
      3 C          -2.1380    1.6710    0.0000 C.ar    1  LIG1       -0.1122
      4 C          -2.1380    0.7000    0.0000 C.ar    1  LIG1       -0.0189
      5 C          -1.2880    0.2210    0.0000 C.ar    1  LIG1        0.0402
      6 C          -1.2880   -0.7920    0.0000 C.ar    1  LIG1        0.1957
      7 C          -2.1380   -1.2790    0.0000 C.ar    1  LIG1        0.0420
      8 C          -3.0000   -0.7790    0.0000 C.ar    1  LIG1        0.0032
      9 C          -3.0000    0.2210    0.0000 C.ar    1  LIG1       -0.0015
     10 C          -3.8580    0.6830    0.0000 C.ar    1  LIG1       -0.0001
     11 C          -3.8580    1.6960    0.0000 C.ar    1  LIG1       -0.0019
     12 C          -2.9830    2.1830    0.0000 C.ar    1  LIG1       -0.0238
     13 O          -0.4380   -1.2920    0.0000 O.3     1  LIG1       -0.2866
     14 C           0.4420    1.1080    0.0000 C.ar    1  LIG1        0.0899
     15 C           0.4130    0.0830    0.0000 C.ar    1  LIG1        0.0250
     16 C           1.2540   -0.4500    0.0000 C.ar    1  LIG1        0.0509
     17 S           1.4380   -1.4290    0.0000 S.2     1  LIG1       -0.0259
     18 C           2.4170   -1.5790    0.0000 C.ar    1  LIG1        0.2923
     19 N           2.8670   -0.6880    0.0000 N.ar    1  LIG1       -0.2878
     20 C           2.1540    0.0250    0.0000 C.ar    1  LIG1        0.0692
     21 C           2.1920    1.0250    0.0000 C.ar    1  LIG1        0.0191
     22 C           1.3420    1.5630    0.0000 C.ar    1  LIG1        0.0184
     23 C           3.8540   -0.5500    0.0000 C.3     1  LIG1        0.1341
     24 O           2.9040   -2.4920    0.0000 O.2     1  LIG1       -0.2594
     25 O          -0.9380    0.7830    0.0000 O.2     1  LIG1       -0.1842
     26 O           0.1290    2.4960    0.0000 O.2     1  LIG1       -0.1842
@<TRIPOS>BOND
     1     1     2    1
     2     1    14    1
     3     1    25    2
     4     1    26    2
     5     2     3    1
     6     3     4   ar
     7     3    12   ar
     8     4     5   ar
     9     4     9   ar
    10     5     6   ar
    11     6     7   ar
    12     6    13    1
    13     7     8   ar
    14     8     9   ar
    15     9    10   ar
    16    10    11   ar
    17    11    12   ar
    18    14    15   ar
    19    14    22   ar
    20    15    16   ar
    21    16    17   ar
    22    16    20   ar
    23    17    18   ar
    24    18    19   ar
    25    18    24    2
    26    19    20   ar
    27    19    23    1
    28    20    21   ar
    29    21    22   ar
