@<TRIPOS>MOLECULE
34677_ChemDiv_8015-2904
 16 18 0 0 0
SMALL
GASTEIGER
Energy = 0

@<TRIPOS>ATOM
      1 C           0.4460   -0.0210    0.0000 C.3     1  LIG1        0.1908
      2 C           1.3170    0.4790    0.0000 C.3     1  LIG1        0.1764
      3 O           2.0630   -0.1920    0.0000 O.3     1  LIG1       -0.4215
      4 C           1.6540   -1.1080    0.0000 C.2     1  LIG1        0.5119
      5 O           0.6580   -1.0040    0.0000 O.3     1  LIG1       -0.4176
      6 O           2.1580   -1.9830    0.0000 O.2     1  LIG1       -0.2028
      7 C           1.3170    1.4880    0.0000 C.3     1  LIG1        0.0488
      8 C           0.4460    1.9880    0.0000 C.3     1  LIG1        0.0299
      9 C          -0.4210    1.4880    0.0000 C.ar    1  LIG1       -0.0227
     10 C          -0.4210    0.4790    0.0000 C.ar    1  LIG1        0.0131
     11 C          -1.2920   -0.0210    0.0000 C.ar    1  LIG1       -0.0011
     12 C          -2.1630    0.4790    0.0000 C.ar    1  LIG1       -0.0002
     13 C          -2.1630    1.4880    0.0000 C.ar    1  LIG1       -0.0003
     14 C          -1.2920    1.9880    0.0000 C.ar    1  LIG1       -0.0045
     15 C           2.1380    0.9630    0.0000 C.3     1  LIG1        0.0478
     16 C          -0.3830   -0.5210    0.0000 C.3     1  LIG1        0.0521
@<TRIPOS>BOND
     1     1     2    1
     2     1     5    1
     3     1    10    1
     4     1    16    1
     5     2     3    1
     6     2     7    1
     7     2    15    1
     8     3     4    1
     9     4     5    1
    10     4     6    2
    11     7     8    1
    12     8     9    1
    13     9    10   ar
    14     9    14   ar
    15    10    11   ar
    16    11    12   ar
    17    12    13   ar
    18    13    14   ar
