@<TRIPOS>MOLECULE
34671_ChemDiv_8015-1460
 31 34 0 0 0
SMALL
GASTEIGER
Energy = 0

@<TRIPOS>ATOM
      1 N          -0.3920    0.0290    0.0000 N.am    1  LIG1       -0.1596
      2 S           0.5130   -0.4830    0.0000 S.O2    1  LIG1        0.0787
      3 C           1.3920   -0.9960    0.0000 C.ar    1  LIG1        0.1256
      4 C           2.2710   -0.4830    0.0000 C.ar    1  LIG1        0.0248
      5 C           3.1210   -0.9960    0.0000 C.ar    1  LIG1        0.0567
      6 C           3.9960   -0.4830    0.0000 C.2     1  LIG1        0.2690
      7 N           4.0250    0.5170    0.0000 N.am    1  LIG1       -0.1754
      8 C           3.1460    1.0330    0.0000 C.ar    1  LIG1        0.0737
      9 C           2.3000    0.5170    0.0000 C.ar    1  LIG1        0.0175
     10 C           1.4540    1.0330    0.0000 C.ar    1  LIG1        0.0127
     11 C           1.4540    2.0000    0.0000 C.ar    1  LIG1        0.0578
     12 CL          0.5420    2.5130    0.0000 Cl      1  LIG1       -0.0822
     13 C           2.3000    2.5130    0.0000 C.ar    1  LIG1        0.0127
     14 C           3.1460    2.0000    0.0000 C.ar    1  LIG1        0.0175
     15 O           4.8750   -0.9670    0.0000 O.2     1  LIG1       -0.2680
     16 C           3.1210   -1.9960    0.0000 C.ar    1  LIG1        0.0047
     17 C           2.2710   -2.5080    0.0000 C.ar    1  LIG1        0.0015
     18 C           1.3920   -1.9960    0.0000 C.ar    1  LIG1        0.0202
     19 O           1.0000    0.3920    0.0000 O.2     1  LIG1       -0.1497
     20 O           0.0000   -1.3580    0.0000 O.2     1  LIG1       -0.1497
     21 C          -0.3920    1.0330    0.0000 C.2     1  LIG1        0.2445
     22 C          -1.3330    1.3330    0.0000 C.3     1  LIG1        0.0930
     23 C          -1.9080    0.5170    0.0000 C.3     1  LIG1        0.0532
     24 C          -1.3330   -0.2710    0.0000 C.3     1  LIG1        0.1235
     25 C          -2.8750    0.4540    0.0000 C.ar    1  LIG1       -0.0203
     26 C          -3.3290   -0.4210    0.0000 C.ar    1  LIG1       -0.0042
     27 C          -4.3000   -0.4830    0.0000 C.ar    1  LIG1       -0.0003
     28 C          -4.8750    0.3330    0.0000 C.ar    1  LIG1       -0.0000
     29 C          -4.4210    1.2420    0.0000 C.ar    1  LIG1       -0.0003
     30 C          -3.4210    1.3040    0.0000 C.ar    1  LIG1       -0.0042
     31 O           0.4210    1.6380    0.0000 O.2     1  LIG1       -0.2733
@<TRIPOS>BOND
     1     1     2    1
     2     1    21   am
     3     1    24    1
     4     2     3    1
     5     2    19    2
     6     2    20    2
     7     3     4   ar
     8     3    18   ar
     9     4     5   ar
    10     5     6    1
    11     5    16   ar
    12     6     7   am
    13     6    15    2
    14     7     8    1
    15     8     9   ar
    16     8    14   ar
    17     9    10   ar
    18    10    11   ar
    19    11    12    1
    20    11    13   ar
    21    13    14   ar
    22    16    17   ar
    23    17    18   ar
    24    21    22    1
    25    21    31    2
    26    22    23    1
    27    23    24    1
    28    23    25    1
    29    25    26   ar
    30    25    30   ar
    31    26    27   ar
    32    27    28   ar
    33    28    29   ar
    34    29    30   ar
