@<TRIPOS>MOLECULE
34672_ChemDiv_8016-8174
 25 28 0 0 0
SMALL
GASTEIGER
Energy = 0

@<TRIPOS>ATOM
      1 S           0.0670    1.6380    0.0000 S.O2    1  LIG1       -0.0578
      2 N          -0.7750    2.1630    0.0000 N.pl3   1  LIG1       -0.5358
      3 C          -1.6710    1.6710    0.0000 C.ar    1  LIG1       -0.1122
      4 C          -1.6710    0.7080    0.0000 C.ar    1  LIG1       -0.0189
      5 C          -0.8130    0.2130    0.0000 C.ar    1  LIG1        0.0402
      6 C          -0.8130   -0.7920    0.0000 C.ar    1  LIG1        0.1957
      7 C          -1.6710   -1.2830    0.0000 C.ar    1  LIG1        0.0420
      8 C          -2.5250   -0.7830    0.0000 C.ar    1  LIG1        0.0032
      9 C          -2.5250    0.2130    0.0000 C.ar    1  LIG1       -0.0015
     10 C          -3.3830    0.6830    0.0000 C.ar    1  LIG1       -0.0001
     11 C          -3.3830    1.6960    0.0000 C.ar    1  LIG1       -0.0019
     12 C          -2.5080    2.1880    0.0000 C.ar    1  LIG1       -0.0238
     13 O           0.0290   -1.2920    0.0000 O.3     1  LIG1       -0.2866
     14 C           0.9170    1.1000    0.0000 C.ar    1  LIG1        0.0899
     15 C           0.8880    0.0830    0.0000 C.ar    1  LIG1        0.0250
     16 C           1.7380   -0.4580    0.0000 C.ar    1  LIG1        0.0529
     17 S           1.9130   -1.4330    0.0000 S.2     1  LIG1       -0.0242
     18 C           2.8920   -1.5830    0.0000 C.ar    1  LIG1        0.3107
     19 N           3.3420   -0.6960    0.0000 N.ar    1  LIG1       -0.2016
     20 C           2.6290    0.0210    0.0000 C.ar    1  LIG1        0.0912
     21 C           2.6670    1.0330    0.0000 C.ar    1  LIG1        0.0210
     22 C           1.8170    1.5630    0.0000 C.ar    1  LIG1        0.0185
     23 O           3.3790   -2.4920    0.0000 O.2     1  LIG1       -0.2576
     24 O          -0.4710    0.7830    0.0000 O.2     1  LIG1       -0.1842
     25 O           0.6040    2.4960    0.0000 O.2     1  LIG1       -0.1842
@<TRIPOS>BOND
     1     1     2    1
     2     1    14    1
     3     1    24    2
     4     1    25    2
     5     2     3    1
     6     3     4   ar
     7     3    12   ar
     8     4     5   ar
     9     4     9   ar
    10     5     6   ar
    11     6     7   ar
    12     6    13    1
    13     7     8   ar
    14     8     9   ar
    15     9    10   ar
    16    10    11   ar
    17    11    12   ar
    18    14    15   ar
    19    14    22   ar
    20    15    16   ar
    21    16    17   ar
    22    16    20   ar
    23    17    18   ar
    24    18    19   ar
    25    18    23    2
    26    19    20   ar
    27    20    21   ar
    28    21    22   ar
