@<TRIPOS>MOLECULE
34687_ChemDiv_8016-1036
 12 13 0 0 0
SMALL
GASTEIGER
Energy = 0

@<TRIPOS>ATOM
      1 C          -0.4330   -0.5750    0.0000 C.ar    1  LIG1        0.2320
      2 C          -0.4330    0.4380    0.0000 C.ar    1  LIG1        0.2259
      3 N          -1.3960    0.7580    0.0000 N.ar    1  LIG1       -0.0302
      4 O          -1.9960   -0.0630    0.0000 O.2     1  LIG1       -0.2389
      5 N          -1.4000   -0.8790    0.0000 N.ar    1  LIG1       -0.0298
      6 N           0.3670    1.0710    0.0000 N.pl3   1  LIG1       -0.2164
      7 C           1.3540    0.8460    0.0000 C.3     1  LIG1        0.1034
      8 C           1.7920   -0.0750    0.0000 C.3     1  LIG1        0.1088
      9 C           1.3500   -0.9880    0.0000 C.2     1  LIG1        0.2488
     10 N           0.3540   -1.2130    0.0000 N.am    1  LIG1       -0.1547
     11 O           1.8540   -1.6290    0.0000 O.2     1  LIG1       -0.2729
     12 C           1.9920    1.6330    0.0000 C.3     1  LIG1        0.0239
@<TRIPOS>BOND
     1     1     2   ar
     2     1     5   ar
     3     1    10    1
     4     2     3   ar
     5     2     6    1
     6     3     4   ar
     7     4     5   ar
     8     6     7    1
     9     7     8    1
    10     7    12    1
    11     8     9    1
    12     9    10   am
    13     9    11    2
