@<TRIPOS>MOLECULE
34685_ChemDiv_8015-3139
 22 25 0 0 0
SMALL
GASTEIGER
Energy = 0

@<TRIPOS>ATOM
      1 C          -1.5960   -0.5790    0.0000 C.ar    1  LIG1        0.2325
      2 C          -2.1000    0.2960    0.0000 C.ar    1  LIG1        0.2325
      3 N          -3.0880    0.0880    0.0000 N.ar    1  LIG1       -0.0298
      4 O          -3.1960   -0.9170    0.0000 O.2     1  LIG1       -0.2389
      5 N          -2.2710   -1.3290    0.0000 N.ar    1  LIG1       -0.0298
      6 N          -1.5920    1.1710    0.0000 N.am    1  LIG1       -0.1547
      7 C          -2.0960    2.0500    0.0000 C.2     1  LIG1        0.2475
      8 O          -1.5880    2.9250    0.0000 O.2     1  LIG1       -0.2729
      9 C          -3.1080    2.0500    0.0000 C.3     1  LIG1        0.0968
     10 N          -0.5790   -0.5790    0.0000 N.am    1  LIG1       -0.1547
     11 C          -0.0750   -1.4580    0.0000 C.2     1  LIG1        0.2461
     12 C           0.9380   -1.4580    0.0000 C.3     1  LIG1        0.0709
     13 C           1.8130   -1.9670    0.0000 C.3     1  LIG1        0.0087
     14 C           2.9250   -1.9670    0.0000 C.3     1  LIG1        0.0005
     15 C           3.1920   -2.9210    0.0000 C.3     1  LIG1        0.0000
     16 C           2.5210   -2.3330    0.0000 C.3     1  LIG1        0.0005
     17 C           1.4420   -2.3330    0.0000 C.3     1  LIG1        0.0087
     18 C           2.8580   -1.1710    0.0000 C.3     1  LIG1        0.0000
     19 C           2.4540   -0.5790    0.0000 C.3     1  LIG1        0.0005
     20 C           1.4420   -0.5790    0.0000 C.3     1  LIG1        0.0087
     21 C           3.1920   -1.1380    0.0000 C.3     1  LIG1        0.0000
     22 O          -0.5790   -2.3330    0.0000 O.2     1  LIG1       -0.2730
@<TRIPOS>BOND
     1     1     2   ar
     2     1     5   ar
     3     1    10    1
     4     2     3   ar
     5     2     6    1
     6     3     4   ar
     7     4     5   ar
     8     6     7   am
     9     7     8    2
    10     7     9    1
    11    10    11   am
    12    11    12    1
    13    11    22    2
    14    12    13    1
    15    12    17    1
    16    12    20    1
    17    13    14    1
    18    14    15    1
    19    14    21    1
    20    15    16    1
    21    16    17    1
    22    16    18    1
    23    18    19    1
    24    19    20    1
    25    19    21    1
