@<TRIPOS>MOLECULE
34681_ChemDiv_8015-3048
 22 25 0 0 0
SMALL
GASTEIGER
Energy = 0

@<TRIPOS>ATOM
      1 C          -1.6710   -0.2460    0.0000 C.ar    1  LIG1        0.1570
      2 C          -1.6710    0.7500    0.0000 C.ar    1  LIG1        0.1232
      3 S          -2.6170    1.0630    0.0000 S.2     1  LIG1       -0.0548
      4 C          -3.2080    0.2500    0.0000 C.ar    1  LIG1        0.1285
      5 N          -2.6170   -0.5540    0.0000 N.ar    1  LIG1       -0.3017
      6 C          -3.1170   -1.4210    0.0000 C.3     1  LIG1        0.1085
      7 C          -4.1210   -1.4210    0.0000 C.3     1  LIG1        0.0266
      8 S          -4.2080    0.2500    0.0000 S.2     1  LIG1       -0.0247
      9 C          -0.8040    1.2500    0.0000 C.ar    1  LIG1        0.2895
     10 N           0.0630    0.7500    0.0000 N.ar    1  LIG1       -0.1882
     11 C           0.0630   -0.2460    0.0000 C.ar    1  LIG1        0.1672
     12 N          -0.8040   -0.7460    0.0000 N.ar    1  LIG1       -0.2087
     13 C           0.9290   -0.7460    0.0000 C.ar    1  LIG1        0.0392
     14 C           1.7960   -0.2460    0.0000 C.ar    1  LIG1        0.0432
     15 C           2.6580   -0.7460    0.0000 C.ar    1  LIG1        0.1765
     16 C           2.6580   -1.7460    0.0000 C.ar    1  LIG1        0.1764
     17 O           3.6130   -2.0580    0.0000 O.3     1  LIG1       -0.4346
     18 C           4.2040   -1.2460    0.0000 C.3     1  LIG1        0.4294
     19 O           3.6130   -0.4380    0.0000 O.3     1  LIG1       -0.4346
     20 C           1.7920   -2.2460    0.0000 C.ar    1  LIG1        0.0403
     21 C           0.9290   -1.7460    0.0000 C.ar    1  LIG1        0.0064
     22 O          -0.8040    2.2500    0.0000 O.2     1  LIG1       -0.2645
@<TRIPOS>BOND
     1     1     2   ar
     2     1     5   ar
     3     1    12   ar
     4     2     3   ar
     5     2     9   ar
     6     3     4   ar
     7     4     5   ar
     8     4     8    2
     9     5     6    1
    10     6     7    1
    11     9    10   ar
    12     9    22    2
    13    10    11   ar
    14    11    12   ar
    15    11    13    1
    16    13    14   ar
    17    13    21   ar
    18    14    15   ar
    19    15    16   ar
    20    15    19    1
    21    16    17    1
    22    16    20   ar
    23    17    18    1
    24    18    19    1
    25    20    21   ar
