@<TRIPOS>MOLECULE
34683_ChemDiv_8015-3136
 30 32 0 0 0
SMALL
GASTEIGER
Energy = 0

@<TRIPOS>ATOM
      1 C          -1.8790    0.2080    0.0000 C.ar    1  LIG1        0.1726
      2 C          -1.8790   -0.7960    0.0000 C.ar    1  LIG1        0.1550
      3 C          -2.7420   -1.2880    0.0000 C.ar    1  LIG1        0.2832
      4 N          -3.6040   -0.7960    0.0000 N.ar    1  LIG1       -0.2454
      5 C          -3.6040    0.2080    0.0000 C.ar    1  LIG1        0.3350
      6 N          -2.7420    0.7130    0.0000 N.ar    1  LIG1       -0.2627
      7 C          -2.7460    1.6960    0.0000 C.3     1  LIG1        0.1366
      8 O          -4.4670    0.7040    0.0000 O.2     1  LIG1       -0.2461
      9 C          -4.4670   -1.2880    0.0000 C.3     1  LIG1        0.1383
     10 O          -2.7460   -2.2830    0.0000 O.2     1  LIG1       -0.2652
     11 N          -0.9250   -1.1040    0.0000 N.ar    1  LIG1       -0.2762
     12 C          -0.3290   -0.2880    0.0000 C.ar    1  LIG1        0.3068
     13 N          -0.9250    0.5130    0.0000 N.ar    1  LIG1       -0.1762
     14 O           0.6710   -0.2880    0.0000 O.3     1  LIG1       -0.4234
     15 C           1.3750    0.4250    0.0000 C.ar    1  LIG1        0.1486
     16 C           1.1080    1.3830    0.0000 C.ar    1  LIG1        0.0377
     17 C           1.8130    2.1000    0.0000 C.ar    1  LIG1        0.0060
     18 C           2.7880    1.8420    0.0000 C.ar    1  LIG1        0.0349
     19 C           3.4920    2.5580    0.0000 C.2     1  LIG1        0.1730
     20 O           4.4630    2.3040    0.0000 O.2     1  LIG1       -0.2913
     21 C           3.2250    3.5170    0.0000 C.3     1  LIG1        0.0692
     22 C           2.2500    3.7790    0.0000 C.3     1  LIG1        0.0081
     23 C           1.5330    3.0750    0.0000 C.3     1  LIG1        0.0005
     24 C           3.0540    0.8790    0.0000 C.ar    1  LIG1        0.0060
     25 C           2.3500    0.1670    0.0000 C.ar    1  LIG1        0.0377
     26 C          -0.6130   -2.0500    0.0000 C.3     1  LIG1        0.1107
     27 C           0.3830   -2.0500    0.0000 C.3     1  LIG1        0.0246
     28 C           0.8790   -2.9080    0.0000 C.3     1  LIG1        0.0019
     29 C           1.8790   -2.9170    0.0000 C.3     1  LIG1        0.0001
     30 C           0.3750   -3.7750    0.0000 C.3     1  LIG1        0.0001
@<TRIPOS>BOND
     1     1     2   ar
     2     1     6   ar
     3     1    13   ar
     4     2     3   ar
     5     2    11   ar
     6     3     4   ar
     7     3    10    2
     8     4     5   ar
     9     4     9    1
    10     5     6   ar
    11     5     8    2
    12     6     7    1
    13    11    12   ar
    14    11    26    1
    15    12    13   ar
    16    12    14    1
    17    14    15    1
    18    15    16   ar
    19    15    25   ar
    20    16    17   ar
    21    17    18   ar
    22    18    19    1
    23    18    24   ar
    24    19    20    2
    25    19    21    1
    26    21    22    1
    27    22    23    1
    28    24    25   ar
    29    26    27    1
    30    27    28    1
    31    28    29    1
    32    28    30    1
