@<TRIPOS>MOLECULE
34690_ChemDiv_8017-4283
 18 19 0 0 0
SMALL
GASTEIGER
Energy = 0

@<TRIPOS>ATOM
      1 S          -1.2710   -0.0040    0.0000 S.O2    1  LIG1        0.0633
      2 C          -0.4080    0.4960    0.0000 C.ar    1  LIG1        0.1228
      3 C           0.4630   -0.0040    0.0000 C.ar    1  LIG1        0.0280
      4 C           1.3290    0.4960    0.0000 C.ar    1  LIG1        0.0530
      5 S           2.2790    0.1880    0.0000 S.2     1  LIG1       -0.0242
      6 C           2.8670    1.0000    0.0000 C.ar    1  LIG1        0.3107
      7 N           2.2790    1.8080    0.0000 N.ar    1  LIG1       -0.2016
      8 C           1.3290    1.4960    0.0000 C.ar    1  LIG1        0.0912
      9 C           0.4630    1.9960    0.0000 C.ar    1  LIG1        0.0211
     10 C          -0.4000    1.4960    0.0000 C.ar    1  LIG1        0.0215
     11 O           3.8670    1.0000    0.0000 O.2     1  LIG1       -0.2576
     12 N          -2.1460   -0.5000    0.0000 N.3     1  LIG1       -0.1555
     13 C          -3.0000    0.0080    0.0000 C.3     1  LIG1        0.0958
     14 C          -3.8710   -0.4790    0.0000 C.3     1  LIG1        0.0206
     15 C          -2.1500   -1.5000    0.0000 C.3     1  LIG1        0.0958
     16 C          -3.0210   -1.9920    0.0000 C.3     1  LIG1        0.0206
     17 O          -0.7750   -0.8750    0.0000 O.2     1  LIG1       -0.1528
     18 O          -1.7630    0.8630    0.0000 O.2     1  LIG1       -0.1528
@<TRIPOS>BOND
     1     1     2    1
     2     1    12    1
     3     1    17    2
     4     1    18    2
     5     2     3   ar
     6     2    10   ar
     7     3     4   ar
     8     4     5   ar
     9     4     8   ar
    10     5     6   ar
    11     6     7   ar
    12     6    11    2
    13     7     8   ar
    14     8     9   ar
    15     9    10   ar
    16    12    13    1
    17    12    15    1
    18    13    14    1
    19    15    16    1
