@<TRIPOS>MOLECULE
34699_ChemDiv_8015-0135
 33 38 0 0 0
SMALL
GASTEIGER
Energy = 0

@<TRIPOS>ATOM
      1 C          -3.2330   -1.5880    0.0000 C.ar    1  LIG1        0.1730
      2 C          -2.7630   -0.7080    0.0000 C.ar    1  LIG1        0.1607
      3 N          -1.7790   -0.8790    0.0000 N.ar    1  LIG1       -0.2517
      4 C          -1.6420   -1.8710    0.0000 C.ar    1  LIG1        0.3110
      5 N          -2.5420   -2.3130    0.0000 N.ar    1  LIG1       -0.1759
      6 O          -0.6580   -2.0460    0.0000 O.2     1  LIG1       -0.4217
      7 C          -0.1830   -1.1670    0.0000 C.ar    1  LIG1        0.1646
      8 C          -0.8790   -0.4500    0.0000 C.ar    1  LIG1        0.1029
      9 C          -0.7000    0.5380    0.0000 C.ar    1  LIG1        0.0193
     10 C           0.2330    0.8750    0.0000 C.ar    1  LIG1        0.0015
     11 C           0.4080    1.8630    0.0000 C.ar    1  LIG1        0.0000
     12 C          -0.3500    2.5080    0.0000 C.ar    1  LIG1        0.0000
     13 C          -1.2920    2.1670    0.0000 C.ar    1  LIG1        0.0000
     14 C          -1.4670    1.1790    0.0000 C.ar    1  LIG1        0.0015
     15 C           0.8040   -1.0290    0.0000 C.ar    1  LIG1        0.0361
     16 C           1.1790   -0.1080    0.0000 C.ar    1  LIG1        0.0031
     17 C           2.1710    0.0290    0.0000 C.ar    1  LIG1        0.0001
     18 C           2.7830   -0.7580    0.0000 C.ar    1  LIG1        0.0000
     19 C           2.4080   -1.6830    0.0000 C.ar    1  LIG1        0.0001
     20 C           1.4170   -1.8210    0.0000 C.ar    1  LIG1        0.0031
     21 C           3.7750   -0.6250    0.0000 C.ar    1  LIG1        0.0000
     22 C           4.3880   -1.4080    0.0000 C.ar    1  LIG1        0.0000
     23 C           5.3830   -1.2710    0.0000 C.ar    1  LIG1        0.0000
     24 C           5.7630   -0.3500    0.0000 C.ar    1  LIG1        0.0000
     25 C           5.1420    0.4420    0.0000 C.ar    1  LIG1        0.0000
     26 C           4.1500    0.3040    0.0000 C.ar    1  LIG1        0.0000
     27 C          -3.2920    0.1420    0.0000 C.ar    1  LIG1        0.3023
     28 N          -4.2960    0.1080    0.0000 N.ar    1  LIG1       -0.1518
     29 C          -4.7670   -0.7670    0.0000 C.ar    1  LIG1        0.3540
     30 N          -4.2380   -1.6210    0.0000 N.ar    1  LIG1       -0.2613
     31 C          -4.7080   -2.5040    0.0000 C.3     1  LIG1        0.1367
     32 O          -5.7670   -0.8040    0.0000 O.2     1  LIG1       -0.2443
     33 O          -2.8210    1.0210    0.0000 O.2     1  LIG1       -0.2633
@<TRIPOS>BOND
     1     1     2   ar
     2     1     5   ar
     3     1    30   ar
     4     2     3   ar
     5     2    27   ar
     6     3     4   ar
     7     3     8   ar
     8     4     5   ar
     9     4     6   ar
    10     6     7   ar
    11     7     8   ar
    12     7    15    1
    13     8     9    1
    14     9    10   ar
    15     9    14   ar
    16    10    11   ar
    17    11    12   ar
    18    12    13   ar
    19    13    14   ar
    20    15    16   ar
    21    15    20   ar
    22    16    17   ar
    23    17    18   ar
    24    18    19   ar
    25    18    21    1
    26    19    20   ar
    27    21    22   ar
    28    21    26   ar
    29    22    23   ar
    30    23    24   ar
    31    24    25   ar
    32    25    26   ar
    33    27    28   ar
    34    27    33    2
    35    28    29   ar
    36    29    30   ar
    37    29    32    2
    38    30    31    1
