@<TRIPOS>MOLECULE
34691_ChemDiv_8014-9903
 26 29 0 0 0
SMALL
GASTEIGER
Energy = 0

@<TRIPOS>ATOM
      1 N          -4.2500    1.5630    0.0000 N.2     1  LIG1       -0.2503
      2 C          -4.8330    0.7540    0.0000 C.2     1  LIG1        0.0547
      3 C          -4.2500   -0.0540    0.0000 C.2     1  LIG1       -0.0108
      4 C          -3.2960    0.2500    0.0000 C.2     1  LIG1       -0.0033
      5 C          -3.2960    1.2500    0.0000 C.2     1  LIG1        0.0769
      6 C          -2.4290    1.7500    0.0000 C.2     1  LIG1        0.0182
      7 C          -1.5670    1.2500    0.0000 C.2     1  LIG1       -0.0049
      8 C          -1.5670    0.2500    0.0000 C.2     1  LIG1       -0.0182
      9 C          -2.4290   -0.2460    0.0000 C.3     1  LIG1        0.0513
     10 C          -0.7040   -0.2460    0.0000 C.3     1  LIG1        0.1393
     11 N           0.1630    0.2500    0.0000 N.am    1  LIG1       -0.1824
     12 C           1.0290   -0.2460    0.0000 C.2     1  LIG1        0.3438
     13 N           1.8960    0.2540    0.0000 N.am    1  LIG1       -0.1610
     14 C           2.7630   -0.2460    0.0000 C.ar    1  LIG1        0.0752
     15 C           3.6290    0.2540    0.0000 C.ar    1  LIG1        0.0198
     16 C           4.5000   -0.2460    0.0000 C.ar    1  LIG1        0.0382
     17 C           4.5000   -1.2460    0.0000 C.ar    1  LIG1        0.1388
     18 C           3.6290   -1.7460    0.0000 C.ar    1  LIG1        0.0382
     19 C           2.7630   -1.2460    0.0000 C.ar    1  LIG1        0.0198
     20 O           5.3670   -1.7460    0.0000 O.3     1  LIG1       -0.4714
     21 C           6.2330   -1.2460    0.0000 C.3     1  LIG1        0.2525
     22 O           1.0290   -1.2460    0.0000 O.2     1  LIG1       -0.2488
     23 C          -4.6540   -0.9710    0.0000 C.3     1  LIG1        0.0273
     24 C          -5.6500   -1.0750    0.0000 C.3     1  LIG1        0.0051
     25 C          -6.2330   -0.2670    0.0000 C.3     1  LIG1        0.0066
     26 C          -5.8290    0.6460    0.0000 C.3     1  LIG1        0.0455
@<TRIPOS>BOND
     1     1     2    2
     2     1     5    1
     3     2     3    1
     4     2    26    1
     5     3     4    2
     6     3    23    1
     7     4     5    1
     8     4     9    1
     9     5     6    2
    10     6     7    1
    11     7     8    2
    12     8     9    1
    13     8    10    1
    14    10    11    1
    15    11    12   am
    16    12    13   am
    17    12    22    2
    18    13    14    1
    19    14    15   ar
    20    14    19   ar
    21    15    16   ar
    22    16    17   ar
    23    17    18   ar
    24    17    20    1
    25    18    19   ar
    26    20    21    1
    27    23    24    1
    28    24    25    1
    29    25    26    1
