@<TRIPOS>MOLECULE
34692_ChemDiv_8017-5834
 27 31 0 0 0
SMALL
GASTEIGER
Energy = 0

@<TRIPOS>ATOM
      1 C           4.3540    0.0960    0.0000 C.ar    1  LIG1        0.2923
      2 N           3.7670    0.8830    0.0000 N.ar    1  LIG1       -0.2878
      3 C           2.8130    0.5710    0.0000 C.ar    1  LIG1        0.0692
      4 C           2.8130   -0.4420    0.0000 C.ar    1  LIG1        0.0510
      5 S           3.7670   -0.7250    0.0000 S.2     1  LIG1       -0.0259
      6 C           1.9420   -0.9290    0.0000 C.ar    1  LIG1        0.0280
      7 C           1.0750   -0.4420    0.0000 C.ar    1  LIG1        0.1241
      8 S           0.2040   -0.9670    0.0000 S.O2    1  LIG1        0.0768
      9 O          -0.3380   -0.1170    0.0000 O.2     1  LIG1       -0.1516
     10 O           0.7290   -1.8170    0.0000 O.2     1  LIG1       -0.1516
     11 N          -0.6710   -1.5040    0.0000 N.3     1  LIG1       -0.0778
     12 C          -1.5710   -1.0380    0.0000 C.3     1  LIG1        0.1155
     13 C          -2.4080   -1.5630    0.0000 C.3     1  LIG1        0.0208
     14 C          -3.2750   -1.0920    0.0000 C.3     1  LIG1        0.0014
     15 C          -4.1460   -1.5420    0.0000 C.3     1  LIG1        0.0000
     16 C          -4.5080   -0.4420    0.0000 C.3     1  LIG1        0.0000
     17 C          -5.3830    0.3830    0.0000 C.3     1  LIG1        0.0000
     18 C          -4.2210    0.1630    0.0000 C.3     1  LIG1        0.0000
     19 C          -4.1330   -0.6420    0.0000 C.3     1  LIG1        0.0000
     20 C          -3.5210    0.7210    0.0000 C.3     1  LIG1        0.0000
     21 C          -2.7330    0.3330    0.0000 C.3     1  LIG1        0.0000
     22 C          -2.5710   -0.5500    0.0000 C.3     1  LIG1        0.0000
     23 C          -3.5210    0.3330    0.0000 C.3     1  LIG1        0.0000
     24 C           1.0670    0.5830    0.0000 C.ar    1  LIG1        0.0215
     25 C           1.9420    1.0960    0.0000 C.ar    1  LIG1        0.0192
     26 C           4.0790    1.8210    0.0000 C.3     1  LIG1        0.1341
     27 O           5.3790    0.0960    0.0000 O.2     1  LIG1       -0.2594
@<TRIPOS>BOND
     1     1     2   ar
     2     1     5   ar
     3     1    27    2
     4     2     3   ar
     5     2    26    1
     6     3     4   ar
     7     3    25   ar
     8     4     5   ar
     9     4     6   ar
    10     6     7   ar
    11     7     8    1
    12     7    24   ar
    13     8     9    2
    14     8    10    2
    15     8    11    1
    16    11    12    1
    17    12    13    1
    18    13    14    1
    19    14    15    1
    20    14    19    1
    21    14    22    1
    22    15    16    1
    23    16    17    1
    24    16    23    1
    25    17    18    1
    26    18    19    1
    27    18    20    1
    28    20    21    1
    29    21    22    1
    30    21    23    1
    31    24    25   ar
