@<TRIPOS>MOLECULE
34694_ChemDiv_C187-0193
 25 28 0 0 0
SMALL
GASTEIGER
Energy = 0

@<TRIPOS>ATOM
      1 S           0.0290    0.7540    0.0000 S.O2    1  LIG1        0.0634
      2 N          -0.8420    0.2460    0.0000 N.3     1  LIG1       -0.1520
      3 C          -1.7040    0.7460    0.0000 C.3     1  LIG1        0.1173
      4 C          -2.5710    0.2460    0.0000 C.3     1  LIG1        0.1113
      5 N          -2.5710   -0.7540    0.0000 N.pl3   1  LIG1       -0.2903
      6 C          -3.4330   -1.2540    0.0000 C.ar    1  LIG1        0.1318
      7 N          -3.4330   -2.2540    0.0000 N.ar    1  LIG1       -0.2292
      8 C          -4.2960   -2.7540    0.0000 C.ar    1  LIG1        0.1003
      9 C          -5.1670   -2.2540    0.0000 C.ar    1  LIG1        0.0208
     10 C          -5.1670   -1.2540    0.0000 C.ar    1  LIG1        0.0045
     11 C          -4.3000   -0.7540    0.0000 C.ar    1  LIG1        0.0343
     12 C          -1.7040   -1.2540    0.0000 C.3     1  LIG1        0.1113
     13 C          -0.8420   -0.7540    0.0000 C.3     1  LIG1        0.1173
     14 C           0.8960    1.2580    0.0000 C.ar    1  LIG1        0.1228
     15 C           1.7630    0.7540    0.0000 C.ar    1  LIG1        0.0280
     16 C           2.6290    1.2580    0.0000 C.ar    1  LIG1        0.0530
     17 S           3.5790    0.9580    0.0000 S.2     1  LIG1       -0.0242
     18 C           4.1630    1.7580    0.0000 C.ar    1  LIG1        0.3107
     19 N           3.5790    2.5630    0.0000 N.ar    1  LIG1       -0.2016
     20 C           2.6290    2.2580    0.0000 C.ar    1  LIG1        0.0912
     21 C           1.7630    2.7580    0.0000 C.ar    1  LIG1        0.0211
     22 C           0.8960    2.2580    0.0000 C.ar    1  LIG1        0.0215
     23 O           5.1630    1.7290    0.0000 O.2     1  LIG1       -0.2576
     24 O           0.5330   -0.1170    0.0000 O.2     1  LIG1       -0.1528
     25 O          -0.4750    1.6250    0.0000 O.2     1  LIG1       -0.1528
@<TRIPOS>BOND
     1     1     2    1
     2     1    14    1
     3     1    24    2
     4     1    25    2
     5     2     3    1
     6     2    13    1
     7     3     4    1
     8     4     5    1
     9     5     6    1
    10     5    12    1
    11     6     7   ar
    12     6    11   ar
    13     7     8   ar
    14     8     9   ar
    15     9    10   ar
    16    10    11   ar
    17    12    13    1
    18    14    15   ar
    19    14    22   ar
    20    15    16   ar
    21    16    17   ar
    22    16    20   ar
    23    17    18   ar
    24    18    19   ar
    25    18    23    2
    26    19    20   ar
    27    20    21   ar
    28    21    22   ar
