@<TRIPOS>MOLECULE
34693_ChemDiv_8014-9909
 35 38 0 0 0
SMALL
GASTEIGER
Energy = 0

@<TRIPOS>ATOM
      1 C           1.9750    2.4330    0.0000 C.ar    1  LIG1        0.3315
      2 N           1.1670    1.8500    0.0000 N.ar    1  LIG1       -0.2799
      3 C           1.4750    0.8960    0.0000 C.ar    1  LIG1        0.0809
      4 C           2.4750    0.8960    0.0000 C.ar    1  LIG1        0.0798
      5 N           2.7830    1.8500    0.0000 N.ar    1  LIG1       -0.2799
      6 C           3.6500    2.3460    0.0000 C.3     1  LIG1        0.1106
      7 C           4.5210    1.8500    0.0000 C.3     1  LIG1        0.0266
      8 C           2.9750    0.0290    0.0000 C.ar    1  LIG1        0.0201
      9 C           2.4750   -0.8380    0.0000 C.ar    1  LIG1        0.0185
     10 C           1.4750   -0.8380    0.0000 C.ar    1  LIG1        0.0908
     11 S           0.9750   -1.7040    0.0000 S.O2    1  LIG1       -0.0577
     12 N           0.4710   -2.5670    0.0000 N.pl3   1  LIG1       -0.5358
     13 C          -0.5290   -2.5670    0.0000 C.ar    1  LIG1       -0.1125
     14 C          -1.0290   -1.7040    0.0000 C.ar    1  LIG1       -0.0233
     15 C          -2.0290   -1.7040    0.0000 C.ar    1  LIG1        0.0318
     16 C          -2.5290   -0.8380    0.0000 C.3     1  LIG1        0.2598
     17 O          -2.0290    0.0290    0.0000 O.3     1  LIG1       -0.3296
     18 C          -2.5290    0.8960    0.0000 C.3     1  LIG1        0.1202
     19 C          -3.5250    0.8960    0.0000 C.3     1  LIG1        0.0526
     20 C          -4.0290    0.0290    0.0000 C.3     1  LIG1        0.1473
     21 O          -3.5250   -0.8380    0.0000 O.3     1  LIG1       -0.3270
     22 C          -4.5250    0.9000    0.0000 C.3     1  LIG1        0.0049
     23 C          -3.0290    1.7630    0.0000 C.3     1  LIG1        0.0049
     24 C          -2.0290    1.7630    0.0000 C.3     1  LIG1        0.0274
     25 C          -1.0290    1.7630    0.0000 C.3     1  LIG1        0.0025
     26 C          -2.5290    2.6290    0.0000 C.3     1  LIG1        0.0025
     27 C          -2.5290   -2.5670    0.0000 C.ar    1  LIG1        0.0004
     28 C          -2.0290   -3.4330    0.0000 C.ar    1  LIG1       -0.0020
     29 C          -1.0290   -3.4330    0.0000 C.ar    1  LIG1       -0.0239
     30 O           1.8420   -2.2000    0.0000 O.2     1  LIG1       -0.1842
     31 O           0.1040   -1.2040    0.0000 O.2     1  LIG1       -0.1842
     32 C           0.9750    0.0290    0.0000 C.ar    1  LIG1        0.0357
     33 C           0.2960    2.3460    0.0000 C.3     1  LIG1        0.1106
     34 C           0.2960    3.3500    0.0000 C.3     1  LIG1        0.0266
     35 O           1.9750    3.4380    0.0000 O.2     1  LIG1       -0.2463
@<TRIPOS>BOND
     1     1     2   ar
     2     1     5   ar
     3     1    35    2
     4     2     3   ar
     5     2    33    1
     6     3     4   ar
     7     3    32   ar
     8     4     5   ar
     9     4     8   ar
    10     5     6    1
    11     6     7    1
    12     8     9   ar
    13     9    10   ar
    14    10    11    1
    15    10    32   ar
    16    11    12    1
    17    11    30    2
    18    11    31    2
    19    12    13    1
    20    13    14   ar
    21    13    29   ar
    22    14    15   ar
    23    15    16    1
    24    15    27   ar
    25    16    17    1
    26    16    21    1
    27    17    18    1
    28    18    19    1
    29    18    24    1
    30    19    20    1
    31    19    22    1
    32    19    23    1
    33    20    21    1
    34    24    25    1
    35    24    26    1
    36    27    28   ar
    37    28    29   ar
    38    33    34    1
