@<TRIPOS>MOLECULE
34698_ChemDiv_C852-0248
 30 33 0 0 0
SMALL
GASTEIGER
Energy = 0

@<TRIPOS>ATOM
      1 S          -3.0000    1.2750    0.0000 S.O2    1  LIG1        0.0638
      2 N          -2.5000    2.1380    0.0000 N.3     1  LIG1       -0.1447
      3 C          -1.5000    2.1380    0.0000 C.3     1  LIG1        0.1806
      4 C          -1.0000    3.0040    0.0000 C.2     1  LIG1        0.2438
      5 N           0.0000    3.0040    0.0000 N.am    1  LIG1       -0.2749
      6 C           0.5080    2.1330    0.0000 C.3     1  LIG1        0.1150
      7 C           1.5000    2.1380    0.0000 C.3     1  LIG1        0.1151
      8 N           1.9960    3.0040    0.0000 N.pl3   1  LIG1       -0.2747
      9 C           2.9960    3.0040    0.0000 C.ar    1  LIG1        0.2203
     10 N           3.4960    3.8710    0.0000 N.ar    1  LIG1       -0.2121
     11 C           4.4920    3.8710    0.0000 C.ar    1  LIG1        0.1034
     12 C           4.9960    3.0040    0.0000 C.ar    1  LIG1        0.0414
     13 C           4.4960    2.1380    0.0000 C.ar    1  LIG1        0.1034
     14 N           3.4960    2.1380    0.0000 N.ar    1  LIG1       -0.2121
     15 C           1.4960    3.8670    0.0000 C.3     1  LIG1        0.1151
     16 C           0.4960    3.8670    0.0000 C.3     1  LIG1        0.1150
     17 O          -1.5000    3.8670    0.0000 O.2     1  LIG1       -0.2733
     18 C          -3.0000    3.0040    0.0000 C.3     1  LIG1        0.1155
     19 C          -3.5000    0.4130    0.0000 C.ar    1  LIG1        0.1228
     20 C          -3.0000   -0.4500    0.0000 C.ar    1  LIG1        0.0279
     21 C          -3.4920   -1.3210    0.0000 C.ar    1  LIG1        0.0495
     22 S          -3.1830   -2.2750    0.0000 S.2     1  LIG1       -0.0707
     23 C          -3.9960   -2.8670    0.0000 C.ar    1  LIG1        0.0886
     24 N          -4.8130   -2.2790    0.0000 N.ar    1  LIG1       -0.2427
     25 C          -4.5000   -1.3210    0.0000 C.ar    1  LIG1        0.0875
     26 C          -5.0000   -0.4540    0.0000 C.ar    1  LIG1        0.0210
     27 C          -4.5000    0.4130    0.0000 C.ar    1  LIG1        0.0215
     28 C          -3.9960   -3.8670    0.0000 C.3     1  LIG1        0.0594
     29 O          -3.8580    1.7790    0.0000 O.2     1  LIG1       -0.1528
     30 O          -2.1330    0.7790    0.0000 O.2     1  LIG1       -0.1528
@<TRIPOS>BOND
     1     1     2    1
     2     1    19    1
     3     1    29    2
     4     1    30    2
     5     2     3    1
     6     2    18    1
     7     3     4    1
     8     4     5   am
     9     4    17    2
    10     5     6    1
    11     5    16    1
    12     6     7    1
    13     7     8    1
    14     8     9    1
    15     8    15    1
    16     9    10   ar
    17     9    14   ar
    18    10    11   ar
    19    11    12   ar
    20    12    13   ar
    21    13    14   ar
    22    15    16    1
    23    19    20   ar
    24    19    27   ar
    25    20    21   ar
    26    21    22   ar
    27    21    25   ar
    28    22    23   ar
    29    23    24   ar
    30    23    28    1
    31    24    25   ar
    32    25    26   ar
    33    26    27   ar
