@<TRIPOS>MOLECULE
34696_ChemDiv_C187-0202
 18 20 0 0 0
SMALL
GASTEIGER
Energy = 0

@<TRIPOS>ATOM
      1 S          -1.3250   -0.2040    0.0000 S.O2    1  LIG1        0.0633
      2 C          -0.4580    0.2960    0.0000 C.ar    1  LIG1        0.1228
      3 C           0.4080   -0.2040    0.0000 C.ar    1  LIG1        0.0280
      4 C           1.2710    0.2960    0.0000 C.ar    1  LIG1        0.0530
      5 S           2.2210    0.0000    0.0000 S.2     1  LIG1       -0.0242
      6 C           2.8040    0.7960    0.0000 C.ar    1  LIG1        0.3107
      7 N           2.2210    1.6000    0.0000 N.ar    1  LIG1       -0.2016
      8 C           1.2710    1.2960    0.0000 C.ar    1  LIG1        0.0912
      9 C           0.4080    1.7960    0.0000 C.ar    1  LIG1        0.0211
     10 C          -0.4580    1.2960    0.0000 C.ar    1  LIG1        0.0215
     11 O           3.8040    0.7710    0.0000 O.2     1  LIG1       -0.2576
     12 N          -2.1960   -0.7130    0.0000 N.3     1  LIG1       -0.1555
     13 C          -2.4080   -1.6920    0.0000 C.3     1  LIG1        0.0958
     14 C          -3.4080   -1.7920    0.0000 C.3     1  LIG1        0.0206
     15 C          -3.8080   -0.8830    0.0000 C.3     1  LIG1        0.0206
     16 C          -3.0750   -0.2130    0.0000 C.3     1  LIG1        0.0958
     17 O          -0.8250   -1.0790    0.0000 O.2     1  LIG1       -0.1528
     18 O          -1.8290    0.6670    0.0000 O.2     1  LIG1       -0.1528
@<TRIPOS>BOND
     1     1     2    1
     2     1    12    1
     3     1    17    2
     4     1    18    2
     5     2     3   ar
     6     2    10   ar
     7     3     4   ar
     8     4     5   ar
     9     4     8   ar
    10     5     6   ar
    11     6     7   ar
    12     6    11    2
    13     7     8   ar
    14     8     9   ar
    15     9    10   ar
    16    12    13    1
    17    12    16    1
    18    13    14    1
    19    14    15    1
    20    15    16    1
