@<TRIPOS>MOLECULE
34700_ChemDiv_C920-1653
 27 29 0 0 0
SMALL
GASTEIGER
Energy = 0

@<TRIPOS>ATOM
      1 S          -2.0130    1.2710    0.0000 S.O2    1  LIG1        0.0773
      2 C          -2.5040    0.4080    0.0000 C.ar    1  LIG1        0.1242
      3 C          -2.0130   -0.4460    0.0000 C.ar    1  LIG1        0.0280
      4 C          -2.5040   -1.3130    0.0000 C.ar    1  LIG1        0.0495
      5 S          -2.1920   -2.2630    0.0000 S.2     1  LIG1       -0.0707
      6 C          -3.0000   -2.8540    0.0000 C.ar    1  LIG1        0.0886
      7 N          -3.8170   -2.2630    0.0000 N.ar    1  LIG1       -0.2427
      8 C          -3.5040   -1.3130    0.0000 C.ar    1  LIG1        0.0875
      9 C          -4.0000   -0.4540    0.0000 C.ar    1  LIG1        0.0210
     10 C          -3.5040    0.4080    0.0000 C.ar    1  LIG1        0.0215
     11 C          -3.0000   -3.8500    0.0000 C.3     1  LIG1        0.0594
     12 N          -1.5130    2.1330    0.0000 N.3     1  LIG1       -0.0678
     13 C          -0.5170    2.1330    0.0000 C.3     1  LIG1        0.2020
     14 C          -0.0210    2.9920    0.0000 C.2     1  LIG1        0.2653
     15 N           0.9750    2.9920    0.0000 N.am    1  LIG1       -0.1779
     16 C           1.4790    2.1330    0.0000 C.ar    1  LIG1        0.0734
     17 C           2.4920    2.1330    0.0000 C.ar    1  LIG1        0.0163
     18 C           3.0000    1.2580    0.0000 C.ar    1  LIG1       -0.0029
     19 C           2.4920    0.3830    0.0000 C.ar    1  LIG1       -0.0224
     20 C           1.4790    0.3830    0.0000 C.ar    1  LIG1       -0.0029
     21 C           0.9750    1.2580    0.0000 C.ar    1  LIG1        0.0163
     22 C           2.9960   -0.4790    0.0000 C.3     1  LIG1        0.0224
     23 C           3.9960   -0.4790    0.0000 C.3     1  LIG1        0.0047
     24 C           2.4920   -1.3500    0.0000 C.3     1  LIG1        0.0047
     25 O          -0.5170    3.8540    0.0000 O.2     1  LIG1       -0.2713
     26 O          -1.1460    0.7830    0.0000 O.2     1  LIG1       -0.1516
     27 O          -2.8670    1.7790    0.0000 O.2     1  LIG1       -0.1516
@<TRIPOS>BOND
     1     1     2    1
     2     1    12    1
     3     1    26    2
     4     1    27    2
     5     2     3   ar
     6     2    10   ar
     7     3     4   ar
     8     4     5   ar
     9     4     8   ar
    10     5     6   ar
    11     6     7   ar
    12     6    11    1
    13     7     8   ar
    14     8     9   ar
    15     9    10   ar
    16    12    13    1
    17    13    14    1
    18    14    15   am
    19    14    25    2
    20    15    16    1
    21    16    17   ar
    22    16    21   ar
    23    17    18   ar
    24    18    19   ar
    25    19    20   ar
    26    19    22    1
    27    20    21   ar
    28    22    23    1
    29    22    24    1
