@<TRIPOS>MOLECULE
34703_ChemDiv_8015-0480
 24 26 0 0 0
SMALL
GASTEIGER
Energy = 0

@<TRIPOS>ATOM
      1 N          -2.6380   -0.8500    0.0000 N.ar    1  LIG1       -0.2500
      2 C          -1.8170   -0.3830    0.0000 C.ar    1  LIG1        0.0555
      3 C          -1.8170    0.5460    0.0000 C.ar    1  LIG1       -0.0054
      4 C          -3.4500    0.5460    0.0000 C.ar    1  LIG1        0.0145
      5 C          -3.4500   -0.3830    0.0000 C.ar    1  LIG1        0.0806
      6 C          -4.2630   -0.8500    0.0000 C.ar    1  LIG1        0.0188
      7 C          -5.0670   -0.3830    0.0000 C.ar    1  LIG1       -0.0027
      8 C          -5.0670    0.5460    0.0000 C.ar    1  LIG1       -0.0218
      9 C          -4.2630    1.0170    0.0000 C.ar    1  LIG1       -0.0030
     10 C          -5.9380    1.0380    0.0000 C.3     1  LIG1        0.0310
     11 C          -0.9710    1.0380    0.0000 C.3     1  LIG1        0.0511
     12 C          -0.1000    0.5330    0.0000 C.3     1  LIG1        0.1215
     13 N           0.7130    1.0210    0.0000 N.am    1  LIG1       -0.1866
     14 C           1.6080    0.4880    0.0000 C.2     1  LIG1        0.3435
     15 N           2.5040    1.0170    0.0000 N.am    1  LIG1       -0.1610
     16 C           3.3420    0.4880    0.0000 C.ar    1  LIG1        0.0750
     17 C           4.2250    0.9790    0.0000 C.ar    1  LIG1        0.0175
     18 C           5.0830    0.4750    0.0000 C.ar    1  LIG1        0.0127
     19 C           5.0830   -0.5290    0.0000 C.ar    1  LIG1        0.0578
     20 CL          5.9380   -1.0330    0.0000 Cl      1  LIG1       -0.0822
     21 C           4.2130   -1.0040    0.0000 C.ar    1  LIG1        0.0127
     22 C           3.3420   -0.4830    0.0000 C.ar    1  LIG1        0.0175
     23 O           1.6080   -0.5040    0.0000 O.2     1  LIG1       -0.2488
     24 C          -0.9580   -0.8710    0.0000 C.3     1  LIG1        0.0518
@<TRIPOS>BOND
     1     1     2   ar
     2     1     5   ar
     3     2     3   ar
     4     2    24    1
     5     3     4   ar
     6     3    11    1
     7     4     5   ar
     8     4     9   ar
     9     5     6   ar
    10     6     7   ar
    11     7     8   ar
    12     8     9   ar
    13     8    10    1
    14    11    12    1
    15    12    13    1
    16    13    14   am
    17    14    15   am
    18    14    23    2
    19    15    16    1
    20    16    17   ar
    21    16    22   ar
    22    17    18   ar
    23    18    19   ar
    24    19    20    1
    25    19    21   ar
    26    21    22   ar
