@<TRIPOS>MOLECULE
34707_ChemDiv_8015-3179
 24 26 0 0 0
SMALL
GASTEIGER
Energy = 0

@<TRIPOS>ATOM
      1 N           0.6710    0.8500    0.0000 N.am    1  LIG1       -0.5457
      2 C           1.6750    0.8500    0.0000 C.2     1  LIG1        0.0854
      3 C           2.6830    0.8500    0.0000 C.ar    1  LIG1        0.0165
      4 C           3.1830    1.7040    0.0000 C.ar    1  LIG1        0.0126
      5 C           4.1750    1.7130    0.0000 C.ar    1  LIG1        0.0577
      6 CL          4.8830    2.4210    0.0000 Cl      1  LIG1       -0.0822
      7 C           4.6830    0.8380    0.0000 C.ar    1  LIG1        0.0114
      8 C           4.1830   -0.0250    0.0000 C.ar    1  LIG1        0.0009
      9 C           3.1830   -0.0250    0.0000 C.ar    1  LIG1        0.0013
     10 O           1.6750    1.8540    0.0000 O.2     1  LIG1       -0.3128
     11 C          -0.3290    0.8500    0.0000 C.2     1  LIG1        0.2307
     12 O          -1.3290    0.8500    0.0000 O.3     1  LIG1       -0.4613
     13 C          -2.3040    0.5630    0.0000 C.3     1  LIG1        0.2125
     14 C          -2.3040   -0.4250    0.0000 C.3     1  LIG1        0.0950
     15 C          -3.1630   -0.9210    0.0000 C.3     1  LIG1        0.0903
     16 N          -3.1630   -1.9000    0.0000 N.4     1  LIG1        0.3730
     17 C          -2.3040   -2.4170    0.0000 C.3     1  LIG1        0.1383
     18 C          -1.4290   -1.9210    0.0000 C.3     1  LIG1        0.0630
     19 C          -1.4290   -0.9210    0.0000 C.3     1  LIG1        0.0156
     20 C          -4.0250   -2.4170    0.0000 C.3     1  LIG1        0.1383
     21 C          -4.8880   -1.9210    0.0000 C.3     1  LIG1        0.0629
     22 C          -4.8880   -0.9210    0.0000 C.3     1  LIG1        0.0120
     23 C          -4.0250   -0.4250    0.0000 C.3     1  LIG1        0.0570
     24 O          -0.3380    1.8540    0.0000 O.2     1  LIG1       -0.2725
@<TRIPOS>BOND
     1     1     2   am
     2     1    11   am
     3     2     3    1
     4     2    10    2
     5     3     4   ar
     6     3     9   ar
     7     4     5   ar
     8     5     6    1
     9     5     7   ar
    10     7     8   ar
    11     8     9   ar
    12    11    12    1
    13    11    24    2
    14    12    13    1
    15    14    13    1
    16    14    15    1
    17    14    19    1
    18    15    16    1
    19    15    23    1
    20    16    17    1
    21    16    20    1
    22    17    18    1
    23    18    19    1
    24    20    21    1
    25    21    22    1
    26    22    23    1
