@<TRIPOS>MOLECULE
34704_ChemDiv_G237-0018
 32 35 0 0 0
SMALL
GASTEIGER
Energy = 0

@<TRIPOS>ATOM
      1 S           0.8290   -1.5080    0.0000 S.O2    1  LIG1        0.0640
      2 N           1.6920   -1.0080    0.0000 N.3     1  LIG1       -0.1417
      3 C           2.5630   -1.5080    0.0000 C.3     1  LIG1        0.1825
      4 C           3.4250   -1.0080    0.0000 C.2     1  LIG1        0.2598
      5 N           3.4250   -0.0080    0.0000 N.am    1  LIG1       -0.1977
      6 C           2.5670    0.4920    0.0000 C.3     1  LIG1        0.1605
      7 C           2.5670    1.4960    0.0000 C.ar    1  LIG1        0.0809
      8 N           1.7000    1.9960    0.0000 N.ar    1  LIG1       -0.2464
      9 C           1.7000    3.0040    0.0000 C.ar    1  LIG1        0.0985
     10 C           2.5670    3.5130    0.0000 C.ar    1  LIG1        0.0207
     11 C           3.4420    3.0040    0.0000 C.ar    1  LIG1        0.0029
     12 C           3.4420    2.0040    0.0000 C.ar    1  LIG1        0.0165
     13 O           4.2960   -1.5080    0.0000 O.2     1  LIG1       -0.2718
     14 C           1.6920   -0.0080    0.0000 C.3     1  LIG1        0.1226
     15 C           0.8290    0.4830    0.0000 C.ar    1  LIG1       -0.0045
     16 C           0.8290    1.4830    0.0000 C.ar    1  LIG1       -0.0029
     17 C          -0.0330    1.9790    0.0000 C.ar    1  LIG1       -0.0003
     18 C          -0.9000    1.4830    0.0000 C.ar    1  LIG1       -0.0000
     19 C          -0.9000    0.4830    0.0000 C.ar    1  LIG1       -0.0003
     20 C          -0.0330   -0.0080    0.0000 C.ar    1  LIG1       -0.0029
     21 C          -0.0330   -2.0080    0.0000 C.ar    1  LIG1        0.1228
     22 C          -0.9000   -1.5080    0.0000 C.ar    1  LIG1        0.0279
     23 C          -1.7630   -2.0080    0.0000 C.ar    1  LIG1        0.0495
     24 S          -2.7130   -1.7040    0.0000 S.2     1  LIG1       -0.0707
     25 C          -3.3000   -2.5080    0.0000 C.ar    1  LIG1        0.0886
     26 N          -2.7130   -3.3170    0.0000 N.ar    1  LIG1       -0.2427
     27 C          -1.7630   -3.0080    0.0000 C.ar    1  LIG1        0.0875
     28 C          -0.9000   -3.5080    0.0000 C.ar    1  LIG1        0.0210
     29 C          -0.0330   -3.0080    0.0000 C.ar    1  LIG1        0.0215
     30 C          -4.3000   -2.5080    0.0000 C.3     1  LIG1        0.0594
     31 O           1.3290   -2.3710    0.0000 O.2     1  LIG1       -0.1528
     32 O           0.3290   -0.6460    0.0000 O.2     1  LIG1       -0.1528
@<TRIPOS>BOND
     1     1     2    1
     2     1    21    1
     3     1    31    2
     4     1    32    2
     5     2     3    1
     6     2    14    1
     7     3     4    1
     8     4     5   am
     9     4    13    2
    10     5     6    1
    11     6     7    1
    12     7     8   ar
    13     7    12   ar
    14     8     9   ar
    15     9    10   ar
    16    10    11   ar
    17    11    12   ar
    18    14    15    1
    19    15    16   ar
    20    15    20   ar
    21    16    17   ar
    22    17    18   ar
    23    18    19   ar
    24    19    20   ar
    25    21    22   ar
    26    21    29   ar
    27    22    23   ar
    28    23    24   ar
    29    23    27   ar
    30    24    25   ar
    31    25    26   ar
    32    25    30    1
    33    26    27   ar
    34    27    28   ar
    35    28    29   ar
