@<TRIPOS>MOLECULE
34702_ChemDiv_C920-1683
 23 24 0 0 0
SMALL
GASTEIGER
Energy = 0

@<TRIPOS>ATOM
      1 S          -2.2500    1.2750    0.0000 S.O2    1  LIG1        0.0773
      2 C          -2.7420    0.4130    0.0000 C.ar    1  LIG1        0.1242
      3 C          -2.2500   -0.4460    0.0000 C.ar    1  LIG1        0.0280
      4 C          -2.7420   -1.3170    0.0000 C.ar    1  LIG1        0.0495
      5 S          -2.4290   -2.2670    0.0000 S.2     1  LIG1       -0.0707
      6 C          -3.2420   -2.8630    0.0000 C.ar    1  LIG1        0.0886
      7 N          -4.0580   -2.2670    0.0000 N.ar    1  LIG1       -0.2427
      8 C          -3.7460   -1.3170    0.0000 C.ar    1  LIG1        0.0875
      9 C          -4.2460   -0.4540    0.0000 C.ar    1  LIG1        0.0210
     10 C          -3.7460    0.4130    0.0000 C.ar    1  LIG1        0.0215
     11 C          -3.2420   -3.8630    0.0000 C.3     1  LIG1        0.0594
     12 N          -1.7460    2.1380    0.0000 N.3     1  LIG1       -0.0678
     13 C          -0.7460    2.1380    0.0000 C.3     1  LIG1        0.2017
     14 C          -0.2500    3.0000    0.0000 C.2     1  LIG1        0.2611
     15 O          -0.7460    3.8670    0.0000 O.2     1  LIG1       -0.2717
     16 N           0.7500    3.0000    0.0000 N.am    1  LIG1       -0.2041
     17 C           1.2500    2.1380    0.0000 C.3     1  LIG1        0.1178
     18 C           2.2540    2.1250    0.0000 C.3     1  LIG1        0.0555
     19 C           2.7460    1.2540    0.0000 C.3     1  LIG1        0.1441
     20 O           3.7460    1.2420    0.0000 O.3     1  LIG1       -0.3510
     21 C           4.2420    0.3750    0.0000 C.3     1  LIG1        0.1741
     22 O          -1.3790    0.7830    0.0000 O.2     1  LIG1       -0.1516
     23 O          -3.1080    1.7830    0.0000 O.2     1  LIG1       -0.1516
@<TRIPOS>BOND
     1     1     2    1
     2     1    12    1
     3     1    22    2
     4     1    23    2
     5     2     3   ar
     6     2    10   ar
     7     3     4   ar
     8     4     5   ar
     9     4     8   ar
    10     5     6   ar
    11     6     7   ar
    12     6    11    1
    13     7     8   ar
    14     8     9   ar
    15     9    10   ar
    16    12    13    1
    17    13    14    1
    18    14    15    2
    19    14    16   am
    20    16    17    1
    21    17    18    1
    22    18    19    1
    23    19    20    1
    24    20    21    1
