@<TRIPOS>MOLECULE
34718_ChemDiv_8015-7021
 31 35 0 0 0
SMALL
GASTEIGER
Energy = 0

@<TRIPOS>ATOM
      1 C          -0.8580   -0.4960    0.0000 C.ar    1  LIG1        0.4779
      2 N          -0.8580    0.5080    0.0000 N.ar    1  LIG1       -0.1439
      3 N          -1.7210    1.0080    0.0000 N.ar    1  LIG1       -0.1573
      4 C          -2.5880    0.5080    0.0000 C.ar    1  LIG1        0.1193
      5 C          -2.5880   -0.4960    0.0000 C.ar    1  LIG1        0.1081
      6 N          -1.7210   -0.9960    0.0000 N.ar    1  LIG1       -0.1602
      7 C          -3.4580   -0.9960    0.0000 C.ar    1  LIG1        0.0194
      8 C          -3.4580   -1.9960    0.0000 C.ar    1  LIG1        0.0015
      9 C          -4.3210   -2.4960    0.0000 C.ar    1  LIG1        0.0000
     10 C          -5.1830   -1.9960    0.0000 C.ar    1  LIG1        0.0000
     11 C          -5.1830   -0.9960    0.0000 C.ar    1  LIG1        0.0000
     12 C          -4.3210   -0.4960    0.0000 C.ar    1  LIG1        0.0015
     13 C          -3.4580    1.0080    0.0000 C.ar    1  LIG1        0.0208
     14 C          -3.4580    2.0080    0.0000 C.ar    1  LIG1        0.0016
     15 C          -4.3210    2.5000    0.0000 C.ar    1  LIG1        0.0000
     16 C          -5.1880    2.0080    0.0000 C.ar    1  LIG1        0.0000
     17 C          -5.1880    1.0080    0.0000 C.ar    1  LIG1        0.0000
     18 C          -4.3210    0.5080    0.0000 C.ar    1  LIG1        0.0016
     19 C           0.0960    0.8210    0.0000 C.ar    1  LIG1        0.1840
     20 C           0.6830    0.0040    0.0000 C.ar    1  LIG1        0.3199
     21 N           0.0960   -0.8080    0.0000 N.ar    1  LIG1        0.1207
     22 C           1.6830    0.0040    0.0000 C.ar    1  LIG1        0.0752
     23 C           2.1830    0.8710    0.0000 C.ar    1  LIG1        0.0462
     24 C           3.1830    0.8710    0.0000 C.ar    1  LIG1        0.1726
     25 C           3.6830    0.0040    0.0000 C.ar    1  LIG1        0.1724
     26 C           3.1830   -0.8670    0.0000 C.ar    1  LIG1        0.0402
     27 C           2.1830   -0.8670    0.0000 C.ar    1  LIG1        0.0095
     28 O           4.6830    0.0040    0.0000 O.3     1  LIG1       -0.4684
     29 C           5.1830   -0.8670    0.0000 C.3     1  LIG1        0.2526
     30 O           3.6830    1.7380    0.0000 O.3     1  LIG1       -0.4684
     31 C           4.6830    1.7380    0.0000 C.3     1  LIG1        0.2526
@<TRIPOS>BOND
     1     1     2   ar
     2     1     6   ar
     3     1    21   ar
     4     2     3   ar
     5     2    19   ar
     6     3     4   ar
     7     4     5   ar
     8     4    13    1
     9     5     6   ar
    10     5     7    1
    11     7     8   ar
    12     7    12   ar
    13     8     9   ar
    14     9    10   ar
    15    10    11   ar
    16    11    12   ar
    17    13    14   ar
    18    13    18   ar
    19    14    15   ar
    20    15    16   ar
    21    16    17   ar
    22    17    18   ar
    23    19    20   ar
    24    20    21   ar
    25    20    22    1
    26    22    23   ar
    27    22    27   ar
    28    23    24   ar
    29    24    25   ar
    30    24    30    1
    31    25    26   ar
    32    25    28    1
    33    26    27   ar
    34    28    29    1
    35    30    31    1
