@<TRIPOS>MOLECULE
34711_ChemDiv_8015-3211
 16 17 0 0 0
SMALL
GASTEIGER
Energy = 0

@<TRIPOS>ATOM
      1 C           0.8540    0.5000    0.0000 C.ar    1  LIG1        0.0789
      2 C           0.8540   -0.5040    0.0000 C.ar    1  LIG1        0.1421
      3 N          -0.0130   -1.0040    0.0000 N.ar    1  LIG1       -0.2405
      4 C          -0.8790   -0.5040    0.0000 C.ar    1  LIG1        0.0814
      5 C          -0.8790    0.5000    0.0000 C.ar    1  LIG1        0.0178
      6 C          -0.0130    0.9960    0.0000 C.ar    1  LIG1        0.0078
      7 C          -1.7330    0.9960    0.0000 C.ar    1  LIG1        0.0015
      8 C          -2.6040    0.5000    0.0000 C.ar    1  LIG1        0.0001
      9 C          -2.6040   -0.5040    0.0000 C.ar    1  LIG1        0.0015
     10 C          -1.7330   -1.0040    0.0000 C.ar    1  LIG1        0.0191
     11 C           1.7290   -1.0040    0.0000 C.2     1  LIG1        0.3020
     12 O           1.7290   -2.0000    0.0000 O.2     1  LIG1       -0.2650
     13 N           2.6000   -0.5040    0.0000 N.am    1  LIG1       -0.0824
     14 C           1.7290    0.9960    0.0000 C.2     1  LIG1        0.2858
     15 O           2.5830    0.5000    0.0000 O.2     1  LIG1       -0.2666
     16 N           1.7290    2.0040    0.0000 N.am    1  LIG1       -0.0837
@<TRIPOS>BOND
     1     1     2   ar
     2     1     6   ar
     3     1    14    1
     4     2     3   ar
     5     2    11    1
     6     3     4   ar
     7     4     5   ar
     8     4    10   ar
     9     5     6   ar
    10     5     7   ar
    11     7     8   ar
    12     8     9   ar
    13     9    10   ar
    14    11    12    2
    15    11    13   am
    16    14    15    2
    17    14    16   am
