@<TRIPOS>MOLECULE
34712_ChemDiv_8015-6862
 12 12 0 0 0
SMALL
GASTEIGER
Energy = 0

@<TRIPOS>ATOM
      1 C           0.0130   -0.2460    0.0000 C.ar    1  LIG1        0.1503
      2 C          -0.8580    0.2670    0.0000 C.ar    1  LIG1        0.1686
      3 N          -1.7250   -0.2460    0.0000 N.ar    1  LIG1       -0.2061
      4 C          -1.7250   -1.2500    0.0000 C.ar    1  LIG1        0.2010
      5 N          -0.8580   -1.7420    0.0000 N.ar    1  LIG1       -0.2109
      6 C           0.0130   -1.2500    0.0000 C.ar    1  LIG1        0.1595
      7 CL          0.8790   -1.7420    0.0000 Cl      1  LIG1       -0.0597
      8 N          -0.8580    1.2580    0.0000 N.pl3   1  LIG1       -0.2163
      9 C           0.0040    1.7460    0.0000 C.3     1  LIG1        0.1493
     10 C           0.8540    1.2330    0.0000 C.3     1  LIG1        0.2054
     11 O           1.7210    1.7080    0.0000 O.3     1  LIG1       -0.2184
     12 N           0.8790    0.2670    0.0000 N.pl3   1  LIG1       -0.1226
@<TRIPOS>BOND
     1     1     2   ar
     2     1     6   ar
     3     1    12    1
     4     2     3   ar
     5     2     8    1
     6     3     4   ar
     7     4     5   ar
     8     5     6   ar
     9     6     7    1
    10     8     9    1
    11     9    10    1
    12    10    11    1
