@<TRIPOS>MOLECULE
34713_ChemDiv_8015-3221
 18 21 0 0 0
SMALL
GASTEIGER
Energy = 0

@<TRIPOS>ATOM
      1 N           0.2630    0.0040    0.0000 N.ar    1  LIG1       -0.2535
      2 C           0.2630    1.0000    0.0000 C.ar    1  LIG1        0.1816
      3 N          -0.6080    1.5040    0.0000 N.ar    1  LIG1       -0.2218
      4 C          -1.4790    1.0000    0.0000 C.ar    1  LIG1        0.0880
      5 C          -1.4790    0.0040    0.0000 C.ar    1  LIG1        0.0742
      6 C          -0.6080   -0.4960    0.0000 C.ar    1  LIG1        0.2676
      7 O          -0.6080   -1.5000    0.0000 O.2     1  LIG1       -0.2665
      8 C          -2.3460   -0.4960    0.0000 C.ar    1  LIG1        0.0063
      9 C          -3.2210    0.0040    0.0000 C.ar    1  LIG1        0.0003
     10 C          -3.2210    1.0000    0.0000 C.ar    1  LIG1        0.0015
     11 C          -2.3460    1.5040    0.0000 C.ar    1  LIG1        0.0193
     12 S           1.2080    1.3080    0.0000 S.2     1  LIG1       -0.0485
     13 C           1.7880    0.5040    0.0000 C.ar    1  LIG1        0.0485
     14 C           1.2080   -0.3000    0.0000 C.ar    1  LIG1        0.0747
     15 C           1.6380   -1.2210    0.0000 C.ar    1  LIG1        0.0182
     16 C           2.6210   -1.3040    0.0000 C.ar    1  LIG1        0.0015
     17 C           3.2170   -0.4960    0.0000 C.ar    1  LIG1        0.0006
     18 C           2.7880    0.3920    0.0000 C.ar    1  LIG1        0.0080
@<TRIPOS>BOND
     1     1     2   ar
     2     1     6   ar
     3     1    14   ar
     4     2     3   ar
     5     2    12   ar
     6     3     4   ar
     7     4     5   ar
     8     4    11   ar
     9     5     6   ar
    10     5     8   ar
    11     6     7    2
    12     8     9   ar
    13     9    10   ar
    14    10    11   ar
    15    12    13   ar
    16    13    14   ar
    17    13    18   ar
    18    14    15   ar
    19    15    16   ar
    20    16    17   ar
    21    17    18   ar
