@<TRIPOS>MOLECULE
34716_ChemDiv_8015-6998
 27 30 0 0 0
SMALL
GASTEIGER
Energy = 0

@<TRIPOS>ATOM
      1 C          -0.0210    0.2210    0.0000 C.ar    1  LIG1        0.0901
      2 C          -0.0210   -0.7830    0.0000 C.ar    1  LIG1        0.0122
      3 C          -0.8710   -1.2830    0.0000 C.ar    1  LIG1        0.0192
      4 C          -1.7330   -0.7830    0.0000 C.ar    1  LIG1        0.0846
      5 N          -1.7330    0.2210    0.0000 N.ar    1  LIG1       -0.2074
      6 C          -0.8710    0.7250    0.0000 C.ar    1  LIG1        0.2853
      7 O          -0.8710    1.7210    0.0000 O.2     1  LIG1       -0.2646
      8 C          -2.6000   -1.2830    0.0000 C.ar    1  LIG1        0.0201
      9 C          -2.6000   -2.2830    0.0000 C.ar    1  LIG1        0.0129
     10 C          -1.7330   -2.7790    0.0000 C.ar    1  LIG1        0.0578
     11 C          -0.8710   -2.2830    0.0000 C.ar    1  LIG1        0.0129
     12 CL         -1.7330   -3.7670    0.0000 Cl      1  LIG1       -0.0822
     13 C           0.8710   -1.2830    0.0000 C.ar    1  LIG1        0.0007
     14 C           1.7330   -0.7830    0.0000 C.ar    1  LIG1        0.0000
     15 C           2.5830   -1.2830    0.0000 C.ar    1  LIG1        0.0000
     16 C           2.5830   -2.2830    0.0000 C.ar    1  LIG1        0.0000
     17 C           1.7330   -2.7790    0.0000 C.ar    1  LIG1        0.0000
     18 C           0.8710   -2.2830    0.0000 C.ar    1  LIG1        0.0000
     19 S           0.8920    0.7460    0.0000 S.3     1  LIG1       -0.0439
     20 C           0.8920    1.7580    0.0000 C.ar    1  LIG1        0.1937
     21 N           1.7460    2.2460    0.0000 N.ar    1  LIG1       -0.2253
     22 C           1.7460    3.2500    0.0000 C.ar    1  LIG1        0.0627
     23 C           0.8920    3.7460    0.0000 C.ar    1  LIG1        0.0295
     24 C           0.0080    3.2500    0.0000 C.ar    1  LIG1        0.0627
     25 N           0.0080    2.2460    0.0000 N.ar    1  LIG1       -0.2253
     26 C          -0.8500    3.7580    0.0000 C.3     1  LIG1        0.0522
     27 C           2.5960    3.7710    0.0000 C.3     1  LIG1        0.0522
@<TRIPOS>BOND
     1     1     2   ar
     2     1     6   ar
     3     1    19    1
     4     2     3   ar
     5     2    13    1
     6     3     4   ar
     7     3    11   ar
     8     4     5   ar
     9     4     8   ar
    10     5     6   ar
    11     6     7    2
    12     8     9   ar
    13     9    10   ar
    14    10    11   ar
    15    10    12    1
    16    13    14   ar
    17    13    18   ar
    18    14    15   ar
    19    15    16   ar
    20    16    17   ar
    21    17    18   ar
    22    19    20    1
    23    20    21   ar
    24    20    25   ar
    25    21    22   ar
    26    22    23   ar
    27    22    27    1
    28    23    24   ar
    29    24    25   ar
    30    24    26    1
