@<TRIPOS>MOLECULE
34719_ChemDiv_C796-0510
 23 25 0 0 0
SMALL
GASTEIGER
Energy = 0

@<TRIPOS>ATOM
      1 N          -2.4670   -0.6580    0.0000 N.ar    1  LIG1       -0.2489
      2 C          -2.1580   -1.6040    0.0000 C.ar    1  LIG1        0.1815
      3 N          -2.8290   -2.3380    0.0000 N.ar    1  LIG1       -0.2262
      4 C          -3.7960   -2.1250    0.0000 C.ar    1  LIG1        0.0662
      5 C          -4.1130   -1.1880    0.0000 C.ar    1  LIG1        0.0759
      6 C          -3.4460   -0.4460    0.0000 C.ar    1  LIG1        0.2676
      7 O          -3.7460    0.5130    0.0000 O.2     1  LIG1       -0.2665
      8 C          -4.4630   -2.8830    0.0000 C.3     1  LIG1        0.0523
      9 S          -1.1630   -1.6040    0.0000 S.2     1  LIG1       -0.0478
     10 C          -0.8540   -0.6580    0.0000 C.ar    1  LIG1        0.0606
     11 C          -1.6460   -0.0670    0.0000 C.ar    1  LIG1        0.1301
     12 C          -1.6420    0.9330    0.0000 C.2     1  LIG1        0.2819
     13 N          -0.7710    1.4170    0.0000 N.am    1  LIG1       -0.1955
     14 C           0.0960    0.9080    0.0000 C.3     1  LIG1        0.1418
     15 C           0.9710    1.4040    0.0000 C.ar    1  LIG1       -0.0006
     16 C           1.8250    0.8880    0.0000 C.ar    1  LIG1       -0.0029
     17 C           2.7040    1.3790    0.0000 C.ar    1  LIG1       -0.0045
     18 C           2.7170    2.3750    0.0000 C.ar    1  LIG1       -0.0222
     19 C           1.8540    2.8880    0.0000 C.ar    1  LIG1       -0.0045
     20 C           0.9880    2.4000    0.0000 C.ar    1  LIG1       -0.0029
     21 C           3.5960    2.8880    0.0000 C.3     1  LIG1        0.0264
     22 C           4.4580    2.3710    0.0000 C.3     1  LIG1        0.0050
     23 O          -2.5040    1.4380    0.0000 O.2     1  LIG1       -0.2667
@<TRIPOS>BOND
     1     1     2   ar
     2     1     6   ar
     3     1    11   ar
     4     2     3   ar
     5     2     9   ar
     6     3     4   ar
     7     4     5   ar
     8     4     8    1
     9     5     6   ar
    10     6     7    2
    11     9    10   ar
    12    10    11   ar
    13    11    12    1
    14    12    13   am
    15    12    23    2
    16    13    14    1
    17    14    15    1
    18    15    16   ar
    19    15    20   ar
    20    16    17   ar
    21    17    18   ar
    22    18    19   ar
    23    18    21    1
    24    19    20   ar
    25    21    22    1
