@<TRIPOS>MOLECULE
34724_ChemDiv_8016-0649
 22 25 0 0 0
SMALL
GASTEIGER
Energy = 0

@<TRIPOS>ATOM
      1 S          -1.7750    0.1080    0.0000 S.O2    1  LIG1        0.0766
      2 N          -0.7920   -0.0040    0.0000 N.pl3   1  LIG1       -0.1902
      3 C          -0.5670   -0.9630    0.0000 C.ar    1  LIG1        0.0701
      4 C          -1.4420   -1.4670    0.0000 C.ar    1  LIG1        0.0338
      5 C          -2.2540   -0.8920    0.0000 C.ar    1  LIG1        0.1266
      6 C          -3.1170   -1.3670    0.0000 C.ar    1  LIG1        0.0202
      7 C          -3.1330   -2.4170    0.0000 C.ar    1  LIG1        0.0014
      8 C          -2.2920   -2.9540    0.0000 C.ar    1  LIG1        0.0001
      9 C          -1.4420   -2.4750    0.0000 C.ar    1  LIG1        0.0025
     10 C          -0.5670   -2.9540    0.0000 C.ar    1  LIG1        0.0001
     11 C           0.2790   -2.4500    0.0000 C.ar    1  LIG1        0.0013
     12 C           0.2790   -1.4670    0.0000 C.ar    1  LIG1        0.0162
     13 C          -0.1170    0.7460    0.0000 C.3     1  LIG1        0.1205
     14 C           0.8540    0.5380    0.0000 C.3     1  LIG1        0.0497
     15 C           1.5040    1.2710    0.0000 C.ar    1  LIG1       -0.0204
     16 C           2.4750    1.0710    0.0000 C.ar    1  LIG1       -0.0042
     17 C           3.1290    1.8000    0.0000 C.ar    1  LIG1       -0.0003
     18 C           2.8130    2.7580    0.0000 C.ar    1  LIG1       -0.0000
     19 C           1.8380    2.9580    0.0000 C.ar    1  LIG1       -0.0003
     20 C           1.1880    2.2040    0.0000 C.ar    1  LIG1       -0.0042
     21 O          -2.5460    0.7460    0.0000 O.2     1  LIG1       -0.1497
     22 O          -1.1420    0.8960    0.0000 O.2     1  LIG1       -0.1497
@<TRIPOS>BOND
     1     1     2    1
     2     1     5    1
     3     1    21    2
     4     1    22    2
     5     2     3    1
     6     2    13    1
     7     3     4   ar
     8     3    12   ar
     9     4     5   ar
    10     4     9   ar
    11     5     6   ar
    12     6     7   ar
    13     7     8   ar
    14     8     9   ar
    15     9    10   ar
    16    10    11   ar
    17    11    12   ar
    18    13    14    1
    19    14    15    1
    20    15    16   ar
    21    15    20   ar
    22    16    17   ar
    23    17    18   ar
    24    18    19   ar
    25    19    20   ar
