@<TRIPOS>MOLECULE
34721_ChemDiv_8015-0504
 23 25 0 0 0
SMALL
GASTEIGER
Energy = 0

@<TRIPOS>ATOM
      1 C          -2.0420   -0.7790    0.0000 C.ar    1  LIG1        0.2066
      2 N          -2.0420    0.1830    0.0000 N.ar    1  LIG1       -0.1292
      3 N          -0.3710    0.1830    0.0000 N.ar    1  LIG1       -0.1430
      4 N          -0.3710   -0.7790    0.0000 N.ar    1  LIG1       -0.0447
      5 N          -1.2080   -1.2670    0.0000 N.ar    1  LIG1       -0.1077
      6 C           0.3130    0.8710    0.0000 C.3     1  LIG1        0.2165
      7 C           1.2460    0.6170    0.0000 C.ar    1  LIG1        0.1715
      8 N           1.9210    1.3000    0.0000 N.ar    1  LIG1       -0.1965
      9 C           2.8630    1.0460    0.0000 C.ar    1  LIG1        0.2238
     10 N           3.1080    0.1040    0.0000 N.ar    1  LIG1       -0.1782
     11 C           2.4170   -0.5790    0.0000 C.ar    1  LIG1        0.2601
     12 N           1.4880   -0.3250    0.0000 N.ar    1  LIG1       -0.1939
     13 N           2.6710   -1.5460    0.0000 N.pl3   1  LIG1       -0.0859
     14 N           3.5710    1.7500    0.0000 N.pl3   1  LIG1       -0.2746
     15 C           4.5420    1.4880    0.0000 C.3     1  LIG1        0.1151
     16 C           3.3170    2.7170    0.0000 C.3     1  LIG1        0.1151
     17 C          -2.8830   -1.2670    0.0000 C.ar    1  LIG1        0.0499
     18 C          -3.7130   -0.7790    0.0000 C.ar    1  LIG1        0.0607
     19 CL         -3.7130    0.1830    0.0000 Cl      1  LIG1       -0.0821
     20 C          -4.5460   -1.2670    0.0000 C.ar    1  LIG1        0.0115
     21 C          -4.5460   -2.2210    0.0000 C.ar    1  LIG1        0.0009
     22 C          -3.7130   -2.7130    0.0000 C.ar    1  LIG1        0.0002
     23 C          -2.8830   -2.2210    0.0000 C.ar    1  LIG1        0.0040
@<TRIPOS>BOND
     1     1     2   ar
     2     1     5   ar
     3     1    17    1
     4     2     3   ar
     5     3     4   ar
     6     3     6    1
     7     4     5   ar
     8     6     7    1
     9     7     8   ar
    10     7    12   ar
    11     8     9   ar
    12     9    10   ar
    13     9    14    1
    14    10    11   ar
    15    11    12   ar
    16    11    13    1
    17    14    15    1
    18    14    16    1
    19    17    18   ar
    20    17    23   ar
    21    18    19    1
    22    18    20   ar
    23    20    21   ar
    24    21    22   ar
    25    22    23   ar
