@<TRIPOS>MOLECULE
34720_ChemDiv_8015-7057
 23 27 0 0 0
SMALL
GASTEIGER
Energy = 0

@<TRIPOS>ATOM
      1 C          -0.8420   -0.1790    0.0000 C.ar    1  LIG1        0.2335
      2 C          -1.8540   -0.1790    0.0000 C.ar    1  LIG1        0.2260
      3 N          -2.1670   -1.1420    0.0000 N.ar    1  LIG1       -0.0286
      4 O          -1.3420   -1.7380    0.0000 O.2     1  LIG1       -0.2387
      5 N          -0.5290   -1.1420    0.0000 N.ar    1  LIG1       -0.0296
      6 N          -2.3540    0.6960    0.0000 N.ar    1  LIG1       -0.2839
      7 C          -1.9460    1.6170    0.0000 C.ar    1  LIG1        0.0817
      8 C          -2.7040    2.2920    0.0000 C.ar    1  LIG1        0.0206
      9 C          -3.5710    1.7920    0.0000 C.ar    1  LIG1        0.0206
     10 C          -3.3670    0.7960    0.0000 C.ar    1  LIG1        0.0817
     11 N          -0.3420    0.6960    0.0000 N.am    1  LIG1       -0.1546
     12 C           0.6670    0.6960    0.0000 C.2     1  LIG1        0.2461
     13 C           1.1750   -0.1790    0.0000 C.3     1  LIG1        0.0709
     14 C           0.6670   -1.0500    0.0000 C.3     1  LIG1        0.0087
     15 C           1.1750   -1.9290    0.0000 C.3     1  LIG1        0.0005
     16 C           1.8880   -1.9880    0.0000 C.3     1  LIG1        0.0000
     17 C           2.7250   -1.1040    0.0000 C.3     1  LIG1        0.0005
     18 C           2.1880   -0.1790    0.0000 C.3     1  LIG1        0.0087
     19 C           3.5670   -1.4000    0.0000 C.3     1  LIG1        0.0000
     20 C           2.6040   -1.6420    0.0000 C.3     1  LIG1        0.0005
     21 C           2.0540   -0.6790    0.0000 C.3     1  LIG1        0.0087
     22 C           2.0290   -2.2880    0.0000 C.3     1  LIG1        0.0000
     23 O           1.1750    1.5670    0.0000 O.2     1  LIG1       -0.2730
@<TRIPOS>BOND
     1     1     2   ar
     2     1     5   ar
     3     1    11    1
     4     2     3   ar
     5     2     6    1
     6     3     4   ar
     7     4     5   ar
     8     6     7   ar
     9     6    10   ar
    10     7     8   ar
    11     8     9   ar
    12     9    10   ar
    13    11    12   am
    14    12    13    1
    15    12    23    2
    16    13    14    1
    17    13    18    1
    18    13    21    1
    19    14    15    1
    20    15    16    1
    21    15    22    1
    22    16    17    1
    23    17    18    1
    24    17    19    1
    25    19    20    1
    26    20    21    1
    27    20    22    1
