@<TRIPOS>MOLECULE
34725_ChemDiv_8015-0581
 21 23 0 0 0
SMALL
GASTEIGER
Energy = 0

@<TRIPOS>ATOM
      1 C           0.8540   -1.0750    0.0000 C.ar    1  LIG1        0.2430
      2 N          -0.0170   -1.5750    0.0000 N.ar    1  LIG1       -0.1754
      3 C          -0.8790   -1.0750    0.0000 C.ar    1  LIG1        0.2430
      4 N          -0.8790   -0.0580    0.0000 N.ar    1  LIG1       -0.1768
      5 C          -0.0170    0.4380    0.0000 C.ar    1  LIG1        0.2415
      6 N           0.8540   -0.0580    0.0000 N.ar    1  LIG1       -0.1768
      7 N          -0.0290    1.4380    0.0000 N.pl3   1  LIG1       -0.2071
      8 C          -0.8880    1.9290    0.0000 C.3     1  LIG1        0.0790
      9 C          -0.4040    2.8000    0.0000 C.3     1  LIG1        0.0217
     10 C          -1.7540    2.4170    0.0000 C.3     1  LIG1        0.0217
     11 C          -1.3790    1.0540    0.0000 C.3     1  LIG1        0.0217
     12 N          -1.7380   -1.5830    0.0000 N.ar    1  LIG1       -0.2557
     13 C          -2.6750   -1.2080    0.0000 C.ar    1  LIG1        0.1851
     14 N          -3.3040   -1.9670    0.0000 N.ar    1  LIG1       -0.2219
     15 C          -2.7710   -2.7960    0.0000 C.ar    1  LIG1        0.1197
     16 C          -1.8000   -2.5630    0.0000 C.ar    1  LIG1        0.1050
     17 N           1.7210   -1.5830    0.0000 N.ar    1  LIG1       -0.2557
     18 C           2.6210   -1.1710    0.0000 C.ar    1  LIG1        0.1851
     19 N           3.3000   -1.9210    0.0000 N.ar    1  LIG1       -0.2219
     20 C           2.8170   -2.7880    0.0000 C.ar    1  LIG1        0.1197
     21 C           1.8380   -2.6000    0.0000 C.ar    1  LIG1        0.1050
@<TRIPOS>BOND
     1     1     2   ar
     2     1     6   ar
     3     1    17    1
     4     2     3   ar
     5     3     4   ar
     6     3    12    1
     7     4     5   ar
     8     5     6   ar
     9     5     7    1
    10     7     8    1
    11     8     9    1
    12     8    10    1
    13     8    11    1
    14    12    13   ar
    15    12    16   ar
    16    13    14   ar
    17    14    15   ar
    18    15    16   ar
    19    17    18   ar
    20    17    21   ar
    21    18    19   ar
    22    19    20   ar
    23    20    21   ar
