@<TRIPOS>MOLECULE
34727_ChemDiv_8015-0585
 18 21 0 0 0
SMALL
GASTEIGER
Energy = 0

@<TRIPOS>ATOM
      1 N           1.3630   -1.2380    0.0000 N.ar    1  LIG1       -0.1073
      2 N           1.3630   -0.2710    0.0000 N.ar    1  LIG1       -0.1270
      3 C           0.4880    0.2500    0.0000 C.ar    1  LIG1        0.1705
      4 N           0.4880    1.2420    0.0000 N.ar    1  LIG1       -0.2698
      5 C           1.3630    1.7380    0.0000 C.ar    1  LIG1        0.1840
      6 N           1.1460    2.7080    0.0000 N.ar    1  LIG1       -0.2220
      7 C           0.1580    2.8290    0.0000 C.ar    1  LIG1        0.1197
      8 C          -0.2580    1.9130    0.0000 C.ar    1  LIG1        0.1036
      9 C          -0.3710   -0.2460    0.0000 C.ar    1  LIG1        0.0393
     10 C          -0.3710   -1.2630    0.0000 C.ar    1  LIG1        0.0424
     11 C           0.4880   -1.7580    0.0000 C.ar    1  LIG1        0.2079
     12 N           0.7040   -2.7250    0.0000 N.ar    1  LIG1       -0.1060
     13 N           1.6920   -2.8250    0.0000 N.ar    1  LIG1       -0.0210
     14 N           2.1080   -1.9080    0.0000 N.ar    1  LIG1       -0.0210
     15 C          -1.2330   -1.7580    0.0000 C.ar    1  LIG1        0.0033
     16 C          -2.1130   -1.2380    0.0000 C.ar    1  LIG1        0.0001
     17 C          -2.1130   -0.2710    0.0000 C.ar    1  LIG1        0.0001
     18 C          -1.2330    0.2500    0.0000 C.ar    1  LIG1        0.0032
@<TRIPOS>BOND
     1     1     2   ar
     2     1    11   ar
     3     1    14   ar
     4     2     3   ar
     5     3     4    1
     6     3     9   ar
     7     4     5   ar
     8     4     8   ar
     9     5     6   ar
    10     6     7   ar
    11     7     8   ar
    12     9    10   ar
    13     9    18   ar
    14    10    11   ar
    15    10    15   ar
    16    11    12   ar
    17    12    13   ar
    18    13    14   ar
    19    15    16   ar
    20    16    17   ar
    21    17    18   ar
