@<TRIPOS>MOLECULE
34732_ChemDiv_8016-0914
 23 25 0 0 0
SMALL
GASTEIGER
Energy = 0

@<TRIPOS>ATOM
      1 C           0.9170   -1.1040    0.0000 C.ar    1  LIG1        0.2000
      2 N           0.2750   -0.3250    0.0000 N.ar    1  LIG1       -0.1292
      3 N           0.8170    0.5210    0.0000 N.ar    1  LIG1       -0.1465
      4 N           1.7920    0.2630    0.0000 N.ar    1  LIG1       -0.1402
      5 C           1.8500   -0.7380    0.0000 C.ar    1  LIG1        0.1941
      6 C           2.6920   -1.2750    0.0000 C.2     1  LIG1        0.3066
      7 O           2.6420   -2.2750    0.0000 O.2     1  LIG1       -0.2648
      8 N           3.5790   -0.8170    0.0000 N.am    1  LIG1       -0.0822
      9 C           0.4540    1.4500    0.0000 C.ar    1  LIG1        0.1029
     10 C          -0.5290    1.5960    0.0000 C.ar    1  LIG1        0.0209
     11 C          -0.8920    2.5330    0.0000 C.ar    1  LIG1        0.0016
     12 C          -0.2540    3.3080    0.0000 C.ar    1  LIG1        0.0001
     13 C           0.7250    3.1580    0.0000 C.ar    1  LIG1        0.0016
     14 C           1.0790    2.2330    0.0000 C.ar    1  LIG1        0.0209
     15 N           0.6630   -2.0790    0.0000 N.am    1  LIG1       -0.1520
     16 C          -0.2920   -2.3420    0.0000 C.2     1  LIG1        0.3047
     17 C          -1.0040   -1.6380    0.0000 C.3     1  LIG1        0.2269
     18 N          -1.9670   -1.9040    0.0000 N.4     1  LIG1        0.3844
     19 C          -2.7540   -1.2790    0.0000 C.3     1  LIG1        0.1395
     20 C          -3.5830   -1.8250    0.0000 C.3     1  LIG1        0.0689
     21 C          -3.3170   -2.7880    0.0000 C.3     1  LIG1        0.0689
     22 C          -2.3210   -2.8420    0.0000 C.3     1  LIG1        0.1395
     23 O          -0.5460   -3.3040    0.0000 O.2     1  LIG1       -0.2665
@<TRIPOS>BOND
     1     1     2   ar
     2     1     5   ar
     3     1    15    1
     4     2     3   ar
     5     3     4   ar
     6     3     9    1
     7     4     5   ar
     8     5     6    1
     9     6     7    2
    10     6     8   am
    11     9    10   ar
    12     9    14   ar
    13    10    11   ar
    14    11    12   ar
    15    12    13   ar
    16    13    14   ar
    17    15    16   am
    18    16    17    1
    19    16    23    2
    20    17    18    1
    21    18    19    1
    22    18    22    1
    23    19    20    1
    24    20    21    1
    25    21    22    1
