@<TRIPOS>MOLECULE
34737_ChemDiv_C797-0577
 19 21 0 0 0
SMALL
GASTEIGER
Energy = 0

@<TRIPOS>ATOM
      1 C           0.8670   -1.2750    0.0000 C.ar    1  LIG1        0.1825
      2 N           0.2750   -0.4580    0.0000 N.ar    1  LIG1       -0.2803
      3 C           0.6830    0.4500    0.0000 C.ar    1  LIG1        0.1467
      4 C           1.6830    0.5540    0.0000 C.ar    1  LIG1        0.0867
      5 C           2.2750   -0.2630    0.0000 C.ar    1  LIG1        0.2827
      6 N           1.8580   -1.1710    0.0000 N.ar    1  LIG1       -0.1838
      7 O           3.2670   -0.1580    0.0000 O.2     1  LIG1       -0.2651
      8 C           0.0920    1.2670    0.0000 C.2     1  LIG1        0.3579
      9 O          -0.9040    1.1580    0.0000 O.2     1  LIG1       -0.2432
     10 O           0.4960    2.1750    0.0000 O.3     1  LIG1       -0.4403
     11 C           1.4880    2.2790    0.0000 C.3     1  LIG1        0.2560
     12 C          -0.6790   -0.7790    0.0000 C.ar    1  LIG1        0.0720
     13 C          -0.6790   -1.7750    0.0000 C.ar    1  LIG1        0.0481
     14 S           0.2750   -2.0790    0.0000 S.2     1  LIG1       -0.0485
     15 C          -1.5420   -2.2750    0.0000 C.ar    1  LIG1        0.0038
     16 C          -2.4040   -1.7750    0.0000 C.ar    1  LIG1       -0.0213
     17 C          -2.4040   -0.7790    0.0000 C.ar    1  LIG1       -0.0027
     18 C          -1.5420   -0.2790    0.0000 C.ar    1  LIG1        0.0178
     19 C          -3.2710   -2.2750    0.0000 C.3     1  LIG1        0.0310
@<TRIPOS>BOND
     1     1     2   ar
     2     1     6   ar
     3     1    14   ar
     4     2     3   ar
     5     2    12   ar
     6     3     4   ar
     7     3     8    1
     8     4     5   ar
     9     5     6   ar
    10     5     7    2
    11     8     9    2
    12     8    10    1
    13    10    11    1
    14    12    13   ar
    15    12    18   ar
    16    13    14   ar
    17    13    15   ar
    18    15    16   ar
    19    16    17   ar
    20    16    19    1
    21    17    18   ar
