@<TRIPOS>MOLECULE
34730_ChemDiv_8016-0866
 21 23 0 0 0
SMALL
GASTEIGER
Energy = 0

@<TRIPOS>ATOM
      1 C          -3.2040    0.1040    0.0000 C.ar    1  LIG1        0.1718
      2 N          -3.5170   -0.8420    0.0000 N.ar    1  LIG1       -0.3033
      3 C          -4.5170   -0.8420    0.0000 C.ar    1  LIG1        0.0984
      4 C          -4.8170    0.1040    0.0000 C.ar    1  LIG1        0.1197
      5 N          -4.0130    0.6960    0.0000 N.ar    1  LIG1       -0.2195
      6 C          -2.9210   -1.6540    0.0000 C.3     1  LIG1        0.1325
      7 S          -2.2420    0.4170    0.0000 S.3     1  LIG1       -0.0674
      8 C          -1.5420   -0.2880    0.0000 C.3     1  LIG1        0.1519
      9 C          -0.5710   -0.0210    0.0000 C.2     1  LIG1        0.2570
     10 N           0.1420   -0.7250    0.0000 N.am    1  LIG1       -0.1785
     11 C           1.1040   -0.4630    0.0000 C.ar    1  LIG1        0.0732
     12 C           1.3540    0.5040    0.0000 C.ar    1  LIG1        0.0161
     13 C           2.3170    0.7670    0.0000 C.ar    1  LIG1        0.0288
     14 C           3.0290    0.0670    0.0000 C.ar    1  LIG1        0.0753
     15 C           3.9170    0.5290    0.0000 C.2     1  LIG1        0.3413
     16 O           3.7540    1.5040    0.0000 O.3     1  LIG1       -0.4404
     17 C           2.7670    1.6580    0.0000 C.3     1  LIG1        0.2356
     18 O           4.8130    0.0790    0.0000 O.2     1  LIG1       -0.2449
     19 C           2.7750   -0.9000    0.0000 C.ar    1  LIG1        0.0076
     20 C           1.8170   -1.1630    0.0000 C.ar    1  LIG1        0.0168
     21 O          -0.3170    0.9460    0.0000 O.2     1  LIG1       -0.2720
@<TRIPOS>BOND
     1     1     2   ar
     2     1     5   ar
     3     1     7    1
     4     2     3   ar
     5     2     6    1
     6     3     4   ar
     7     4     5   ar
     8     7     8    1
     9     8     9    1
    10     9    10   am
    11     9    21    2
    12    10    11    1
    13    11    12   ar
    14    11    20   ar
    15    12    13   ar
    16    13    14   ar
    17    13    17    1
    18    14    15    1
    19    14    19   ar
    20    15    16    1
    21    15    18    2
    22    16    17    1
    23    19    20   ar
