@<TRIPOS>MOLECULE
34739_ChemDiv_D082-0125
 37 40 0 0 0
SMALL
GASTEIGER
Energy = 0

@<TRIPOS>ATOM
      1 C           0.2130   -1.1330    0.0000 C.ar    1  LIG1        0.1343
      2 N           1.2130   -1.1500    0.0000 N.ar    1  LIG1       -0.2488
      3 C           1.5170   -2.1040    0.0000 C.ar    1  LIG1        0.1816
      4 S           0.6960   -2.6790    0.0000 S.2     1  LIG1       -0.0437
      5 C          -0.1040   -2.0880    0.0000 C.ar    1  LIG1        0.1082
      6 C          -1.1040   -2.0880    0.0000 C.2     1  LIG1        0.2767
      7 N          -1.6040   -2.9630    0.0000 N.am    1  LIG1       -0.1750
      8 C          -2.6040   -2.9500    0.0000 C.ar    1  LIG1        0.0737
      9 C          -3.1040   -2.0880    0.0000 C.ar    1  LIG1        0.0166
     10 C          -4.1040   -2.0830    0.0000 C.ar    1  LIG1        0.0013
     11 C          -4.6040   -2.9500    0.0000 C.ar    1  LIG1        0.0001
     12 C          -4.1040   -3.8170    0.0000 C.ar    1  LIG1        0.0013
     13 C          -3.1040   -3.8170    0.0000 C.ar    1  LIG1        0.0166
     14 O          -1.6040   -1.2250    0.0000 O.2     1  LIG1       -0.2674
     15 N           2.4830   -2.3170    0.0000 N.ar    1  LIG1       -0.2262
     16 C           3.1670   -1.5750    0.0000 C.ar    1  LIG1        0.0658
     17 C           2.8500   -0.6210    0.0000 C.ar    1  LIG1        0.0759
     18 C           1.8790   -0.4080    0.0000 C.ar    1  LIG1        0.2676
     19 O           1.5750    0.5460    0.0000 O.2     1  LIG1       -0.2665
     20 C           4.1380   -1.7790    0.0000 C.3     1  LIG1        0.0460
     21 C           4.4500   -2.7250    0.0000 C.3     1  LIG1        0.0063
     22 C           5.4250   -2.9380    0.0000 C.3     1  LIG1        0.0004
     23 C          -0.0580   -0.1670    0.0000 C.2     1  LIG1        0.2860
     24 N          -0.9250    0.3330    0.0000 N.am    1  LIG1       -0.1742
     25 C          -1.9250    0.3330    0.0000 C.ar    1  LIG1        0.0737
     26 C          -2.4130    1.2040    0.0000 C.ar    1  LIG1        0.0168
     27 C          -3.4130    1.2130    0.0000 C.ar    1  LIG1        0.0078
     28 C          -3.9210    0.3500    0.0000 C.ar    1  LIG1        0.0757
     29 C          -4.9210    0.3500    0.0000 C.2     1  LIG1        0.3412
     30 O          -5.4290   -0.5130    0.0000 O.2     1  LIG1       -0.2449
     31 O          -5.4210    1.2210    0.0000 O.3     1  LIG1       -0.4454
     32 C          -4.9130    2.0920    0.0000 C.3     1  LIG1        0.2088
     33 C          -5.4080    2.9540    0.0000 C.3     1  LIG1        0.0475
     34 C          -4.9080    3.8210    0.0000 C.3     1  LIG1        0.0040
     35 C          -3.4250   -0.5290    0.0000 C.ar    1  LIG1        0.0078
     36 C          -2.4250   -0.5290    0.0000 C.ar    1  LIG1        0.0168
     37 O           0.4420    0.7000    0.0000 O.2     1  LIG1       -0.2664
@<TRIPOS>BOND
     1     1     2   ar
     2     1     5   ar
     3     1    23    1
     4     2     3   ar
     5     2    18   ar
     6     3     4   ar
     7     3    15   ar
     8     4     5   ar
     9     5     6    1
    10     6     7   am
    11     6    14    2
    12     7     8    1
    13     8     9   ar
    14     8    13   ar
    15     9    10   ar
    16    10    11   ar
    17    11    12   ar
    18    12    13   ar
    19    15    16   ar
    20    16    17   ar
    21    16    20    1
    22    17    18   ar
    23    18    19    2
    24    20    21    1
    25    21    22    1
    26    23    24   am
    27    23    37    2
    28    24    25    1
    29    25    26   ar
    30    25    36   ar
    31    26    27   ar
    32    27    28   ar
    33    28    29    1
    34    28    35   ar
    35    29    30    2
    36    29    31    1
    37    31    32    1
    38    32    33    1
    39    33    34    1
    40    35    36   ar
