@<TRIPOS>MOLECULE
34745_ChemDiv_E559-0078
 21 23 0 0 0
SMALL
GASTEIGER
Energy = 0

@<TRIPOS>ATOM
      1 S           0.4380    0.4960    0.0000 S.O2    1  LIG1       -0.0520
      2 C          -0.4290   -0.0040    0.0000 C.ar    1  LIG1        0.1590
      3 C          -1.2960    0.5080    0.0000 C.ar    1  LIG1        0.2831
      4 N          -2.1630   -0.0040    0.0000 N.ar    1  LIG1       -0.2510
      5 C          -2.1540   -1.0040    0.0000 C.ar    1  LIG1        0.1814
      6 N          -1.2960   -1.4920    0.0000 N.ar    1  LIG1       -0.2250
      7 C          -0.4290   -1.0040    0.0000 C.ar    1  LIG1        0.0818
      8 C           0.4380   -1.5040    0.0000 C.3     1  LIG1        0.0537
      9 S          -3.1040   -1.3210    0.0000 S.2     1  LIG1       -0.0479
     10 C          -3.7040   -0.5080    0.0000 C.ar    1  LIG1        0.0574
     11 C          -3.1170    0.3040    0.0000 C.ar    1  LIG1        0.0919
     12 O          -1.2880    1.5080    0.0000 O.2     1  LIG1       -0.2652
     13 N           1.3040    1.0080    0.0000 N.pl3   1  LIG1       -0.5356
     14 C           2.0210    0.3130    0.0000 C.ar    1  LIG1       -0.1123
     15 C           1.7830   -0.6540    0.0000 C.ar    1  LIG1       -0.0238
     16 C           2.4960   -1.3580    0.0000 C.ar    1  LIG1       -0.0019
     17 C           3.4460   -1.0830    0.0000 C.ar    1  LIG1       -0.0001
     18 C           3.7000   -0.1210    0.0000 C.ar    1  LIG1       -0.0019
     19 C           2.9830    0.5830    0.0000 C.ar    1  LIG1       -0.0238
     20 O           0.4460    1.4960    0.0000 O.2     1  LIG1       -0.1840
     21 O           1.3040   -0.0080    0.0000 O.2     1  LIG1       -0.1840
@<TRIPOS>BOND
     1     1     2    1
     2     1    13    1
     3     1    20    2
     4     1    21    2
     5     2     3   ar
     6     2     7   ar
     7     3     4   ar
     8     3    12    2
     9     4     5   ar
    10     4    11   ar
    11     5     6   ar
    12     5     9   ar
    13     6     7   ar
    14     7     8    1
    15     9    10   ar
    16    10    11   ar
    17    13    14    1
    18    14    15   ar
    19    14    19   ar
    20    15    16   ar
    21    16    17   ar
    22    17    18   ar
    23    18    19   ar
