@<TRIPOS>MOLECULE
34742_ChemDiv_8015-7358
 29 32 0 0 0
SMALL
GASTEIGER
Energy = 0

@<TRIPOS>ATOM
      1 N          -4.3330   -0.7540    0.0000 N.ar    1  LIG1       -0.2467
      2 C          -4.3330   -1.7460    0.0000 C.ar    1  LIG1        0.3339
      3 N          -3.4710   -2.2460    0.0000 N.ar    1  LIG1       -0.2791
      4 C          -2.5960   -1.7460    0.0000 C.ar    1  LIG1        0.0686
      5 C          -2.5960   -0.7540    0.0000 C.ar    1  LIG1        0.0735
      6 C          -3.4710   -0.2540    0.0000 C.ar    1  LIG1        0.2657
      7 O          -3.4710    0.7500    0.0000 O.2     1  LIG1       -0.2668
      8 C          -1.7330   -0.2540    0.0000 C.ar    1  LIG1        0.0261
      9 C          -0.8670   -0.7540    0.0000 C.ar    1  LIG1        0.1224
     10 S          -0.0040   -0.2540    0.0000 S.O2    1  LIG1        0.0633
     11 N           0.8670    0.2500    0.0000 N.3     1  LIG1       -0.1555
     12 C           1.7330   -0.2540    0.0000 C.3     1  LIG1        0.0961
     13 C           2.5960    0.2500    0.0000 C.3     1  LIG1        0.0235
     14 C           2.5960    1.2580    0.0000 C.3     1  LIG1        0.0252
     15 C           1.7330    1.7500    0.0000 C.3     1  LIG1        0.0235
     16 C           0.8670    1.2580    0.0000 C.3     1  LIG1        0.0961
     17 C           3.4710    1.7500    0.0000 C.ar    1  LIG1       -0.0224
     18 C           3.4710    2.7500    0.0000 C.ar    1  LIG1       -0.0043
     19 C           4.3380    3.2500    0.0000 C.ar    1  LIG1       -0.0003
     20 C           5.2000    2.7500    0.0000 C.ar    1  LIG1       -0.0000
     21 C           5.2000    1.7500    0.0000 C.ar    1  LIG1       -0.0003
     22 C           4.3380    1.2580    0.0000 C.ar    1  LIG1       -0.0043
     23 O          -0.5040    0.6210    0.0000 O.2     1  LIG1       -0.1528
     24 O           0.4960   -1.1210    0.0000 O.2     1  LIG1       -0.1528
     25 C          -0.8670   -1.7460    0.0000 C.ar    1  LIG1        0.0214
     26 C          -1.7330   -2.2460    0.0000 C.ar    1  LIG1        0.0188
     27 C          -3.4710   -3.2460    0.0000 C.3     1  LIG1        0.1351
     28 O          -5.2040   -2.2460    0.0000 O.2     1  LIG1       -0.2462
     29 C          -5.2040   -0.2540    0.0000 C.3     1  LIG1        0.1382
@<TRIPOS>BOND
     1     1     2   ar
     2     1     6   ar
     3     1    29    1
     4     2     3   ar
     5     2    28    2
     6     3     4   ar
     7     3    27    1
     8     4     5   ar
     9     4    26   ar
    10     5     6   ar
    11     5     8   ar
    12     6     7    2
    13     8     9   ar
    14     9    10    1
    15     9    25   ar
    16    10    11    1
    17    10    23    2
    18    10    24    2
    19    11    12    1
    20    11    16    1
    21    12    13    1
    22    13    14    1
    23    14    15    1
    24    14    17    1
    25    15    16    1
    26    17    18   ar
    27    17    22   ar
    28    18    19   ar
    29    19    20   ar
    30    20    21   ar
    31    21    22   ar
    32    25    26   ar
