@<TRIPOS>MOLECULE
34743_ChemDiv_D082-0573
 35 38 0 0 0
SMALL
GASTEIGER
Energy = 0

@<TRIPOS>ATOM
      1 C           1.9420    0.1630    0.0000 C.ar    1  LIG1        0.1343
      2 N           2.9420    0.1500    0.0000 N.ar    1  LIG1       -0.2488
      3 C           3.2460   -0.8040    0.0000 C.ar    1  LIG1        0.1816
      4 S           2.4290   -1.3790    0.0000 S.2     1  LIG1       -0.0437
      5 C           1.6250   -0.7920    0.0000 C.ar    1  LIG1        0.1082
      6 C           0.6250   -0.7920    0.0000 C.2     1  LIG1        0.2767
      7 N           0.1250   -1.6540    0.0000 N.am    1  LIG1       -0.1750
      8 C          -0.8710   -1.6540    0.0000 C.ar    1  LIG1        0.0737
      9 C          -1.3710   -2.5170    0.0000 C.ar    1  LIG1        0.0168
     10 C          -2.3710   -2.5170    0.0000 C.ar    1  LIG1        0.0078
     11 C          -2.8710   -1.6500    0.0000 C.ar    1  LIG1        0.0757
     12 C          -3.8710   -1.6380    0.0000 C.2     1  LIG1        0.3412
     13 O          -4.3710   -0.7750    0.0000 O.2     1  LIG1       -0.2449
     14 O          -4.3710   -2.5130    0.0000 O.3     1  LIG1       -0.4454
     15 C          -5.3710   -2.5000    0.0000 C.3     1  LIG1        0.2089
     16 C          -5.8710   -3.3750    0.0000 C.3     1  LIG1        0.0513
     17 C          -2.3710   -0.7750    0.0000 C.ar    1  LIG1        0.0078
     18 C          -1.3710   -0.7830    0.0000 C.ar    1  LIG1        0.0168
     19 O           0.1250    0.0710    0.0000 O.2     1  LIG1       -0.2674
     20 N           4.2130   -1.0170    0.0000 N.ar    1  LIG1       -0.2262
     21 C           4.8920   -0.2750    0.0000 C.ar    1  LIG1        0.0662
     22 C           4.5790    0.6790    0.0000 C.ar    1  LIG1        0.0759
     23 C           3.6080    0.8920    0.0000 C.ar    1  LIG1        0.2676
     24 O           3.3040    1.8460    0.0000 O.2     1  LIG1       -0.2665
     25 C           5.8670   -0.4880    0.0000 C.3     1  LIG1        0.0523
     26 C           1.6710    1.1330    0.0000 C.2     1  LIG1        0.2860
     27 N           0.8080    1.6330    0.0000 N.am    1  LIG1       -0.1742
     28 C          -0.1920    1.6330    0.0000 C.ar    1  LIG1        0.0746
     29 C          -0.6790    2.5080    0.0000 C.ar    1  LIG1        0.0280
     30 C          -1.6790    2.5080    0.0000 C.ar    1  LIG1        0.0590
     31 CL         -2.1790    3.3790    0.0000 Cl      1  LIG1       -0.0822
     32 C          -2.1920    1.6460    0.0000 C.ar    1  LIG1        0.0115
     33 C          -1.6920    0.7750    0.0000 C.ar    1  LIG1        0.0022
     34 C          -0.6920    0.7750    0.0000 C.ar    1  LIG1        0.0167
     35 O           2.1710    1.9960    0.0000 O.2     1  LIG1       -0.2664
@<TRIPOS>BOND
     1     1     2   ar
     2     1     5   ar
     3     1    26    1
     4     2     3   ar
     5     2    23   ar
     6     3     4   ar
     7     3    20   ar
     8     4     5   ar
     9     5     6    1
    10     6     7   am
    11     6    19    2
    12     7     8    1
    13     8     9   ar
    14     8    18   ar
    15     9    10   ar
    16    10    11   ar
    17    11    12    1
    18    11    17   ar
    19    12    13    2
    20    12    14    1
    21    14    15    1
    22    15    16    1
    23    17    18   ar
    24    20    21   ar
    25    21    22   ar
    26    21    25    1
    27    22    23   ar
    28    23    24    2
    29    26    27   am
    30    26    35    2
    31    27    28    1
    32    28    29   ar
    33    28    34   ar
    34    29    30   ar
    35    30    31    1
    36    30    32   ar
    37    32    33   ar
    38    33    34   ar
