@<TRIPOS>MOLECULE
34746_ChemDiv_C597-0331
 34 37 0 0 0
SMALL
GASTEIGER
Energy = 0

@<TRIPOS>ATOM
      1 N           2.9880   -2.5790    0.0000 N.ar    1  LIG1       -0.2467
      2 C           2.4830   -3.4420    0.0000 C.ar    1  LIG1        0.3339
      3 N           1.4920   -3.4460    0.0000 N.ar    1  LIG1       -0.2791
      4 C           0.9960   -2.5710    0.0000 C.ar    1  LIG1        0.0686
      5 C           1.4880   -1.7080    0.0000 C.ar    1  LIG1        0.0735
      6 C           2.4830   -1.7080    0.0000 C.ar    1  LIG1        0.2657
      7 O           2.9830   -0.8330    0.0000 O.2     1  LIG1       -0.2668
      8 C           0.9880   -0.8420    0.0000 C.ar    1  LIG1        0.0261
      9 C          -0.0130   -0.8460    0.0000 C.ar    1  LIG1        0.1238
     10 S          -0.5040    0.0210    0.0000 S.O2    1  LIG1        0.0772
     11 N          -0.9960    0.8880    0.0000 N.3     1  LIG1       -0.0696
     12 C          -0.4960    1.7500    0.0000 C.3     1  LIG1        0.1780
     13 C          -0.9960    2.6170    0.0000 C.2     1  LIG1        0.2439
     14 N          -2.0000    2.6170    0.0000 N.am    1  LIG1       -0.2732
     15 C          -2.4920    1.7500    0.0000 C.3     1  LIG1        0.1255
     16 C          -3.4960    1.7500    0.0000 C.3     1  LIG1        0.1636
     17 O          -4.0040    2.6170    0.0000 O.3     1  LIG1       -0.3501
     18 C          -3.4960    3.4880    0.0000 C.3     1  LIG1        0.1636
     19 C          -2.4920    3.4880    0.0000 C.3     1  LIG1        0.1255
     20 O          -0.4880    3.4790    0.0000 O.2     1  LIG1       -0.2733
     21 C           0.5040    1.7460    0.0000 C.3     1  LIG1        0.0550
     22 C           1.0040    2.6080    0.0000 C.ar    1  LIG1       -0.0202
     23 C           1.9920    2.5960    0.0000 C.ar    1  LIG1       -0.0042
     24 C           2.4960    3.4580    0.0000 C.ar    1  LIG1       -0.0003
     25 C           2.0000    4.3250    0.0000 C.ar    1  LIG1       -0.0000
     26 C           1.0040    4.3250    0.0000 C.ar    1  LIG1       -0.0003
     27 C           0.5040    3.4710    0.0000 C.ar    1  LIG1       -0.0042
     28 O           0.3630    0.5210    0.0000 O.2     1  LIG1       -0.1516
     29 O          -1.3710   -0.4710    0.0000 O.2     1  LIG1       -0.1516
     30 C          -0.5130   -1.7080    0.0000 C.ar    1  LIG1        0.0214
     31 C          -0.0080   -2.5750    0.0000 C.ar    1  LIG1        0.0188
     32 C           1.0000   -4.3250    0.0000 C.3     1  LIG1        0.1351
     33 O           2.9830   -4.3040    0.0000 O.2     1  LIG1       -0.2462
     34 C           4.0000   -2.5790    0.0000 C.3     1  LIG1        0.1382
@<TRIPOS>BOND
     1     1     2   ar
     2     1     6   ar
     3     1    34    1
     4     2     3   ar
     5     2    33    2
     6     3     4   ar
     7     3    32    1
     8     4     5   ar
     9     4    31   ar
    10     5     6   ar
    11     5     8   ar
    12     6     7    2
    13     8     9   ar
    14     9    10    1
    15     9    30   ar
    16    10    11    1
    17    10    28    2
    18    10    29    2
    19    11    12    1
    20    12    13    1
    21    12    21    1
    22    13    14   am
    23    13    20    2
    24    14    15    1
    25    14    19    1
    26    15    16    1
    27    16    17    1
    28    17    18    1
    29    18    19    1
    30    21    22    1
    31    22    23   ar
    32    22    27   ar
    33    23    24   ar
    34    24    25   ar
    35    25    26   ar
    36    26    27   ar
    37    30    31   ar
