@<TRIPOS>MOLECULE
34749_ChemDiv_K783-7170
 15 16 0 0 0
SMALL
GASTEIGER
Energy = 0

@<TRIPOS>ATOM
      1 C          -0.1420   -1.3670    0.0000 C.ar    1  LIG1        0.1822
      2 N          -0.6420   -0.5040    0.0000 N.ar    1  LIG1       -0.2840
      3 C          -0.1330    0.3630    0.0000 C.ar    1  LIG1        0.1465
      4 C           0.8670    0.3630    0.0000 C.ar    1  LIG1        0.0867
      5 C           1.3630   -0.5040    0.0000 C.ar    1  LIG1        0.2827
      6 N           0.8670   -1.3670    0.0000 N.ar    1  LIG1       -0.1838
      7 O           2.3630   -0.5040    0.0000 O.2     1  LIG1       -0.2651
      8 C          -0.6460    1.2330    0.0000 C.2     1  LIG1        0.3579
      9 O          -1.6460    1.2330    0.0000 O.2     1  LIG1       -0.2432
     10 O          -0.1500    2.1130    0.0000 O.3     1  LIG1       -0.4403
     11 C           0.8500    2.1130    0.0000 C.3     1  LIG1        0.2560
     12 C          -1.6170   -0.7170    0.0000 C.ar    1  LIG1        0.0503
     13 C          -1.7170   -1.7080    0.0000 C.ar    1  LIG1        0.0514
     14 S          -0.8130   -2.1080    0.0000 S.2     1  LIG1       -0.0483
     15 C          -2.3670   -0.0500    0.0000 C.3     1  LIG1        0.0510
@<TRIPOS>BOND
     1     1     2   ar
     2     1     6   ar
     3     1    14   ar
     4     2     3   ar
     5     2    12   ar
     6     3     4   ar
     7     3     8    1
     8     4     5   ar
     9     5     6   ar
    10     5     7    2
    11     8     9    2
    12     8    10    1
    13    10    11    1
    14    12    13   ar
    15    12    15    1
    16    13    14   ar
