@<TRIPOS>MOLECULE
34747_ChemDiv_G265-0451
 28 32 0 0 0
SMALL
GASTEIGER
Energy = 0

@<TRIPOS>ATOM
      1 C          -2.5960   -0.0290    0.0000 C.ar    1  LIG1        0.1812
      2 N          -2.9130   -0.9790    0.0000 N.ar    1  LIG1       -0.2572
      3 C          -2.2460   -1.7330    0.0000 C.ar    1  LIG1        0.2673
      4 C          -1.2630   -1.5250    0.0000 C.ar    1  LIG1        0.0796
      5 C          -0.9540   -0.5830    0.0000 C.ar    1  LIG1        0.1096
      6 N          -1.6210    0.1750    0.0000 N.ar    1  LIG1       -0.2225
      7 C           0.0290   -0.3750    0.0000 C.3     1  LIG1        0.2541
      8 O           0.6960   -1.1290    0.0000 O.3     1  LIG1       -0.4418
      9 C           1.6630   -0.9210    0.0000 C.2     1  LIG1        0.3162
     10 C           1.9750    0.0330    0.0000 C.3     1  LIG1        0.0887
     11 C           2.0790    0.9540    0.0000 C.3     1  LIG1        0.0066
     12 C           2.6750    1.6670    0.0000 C.3     1  LIG1       -0.0191
     13 C           2.1710    2.6790    0.0000 C.3     1  LIG1       -0.0079
     14 C           2.0880    1.6670    0.0000 C.3     1  LIG1       -0.0191
     15 C           1.4210    0.9420    0.0000 C.3     1  LIG1        0.0066
     16 C           3.0540    1.3170    0.0000 C.3     1  LIG1       -0.0079
     17 C           3.5670    0.4000    0.0000 C.3     1  LIG1       -0.0191
     18 C           2.9040   -0.3170    0.0000 C.3     1  LIG1        0.0066
     19 C           3.5830    1.3330    0.0000 C.3     1  LIG1       -0.0079
     20 O           2.3380   -1.6630    0.0000 O.2     1  LIG1       -0.2501
     21 O          -2.5630   -2.6750    0.0000 O.2     1  LIG1       -0.2665
     22 C          -3.9130   -0.9920    0.0000 C.ar    1  LIG1        0.0529
     23 C          -4.2250   -0.0290    0.0000 C.ar    1  LIG1        0.0515
     24 S          -3.4040    0.5500    0.0000 S.2     1  LIG1       -0.0483
     25 C          -4.4960   -1.8000    0.0000 C.3     1  LIG1        0.0511
     26 H           3.3380    2.3960    0.0000 H       1  LIG1        0.0318
     27 H           1.1630    2.0580    0.0000 H       1  LIG1        0.0318
     28 H           4.4920    0.0380    0.0000 H       1  LIG1        0.0318
@<TRIPOS>BOND
     1     1     2   ar
     2     1     6   ar
     3     1    24   ar
     4     2     3   ar
     5     2    22   ar
     6     3     4   ar
     7     3    21    2
     8     4     5   ar
     9     5     6   ar
    10     5     7    1
    11     7     8    1
    12     8     9    1
    13     9    10    1
    14     9    20    2
    15    10    11    1
    16    10    15    1
    17    10    18    1
    18    11    12    1
    19    12    13    1
    20    12    19    1
    21    12    26    1
    22    14    13    1
    23    14    15    1
    24    14    16    1
    25    14    27    1
    26    16    17    1
    27    17    18    1
    28    17    19    1
    29    17    28    1
    30    22    23   ar
    31    22    25    1
    32    23    24   ar
