@<TRIPOS>MOLECULE
34741_ChemDiv_D082-0400
 34 37 0 0 0
SMALL
GASTEIGER
Energy = 0

@<TRIPOS>ATOM
      1 C           0.1170    0.1670    0.0000 C.ar    1  LIG1        0.1343
      2 N           1.1170    0.1540    0.0000 N.ar    1  LIG1       -0.2488
      3 C           1.4170   -0.8000    0.0000 C.ar    1  LIG1        0.1816
      4 S           0.6000   -1.3750    0.0000 S.2     1  LIG1       -0.0437
      5 C          -0.2000   -0.7830    0.0000 C.ar    1  LIG1        0.1082
      6 C          -1.2000   -0.7830    0.0000 C.2     1  LIG1        0.2767
      7 N          -1.6960   -1.6500    0.0000 N.am    1  LIG1       -0.1753
      8 C          -2.7000   -1.6500    0.0000 C.ar    1  LIG1        0.0698
      9 C          -3.1960   -2.5130    0.0000 C.ar    1  LIG1       -0.0057
     10 C          -4.1920   -2.5130    0.0000 C.ar    1  LIG1        0.0084
     11 C          -4.7000   -1.6500    0.0000 C.ar    1  LIG1        0.0574
     12 C          -4.1920   -0.7710    0.0000 C.ar    1  LIG1        0.0127
     13 C          -3.1960   -0.7830    0.0000 C.ar    1  LIG1        0.0172
     14 CL         -5.6960   -1.6330    0.0000 Cl      1  LIG1       -0.0823
     15 C          -2.6960   -3.3750    0.0000 C.3     1  LIG1        0.0324
     16 O          -1.7080    0.0790    0.0000 O.2     1  LIG1       -0.2674
     17 N           2.3880   -1.0130    0.0000 N.ar    1  LIG1       -0.2262
     18 C           3.0710   -0.2710    0.0000 C.ar    1  LIG1        0.0658
     19 C           2.7500    0.6830    0.0000 C.ar    1  LIG1        0.0759
     20 C           1.7830    0.8960    0.0000 C.ar    1  LIG1        0.2676
     21 O           1.4790    1.8500    0.0000 O.2     1  LIG1       -0.2665
     22 C           4.0420   -0.4830    0.0000 C.3     1  LIG1        0.0460
     23 C           4.7080    0.2580    0.0000 C.3     1  LIG1        0.0063
     24 C           5.6920    0.0460    0.0000 C.3     1  LIG1        0.0004
     25 C          -0.1500    1.1380    0.0000 C.2     1  LIG1        0.2860
     26 N          -1.0210    1.6380    0.0000 N.am    1  LIG1       -0.1742
     27 C          -2.0170    1.6380    0.0000 C.ar    1  LIG1        0.0734
     28 C          -2.5130    2.5170    0.0000 C.ar    1  LIG1        0.0124
     29 C          -3.5130    2.5170    0.0000 C.ar    1  LIG1       -0.0206
     30 C          -4.0130    1.6540    0.0000 C.ar    1  LIG1       -0.0042
     31 C          -3.5130    0.7750    0.0000 C.ar    1  LIG1        0.0010
     32 C          -2.5130    0.7750    0.0000 C.ar    1  LIG1        0.0166
     33 C          -4.0130    3.3790    0.0000 C.3     1  LIG1        0.0311
     34 O           0.3420    2.0000    0.0000 O.2     1  LIG1       -0.2664
@<TRIPOS>BOND
     1     1     2   ar
     2     1     5   ar
     3     1    25    1
     4     2     3   ar
     5     2    20   ar
     6     3     4   ar
     7     3    17   ar
     8     4     5   ar
     9     5     6    1
    10     6     7   am
    11     6    16    2
    12     7     8    1
    13     8     9   ar
    14     8    13   ar
    15     9    10   ar
    16     9    15    1
    17    10    11   ar
    18    11    12   ar
    19    11    14    1
    20    12    13   ar
    21    17    18   ar
    22    18    19   ar
    23    18    22    1
    24    19    20   ar
    25    20    21    2
    26    22    23    1
    27    23    24    1
    28    25    26   am
    29    25    34    2
    30    26    27    1
    31    27    28   ar
    32    27    32   ar
    33    28    29   ar
    34    29    30   ar
    35    29    33    1
    36    30    31   ar
    37    31    32   ar
