@<TRIPOS>MOLECULE
34750_ChemDiv_C597-0745
 33 36 0 0 0
SMALL
GASTEIGER
Energy = 0

@<TRIPOS>ATOM
      1 N           5.0000   -1.7290    0.0000 N.ar    1  LIG1       -0.2467
      2 C           4.4960   -2.5880    0.0000 C.ar    1  LIG1        0.3339
      3 N           3.5080   -2.5920    0.0000 N.ar    1  LIG1       -0.2791
      4 C           3.0080   -1.7210    0.0000 C.ar    1  LIG1        0.0686
      5 C           3.5000   -0.8630    0.0000 C.ar    1  LIG1        0.0735
      6 C           4.4960   -0.8630    0.0000 C.ar    1  LIG1        0.2657
      7 O           5.0000    0.0170    0.0000 O.2     1  LIG1       -0.2668
      8 C           3.0040    0.0130    0.0000 C.ar    1  LIG1        0.0261
      9 C           2.0080    0.0040    0.0000 C.ar    1  LIG1        0.1225
     10 S           1.5130    0.8670    0.0000 S.O2    1  LIG1        0.0638
     11 N           1.0170    1.7290    0.0000 N.3     1  LIG1       -0.1447
     12 C           0.0210    1.7290    0.0000 C.3     1  LIG1        0.1806
     13 C          -0.4750    2.6000    0.0000 C.2     1  LIG1        0.2441
     14 N          -1.4790    2.6000    0.0000 N.am    1  LIG1       -0.2669
     15 C          -1.9830    1.7380    0.0000 C.3     1  LIG1        0.1565
     16 C          -2.9790    1.7380    0.0000 C.3     1  LIG1        0.1602
     17 N          -3.4750    2.6040    0.0000 N.4     1  LIG1        0.3757
     18 C          -2.9790    3.4750    0.0000 C.3     1  LIG1        0.1602
     19 C          -1.9830    3.4670    0.0000 C.3     1  LIG1        0.1565
     20 C          -4.4710    2.6000    0.0000 C.3     1  LIG1        0.0870
     21 C          -5.0630    3.4130    0.0000 C.3     1  LIG1        0.0567
     22 C          -6.0130    3.1000    0.0000 C.3     1  LIG1        0.0061
     23 C          -6.0080    2.0960    0.0000 C.3     1  LIG1        0.0061
     24 C          -5.0580    1.7880    0.0000 C.3     1  LIG1        0.0567
     25 O           0.0210    3.4630    0.0000 O.2     1  LIG1       -0.2733
     26 C           1.5080    2.6040    0.0000 C.3     1  LIG1        0.1155
     27 O           2.3790    1.3670    0.0000 O.2     1  LIG1       -0.1528
     28 O           0.6460    0.3710    0.0000 O.2     1  LIG1       -0.1528
     29 C           1.5080   -0.8630    0.0000 C.ar    1  LIG1        0.0214
     30 C           2.0130   -1.7250    0.0000 C.ar    1  LIG1        0.0188
     31 C           3.0170   -3.4710    0.0000 C.3     1  LIG1        0.1351
     32 O           5.0000   -3.4540    0.0000 O.2     1  LIG1       -0.2462
     33 C           6.0130   -1.7290    0.0000 C.3     1  LIG1        0.1382
@<TRIPOS>BOND
     1     1     2   ar
     2     1     6   ar
     3     1    33    1
     4     2     3   ar
     5     2    32    2
     6     3     4   ar
     7     3    31    1
     8     4     5   ar
     9     4    30   ar
    10     5     6   ar
    11     5     8   ar
    12     6     7    2
    13     8     9   ar
    14     9    10    1
    15     9    29   ar
    16    10    11    1
    17    10    27    2
    18    10    28    2
    19    11    12    1
    20    11    26    1
    21    12    13    1
    22    13    14   am
    23    13    25    2
    24    14    15    1
    25    14    19    1
    26    15    16    1
    27    16    17    1
    28    17    18    1
    29    17    20    1
    30    18    19    1
    31    20    21    1
    32    20    24    1
    33    21    22    1
    34    22    23    1
    35    23    24    1
    36    29    30   ar
