@<TRIPOS>MOLECULE
34752_ChemDiv_K906-1127
 39 42 0 0 0
SMALL
GASTEIGER
Energy = 0

@<TRIPOS>ATOM
      1 N          -6.8130    0.2500    0.0000 N.ar    1  LIG1       -0.2467
      2 C          -6.8130   -0.7460    0.0000 C.ar    1  LIG1        0.3339
      3 N          -5.9540   -1.2460    0.0000 N.ar    1  LIG1       -0.2791
      4 C          -5.0960   -0.7460    0.0000 C.ar    1  LIG1        0.0686
      5 C          -5.0830    0.2500    0.0000 C.ar    1  LIG1        0.0735
      6 C          -5.9540    0.7630    0.0000 C.ar    1  LIG1        0.2657
      7 O          -5.9540    1.7580    0.0000 O.2     1  LIG1       -0.2668
      8 C          -4.2210    0.7500    0.0000 C.ar    1  LIG1        0.0261
      9 C          -3.3580    0.2500    0.0000 C.ar    1  LIG1        0.1238
     10 S          -2.4830    0.7460    0.0000 S.O2    1  LIG1        0.0772
     11 N          -1.6210    1.2460    0.0000 N.3     1  LIG1       -0.0699
     12 C          -0.6250    1.2460    0.0000 C.3     1  LIG1        0.1760
     13 C           0.3790    1.2460    0.0000 C.2     1  LIG1        0.2591
     14 N           1.3830    1.2460    0.0000 N.am    1  LIG1       -0.2055
     15 C           2.2420    0.7460    0.0000 C.3     1  LIG1        0.1072
     16 C           2.2420   -0.2500    0.0000 C.3     1  LIG1        0.0845
     17 C           3.1040   -0.7460    0.0000 C.3     1  LIG1        0.1408
     18 N           3.9750   -0.2580    0.0000 N.4     1  LIG1        0.3808
     19 C           4.6830   -0.9710    0.0000 C.3     1  LIG1        0.1662
     20 C           5.6830   -0.9710    0.0000 C.ar    1  LIG1        0.0344
     21 C           6.1790   -1.8330    0.0000 C.ar    1  LIG1        0.0014
     22 C           7.1750   -1.8330    0.0000 C.ar    1  LIG1       -0.0001
     23 C           7.6790   -0.9750    0.0000 C.ar    1  LIG1       -0.0000
     24 C           7.1790   -0.1000    0.0000 C.ar    1  LIG1       -0.0001
     25 C           6.1790   -0.1000    0.0000 C.ar    1  LIG1        0.0014
     26 C           3.9750    0.7460    0.0000 C.3     1  LIG1        0.1408
     27 C           3.1040    1.2460    0.0000 C.3     1  LIG1        0.0845
     28 O           0.3710    2.2460    0.0000 O.2     1  LIG1       -0.2718
     29 C          -0.6250    0.2500    0.0000 C.3     1  LIG1        0.0404
     30 C           0.2330   -0.2500    0.0000 C.3     1  LIG1        0.0596
     31 S           0.2330   -1.2540    0.0000 S.3     1  LIG1       -0.1393
     32 C           0.9460   -1.9670    0.0000 C.3     1  LIG1        0.0692
     33 O          -1.9920   -0.1250    0.0000 O.2     1  LIG1       -0.1516
     34 O          -2.9960    1.6130    0.0000 O.2     1  LIG1       -0.1516
     35 C          -3.3580   -0.7580    0.0000 C.ar    1  LIG1        0.0214
     36 C          -4.2250   -1.2460    0.0000 C.ar    1  LIG1        0.0188
     37 C          -5.9460   -2.2420    0.0000 C.3     1  LIG1        0.1351
     38 O          -7.6790   -1.2460    0.0000 O.2     1  LIG1       -0.2462
     39 C          -7.6790    0.7500    0.0000 C.3     1  LIG1        0.1382
@<TRIPOS>BOND
     1     1     2   ar
     2     1     6   ar
     3     1    39    1
     4     2     3   ar
     5     2    38    2
     6     3     4   ar
     7     3    37    1
     8     4     5   ar
     9     4    36   ar
    10     5     6   ar
    11     5     8   ar
    12     6     7    2
    13     8     9   ar
    14     9    10    1
    15     9    35   ar
    16    10    11    1
    17    10    33    2
    18    10    34    2
    19    11    12    1
    20    12    13    1
    21    12    29    1
    22    13    14   am
    23    13    28    2
    24    14    15    1
    25    15    16    1
    26    15    27    1
    27    16    17    1
    28    17    18    1
    29    18    19    1
    30    18    26    1
    31    19    20    1
    32    20    21   ar
    33    20    25   ar
    34    21    22   ar
    35    22    23   ar
    36    23    24   ar
    37    24    25   ar
    38    26    27    1
    39    29    30    1
    40    30    31    1
    41    31    32    1
    42    35    36   ar
