@<TRIPOS>MOLECULE
34776_ChemDiv_8015-7460
 30 33 0 0 0
SMALL
GASTEIGER
Energy = 0

@<TRIPOS>ATOM
      1 S          -0.4290    0.5000    0.0000 S.O2    1  LIG1        0.0774
      2 N          -1.2960    1.0040    0.0000 N.3     1  LIG1       -0.0703
      3 C          -2.1580    0.5000    0.0000 C.3     1  LIG1        0.1421
      4 C          -3.0290    1.0040    0.0000 C.ar    1  LIG1       -0.0005
      5 C          -3.0290    1.9960    0.0000 C.ar    1  LIG1       -0.0025
      6 C          -3.8960    2.5040    0.0000 C.ar    1  LIG1       -0.0003
      7 C          -4.7630    1.9960    0.0000 C.ar    1  LIG1       -0.0000
      8 C          -4.7670    1.0040    0.0000 C.ar    1  LIG1       -0.0003
      9 C          -3.8960    0.5000    0.0000 C.ar    1  LIG1       -0.0025
     10 C          -2.1580   -0.5000    0.0000 C.ar    1  LIG1       -0.0005
     11 C          -3.0290   -1.0000    0.0000 C.ar    1  LIG1       -0.0025
     12 C          -3.0290   -1.9920    0.0000 C.ar    1  LIG1       -0.0003
     13 C          -2.1580   -2.5000    0.0000 C.ar    1  LIG1       -0.0000
     14 C          -1.2960   -1.9920    0.0000 C.ar    1  LIG1       -0.0003
     15 C          -1.2960   -1.0000    0.0000 C.ar    1  LIG1       -0.0025
     16 C           0.4420    0.0000    0.0000 C.ar    1  LIG1        0.1234
     17 C           1.3000    0.5000    0.0000 C.ar    1  LIG1        0.0186
     18 C           2.1670    0.0000    0.0000 C.ar    1  LIG1        0.0128
     19 C           2.1670   -1.0000    0.0000 C.ar    1  LIG1        0.0530
     20 N           3.0290   -1.4920    0.0000 N.am    1  LIG1       -0.2416
     21 C           3.9000   -1.0000    0.0000 C.2     1  LIG1        0.3113
     22 N           3.9000    0.0000    0.0000 N.am    1  LIG1       -0.2579
     23 C           3.0290    0.5000    0.0000 C.3     1  LIG1        0.1230
     24 C           4.7630    0.5000    0.0000 C.3     1  LIG1        0.1168
     25 O           4.7630   -1.4920    0.0000 O.2     1  LIG1       -0.2520
     26 C           3.0290   -2.5000    0.0000 C.3     1  LIG1        0.1216
     27 C           1.3000   -1.4920    0.0000 C.ar    1  LIG1        0.0161
     28 C           0.4420   -1.0000    0.0000 C.ar    1  LIG1        0.0212
     29 O           0.0670    1.3710    0.0000 O.2     1  LIG1       -0.1516
     30 O          -0.9290   -0.3670    0.0000 O.2     1  LIG1       -0.1516
@<TRIPOS>BOND
     1     1     2    1
     2     1    16    1
     3     1    29    2
     4     1    30    2
     5     2     3    1
     6     3     4    1
     7     3    10    1
     8     4     5   ar
     9     4     9   ar
    10     5     6   ar
    11     6     7   ar
    12     7     8   ar
    13     8     9   ar
    14    10    11   ar
    15    10    15   ar
    16    11    12   ar
    17    12    13   ar
    18    13    14   ar
    19    14    15   ar
    20    16    17   ar
    21    16    28   ar
    22    17    18   ar
    23    18    19   ar
    24    18    23    1
    25    19    20    1
    26    19    27   ar
    27    20    21   am
    28    20    26    1
    29    21    22   am
    30    21    25    2
    31    22    23    1
    32    22    24    1
    33    27    28   ar
