@<TRIPOS>MOLECULE
34778_ChemDiv_8015-7461
 24 26 0 0 0
SMALL
GASTEIGER
Energy = 0

@<TRIPOS>ATOM
      1 C           3.9040   -1.0040    0.0000 C.2     1  LIG1        0.3113
      2 N           3.0330   -1.4960    0.0000 N.am    1  LIG1       -0.2416
      3 C           2.1710   -1.0040    0.0000 C.ar    1  LIG1        0.0530
      4 C           2.1710   -0.0040    0.0000 C.ar    1  LIG1        0.0128
      5 C           3.0330    0.5000    0.0000 C.3     1  LIG1        0.1230
      6 N           3.9040   -0.0040    0.0000 N.am    1  LIG1       -0.2579
      7 C           4.7670    0.5000    0.0000 C.3     1  LIG1        0.1168
      8 C           1.3040    0.5000    0.0000 C.ar    1  LIG1        0.0186
      9 C           0.4420   -0.0040    0.0000 C.ar    1  LIG1        0.1234
     10 S          -0.4330    0.5000    0.0000 S.O2    1  LIG1        0.0771
     11 N          -1.3000    1.0080    0.0000 N.3     1  LIG1       -0.0729
     12 C          -2.1630    0.5000    0.0000 C.3     1  LIG1        0.1418
     13 C          -3.0330    1.0080    0.0000 C.ar    1  LIG1       -0.0029
     14 C          -3.0330    2.0000    0.0000 C.ar    1  LIG1       -0.0028
     15 C          -3.9000    2.5000    0.0000 C.ar    1  LIG1       -0.0003
     16 C          -4.7670    2.0000    0.0000 C.ar    1  LIG1       -0.0000
     17 C          -4.7710    1.0080    0.0000 C.ar    1  LIG1       -0.0003
     18 C          -3.9000    0.5000    0.0000 C.ar    1  LIG1       -0.0028
     19 O           0.0670    1.3710    0.0000 O.2     1  LIG1       -0.1516
     20 O          -0.9330   -0.3710    0.0000 O.2     1  LIG1       -0.1516
     21 C           0.4420   -1.0040    0.0000 C.ar    1  LIG1        0.0212
     22 C           1.3040   -1.4960    0.0000 C.ar    1  LIG1        0.0161
     23 C           3.0330   -2.4960    0.0000 C.3     1  LIG1        0.1216
     24 O           4.7670   -1.4960    0.0000 O.2     1  LIG1       -0.2520
@<TRIPOS>BOND
     1     1     2   am
     2     1     6   am
     3     1    24    2
     4     2     3    1
     5     2    23    1
     6     3     4   ar
     7     3    22   ar
     8     4     5    1
     9     4     8   ar
    10     5     6    1
    11     6     7    1
    12     8     9   ar
    13     9    10    1
    14     9    21   ar
    15    10    11    1
    16    10    19    2
    17    10    20    2
    18    11    12    1
    19    12    13    1
    20    13    14   ar
    21    13    18   ar
    22    14    15   ar
    23    15    16   ar
    24    16    17   ar
    25    17    18   ar
    26    21    22   ar
