@<TRIPOS>MOLECULE
34774_ChemDiv_8015-7411
 29 32 0 0 0
SMALL
GASTEIGER
Energy = 0

@<TRIPOS>ATOM
      1 N          -3.0380   -0.6420    0.0000 N.ar    1  LIG1       -0.2320
      2 C          -2.7630   -1.6170    0.0000 C.ar    1  LIG1        0.1369
      3 S          -3.5920   -2.1790    0.0000 S.2     1  LIG1       -0.0597
      4 C          -4.3750   -1.5500    0.0000 C.ar    1  LIG1        0.0565
      5 C          -4.0250   -0.6170    0.0000 C.ar    1  LIG1        0.0889
      6 C          -4.5630    0.2210    0.0000 C.ar    1  LIG1        0.0182
      7 C          -4.1500    1.1330    0.0000 C.ar    1  LIG1        0.0015
      8 C          -4.7000    1.9540    0.0000 C.ar    1  LIG1        0.0000
      9 C          -5.7210    1.8750    0.0000 C.ar    1  LIG1        0.0000
     10 C          -6.1080    0.9710    0.0000 C.ar    1  LIG1        0.0000
     11 C          -5.5540    0.1630    0.0000 C.ar    1  LIG1        0.0015
     12 S          -1.8000   -1.9500    0.0000 S.3     1  LIG1       -0.0786
     13 C          -1.0250   -1.2920    0.0000 C.3     1  LIG1        0.1506
     14 C          -0.0920   -1.6420    0.0000 C.2     1  LIG1        0.2531
     15 N           0.6630   -0.9920    0.0000 N.am    1  LIG1       -0.1998
     16 C           1.5960   -1.3420    0.0000 C.3     1  LIG1        0.1415
     17 C           2.3500   -0.6920    0.0000 C.ar    1  LIG1       -0.0005
     18 C           2.1750    0.2880    0.0000 C.ar    1  LIG1       -0.0013
     19 C           2.9330    0.9460    0.0000 C.ar    1  LIG1        0.0146
     20 C           3.8630    0.6210    0.0000 C.ar    1  LIG1        0.0538
     21 N           4.6460    1.2460    0.0000 N.am    1  LIG1       -0.2586
     22 C           5.6000    1.0460    0.0000 C.2     1  LIG1        0.2294
     23 O           6.0330    0.1130    0.0000 O.2     1  LIG1       -0.2745
     24 C           6.1080    1.9250    0.0000 C.3     1  LIG1        0.0874
     25 C           5.4500    2.6330    0.0000 C.3     1  LIG1        0.0315
     26 C           4.5210    2.2330    0.0000 C.3     1  LIG1        0.0987
     27 C           4.0370   -0.3920    0.0000 C.ar    1  LIG1        0.0146
     28 C           3.2830   -1.0500    0.0000 C.ar    1  LIG1       -0.0013
     29 O           0.1130   -2.6290    0.0000 O.2     1  LIG1       -0.2724
@<TRIPOS>BOND
     1     1     2   ar
     2     1     5   ar
     3     2     3   ar
     4     2    12    1
     5     3     4   ar
     6     4     5   ar
     7     5     6    1
     8     6     7   ar
     9     6    11   ar
    10     7     8   ar
    11     8     9   ar
    12     9    10   ar
    13    10    11   ar
    14    12    13    1
    15    13    14    1
    16    14    15   am
    17    14    29    2
    18    15    16    1
    19    16    17    1
    20    17    18   ar
    21    17    28   ar
    22    18    19   ar
    23    19    20   ar
    24    20    21    1
    25    20    27   ar
    26    21    22   am
    27    21    26    1
    28    22    23    2
    29    22    24    1
    30    24    25    1
    31    25    26    1
    32    27    28   ar
