@<TRIPOS>MOLECULE
34772_ChemDiv_8017-4616
 22 24 0 0 0
SMALL
GASTEIGER
Energy = 0

@<TRIPOS>ATOM
      1 N           1.9790    0.4330    0.0000 N.am    1  LIG1       -0.1563
      2 S           0.9790    0.4330    0.0000 S.O2    1  LIG1        0.0789
      3 C          -0.0210    0.4330    0.0000 C.ar    1  LIG1        0.1255
      4 C          -0.5210   -0.4290    0.0000 C.ar    1  LIG1        0.0202
      5 C          -1.5210   -0.4290    0.0000 C.ar    1  LIG1        0.0013
      6 C          -2.0210    0.4330    0.0000 C.ar    1  LIG1        0.0001
      7 C          -1.5210    1.3000    0.0000 C.ar    1  LIG1        0.0014
      8 C          -0.5210    1.3000    0.0000 C.ar    1  LIG1        0.0202
      9 C          -3.0210    0.4330    0.0000 C.ar    1  LIG1        0.0000
     10 C          -3.5210   -0.4290    0.0000 C.ar    1  LIG1        0.0000
     11 C          -3.0210   -1.3000    0.0000 C.ar    1  LIG1        0.0000
     12 C          -2.0210   -1.3000    0.0000 C.ar    1  LIG1        0.0000
     13 O           0.9790   -0.5670    0.0000 O.2     1  LIG1       -0.1496
     14 O           0.9790    1.4330    0.0000 O.2     1  LIG1       -0.1496
     15 C           2.5670   -0.3750    0.0000 C.3     1  LIG1        0.1353
     16 C           2.0670   -1.2380    0.0000 C.2     1  LIG1        0.0702
     17 O           1.0670   -1.2380    0.0000 O.co2   1  LIG1       -0.5474
     18 O           2.5670   -2.1040    0.0000 O.co2   1  LIG1       -0.5474
     19 C           3.5170   -0.0670    0.0000 C.3     1  LIG1        0.0370
     20 C           3.5170    0.9330    0.0000 C.3     1  LIG1        0.0890
     21 C           2.5670    1.2460    0.0000 C.2     1  LIG1        0.2444
     22 O           2.0670    2.1080    0.0000 O.2     1  LIG1       -0.2733
@<TRIPOS>BOND
     1     1     2    1
     2     1    15    1
     3     1    21   am
     4     2     3    1
     5     2    13    2
     6     2    14    2
     7     3     4   ar
     8     3     8   ar
     9     4     5   ar
    10     5     6   ar
    11     5    12   ar
    12     6     7   ar
    13     6     9   ar
    14     7     8   ar
    15     9    10   ar
    16    10    11   ar
    17    11    12   ar
    18    15    16    1
    19    15    19    1
    20    16    17   ar
    21    16    18   ar
    22    19    20    1
    23    20    21    1
    24    21    22    2
