@<TRIPOS>MOLECULE
34770_ChemDiv_8015-7409
 19 20 0 0 0
SMALL
GASTEIGER
Energy = 0

@<TRIPOS>ATOM
      1 S          -0.2130    0.7580    0.0000 S.O2    1  LIG1        0.0650
      2 N          -1.2080    0.7580    0.0000 N.3     1  LIG1       -0.1461
      3 C          -1.7130   -0.1040    0.0000 C.3     1  LIG1        0.1779
      4 C          -1.3080   -1.0170    0.0000 C.2     1  LIG1        0.3334
      5 O          -1.9460   -1.7540    0.0000 O.2     1  LIG1       -0.2485
      6 O          -0.2880   -1.1290    0.0000 O.3     1  LIG1       -0.4434
      7 C           0.2960   -0.3290    0.0000 C.3     1  LIG1        0.2556
      8 C          -2.6960    0.1080    0.0000 C.3     1  LIG1        0.0306
      9 C          -2.7960    1.0960    0.0000 C.3     1  LIG1        0.0212
     10 C          -1.8830    1.5080    0.0000 C.3     1  LIG1        0.0964
     11 C           0.7920    0.7580    0.0000 C.ar    1  LIG1        0.1388
     12 C           1.2830   -0.1040    0.0000 C.ar    1  LIG1        0.1076
     13 N           0.7710   -0.9750    0.0000 N.pl3   1  LIG1       -0.1267
     14 C           2.2920   -0.1040    0.0000 C.ar    1  LIG1        0.0194
     15 C           2.7920    0.7580    0.0000 C.ar    1  LIG1        0.0015
     16 C           2.2960    1.6210    0.0000 C.ar    1  LIG1        0.0015
     17 C           1.2960    1.6210    0.0000 C.ar    1  LIG1        0.0213
     18 O          -0.2130   -0.2420    0.0000 O.2     1  LIG1       -0.1527
     19 O          -0.2130    1.7580    0.0000 O.2     1  LIG1       -0.1527
@<TRIPOS>BOND
     1     1     2    1
     2     1    11    1
     3     1    18    2
     4     1    19    2
     5     2     3    1
     6     2    10    1
     7     3     4    1
     8     3     8    1
     9     4     5    2
    10     4     6    1
    11     6     7    1
    12     8     9    1
    13     9    10    1
    14    11    12   ar
    15    11    17   ar
    16    12    13    1
    17    12    14   ar
    18    14    15   ar
    19    15    16   ar
    20    16    17   ar
