@<TRIPOS>MOLECULE
34784_ChemDiv_8015-7512
 15 17 0 0 0
SMALL
GASTEIGER
Energy = 0

@<TRIPOS>ATOM
      1 C           1.2920   -1.2500    0.0000 C.ar    1  LIG1        0.2748
      2 C           1.2920   -0.2500    0.0000 C.ar    1  LIG1        0.0317
      3 C           0.4290    0.2540    0.0000 C.ar    1  LIG1       -0.0201
      4 C          -0.4290   -0.2500    0.0000 C.ar    1  LIG1        0.0136
      5 C          -0.4290   -1.2500    0.0000 C.ar    1  LIG1        0.0842
      6 N           0.4290   -1.7500    0.0000 N.ar    1  LIG1       -0.2082
      7 C          -1.2960   -1.7500    0.0000 C.ar    1  LIG1        0.0192
      8 C          -2.1670   -1.2500    0.0000 C.ar    1  LIG1        0.0015
      9 C          -2.1670   -0.2500    0.0000 C.ar    1  LIG1        0.0001
     10 C          -1.2960    0.2460    0.0000 C.ar    1  LIG1        0.0012
     11 C           0.4290    1.2540    0.0000 C.3     1  LIG1        0.0262
     12 C           1.2920    1.7540    0.0000 C.3     1  LIG1        0.0050
     13 C           2.1630    1.2540    0.0000 C.3     1  LIG1        0.0052
     14 C           2.1630    0.2540    0.0000 C.3     1  LIG1        0.0309
     15 O           2.1630   -1.7500    0.0000 O.2     1  LIG1       -0.2656
@<TRIPOS>BOND
     1     1     2   ar
     2     1     6   ar
     3     1    15    2
     4     2     3   ar
     5     2    14    1
     6     3     4   ar
     7     3    11    1
     8     4     5   ar
     9     4    10   ar
    10     5     6   ar
    11     5     7   ar
    12     7     8   ar
    13     8     9   ar
    14     9    10   ar
    15    11    12    1
    16    12    13    1
    17    13    14    1
