@<TRIPOS>MOLECULE
34788_ChemDiv_8016-9972
 19 21 0 0 0
SMALL
GASTEIGER
Energy = 0

@<TRIPOS>ATOM
      1 N           0.4420   -0.2880    0.0000 N.ar    1  LIG1       -0.2853
      2 C           1.3130    0.2040    0.0000 C.ar    1  LIG1        0.2569
      3 C           1.3040    1.2080    0.0000 C.ar    1  LIG1        0.0301
      4 C           0.4420    1.7170    0.0000 C.ar    1  LIG1       -0.0202
      5 C          -0.4170    1.2040    0.0000 C.ar    1  LIG1        0.0118
      6 C          -0.4170    0.2040    0.0000 C.ar    1  LIG1        0.0627
      7 C          -1.2790   -0.2880    0.0000 C.ar    1  LIG1        0.0173
      8 C          -2.1420    0.2040    0.0000 C.ar    1  LIG1        0.0015
      9 C          -2.1420    1.2080    0.0000 C.ar    1  LIG1        0.0001
     10 C          -1.2790    1.7040    0.0000 C.ar    1  LIG1        0.0011
     11 C           0.6540    2.6920    0.0000 C.3     1  LIG1        0.0266
     12 C           1.6540    2.7920    0.0000 C.3     1  LIG1        0.0095
     13 C           2.0540    1.8710    0.0000 C.3     1  LIG1        0.0312
     14 O           2.1670   -0.2920    0.0000 O.2     1  LIG1       -0.2673
     15 C           0.4380   -1.2920    0.0000 C.3     1  LIG1        0.2189
     16 C          -0.4330   -1.7790    0.0000 C.2     1  LIG1        0.3406
     17 O          -0.4460   -2.7880    0.0000 O.2     1  LIG1       -0.2479
     18 O          -1.2960   -1.2750    0.0000 O.3     1  LIG1       -0.4431
     19 C          -2.1710   -1.7670    0.0000 C.3     1  LIG1        0.2557
@<TRIPOS>BOND
     1     1     2   ar
     2     1     6   ar
     3     1    15    1
     4     2     3   ar
     5     2    14    2
     6     3     4   ar
     7     3    13    1
     8     4     5   ar
     9     4    11    1
    10     5     6   ar
    11     5    10   ar
    12     6     7   ar
    13     7     8   ar
    14     8     9   ar
    15     9    10   ar
    16    11    12    1
    17    12    13    1
    18    15    16    1
    19    16    17    2
    20    16    18    1
    21    18    19    1
