@<TRIPOS>MOLECULE
34782_ChemDiv_8015-7511
 14 16 0 0 0
SMALL
GASTEIGER
Energy = 0

@<TRIPOS>ATOM
      1 C           1.2420   -0.9580    0.0000 C.ar    1  LIG1        0.2748
      2 C           1.2420   -0.0040    0.0000 C.ar    1  LIG1        0.0317
      3 C           0.4130    0.4830    0.0000 C.ar    1  LIG1       -0.0201
      4 C          -0.4210   -0.0040    0.0000 C.ar    1  LIG1        0.0136
      5 C          -0.4210   -0.9580    0.0000 C.ar    1  LIG1        0.0842
      6 N           0.4130   -1.4330    0.0000 N.ar    1  LIG1       -0.2082
      7 C          -1.2460   -1.4330    0.0000 C.ar    1  LIG1        0.0192
      8 C          -2.0710   -0.9580    0.0000 C.ar    1  LIG1        0.0015
      9 C          -2.0710   -0.0040    0.0000 C.ar    1  LIG1        0.0001
     10 C          -1.2460    0.4830    0.0000 C.ar    1  LIG1        0.0012
     11 C           0.4130    1.4380    0.0000 C.3     1  LIG1        0.0266
     12 C           2.0670    1.4380    0.0000 C.3     1  LIG1        0.0095
     13 C           2.0670    0.4830    0.0000 C.3     1  LIG1        0.0313
     14 O           2.0670   -1.4330    0.0000 O.2     1  LIG1       -0.2656
@<TRIPOS>BOND
     1     1     2   ar
     2     1     6   ar
     3     1    14    2
     4     2     3   ar
     5     2    13    1
     6     3     4   ar
     7     3    11    1
     8     4     5   ar
     9     4    10   ar
    10     5     6   ar
    11     5     7   ar
    12     7     8   ar
    13     8     9   ar
    14     9    10   ar
    15    11    12    1
    16    12    13    1
