@<TRIPOS>MOLECULE
34786_ChemDiv_8016-9956
 24 27 0 0 0
SMALL
GASTEIGER
Energy = 0

@<TRIPOS>ATOM
      1 C           0.4290   -0.7380    0.0000 C.ar    1  LIG1        0.1547
      2 N           1.3040   -1.2420    0.0000 N.ar    1  LIG1       -0.1621
      3 N           1.3000   -2.2540    0.0000 N.ar    1  LIG1       -0.2145
      4 C           0.4250   -2.7540    0.0000 C.ar    1  LIG1        0.2764
      5 C          -0.4460   -2.2540    0.0000 C.ar    1  LIG1        0.0592
      6 C          -0.4460   -1.2420    0.0000 C.ar    1  LIG1        0.0285
      7 C          -1.3080   -0.7500    0.0000 C.ar    1  LIG1        0.0019
      8 C          -2.1710   -1.2500    0.0000 C.ar    1  LIG1        0.0001
      9 C          -2.1710   -2.2500    0.0000 C.ar    1  LIG1        0.0002
     10 C          -1.3080   -2.7500    0.0000 C.ar    1  LIG1        0.0048
     11 O           0.4170   -3.7500    0.0000 O.2     1  LIG1       -0.2655
     12 C           2.1670   -2.7540    0.0000 C.3     1  LIG1        0.1571
     13 C           0.4290    0.2580    0.0000 C.2     1  LIG1        0.2722
     14 N          -0.4380    0.7580    0.0000 N.am    1  LIG1       -0.2542
     15 C          -0.4330    1.7580    0.0000 C.ar    1  LIG1        0.0502
     16 C          -1.2960    2.2670    0.0000 C.ar    1  LIG1       -0.0084
     17 C          -2.1580    1.7670    0.0000 C.3     1  LIG1        0.0294
     18 C          -2.1630    0.7670    0.0000 C.3     1  LIG1        0.0266
     19 C          -1.2960    0.2670    0.0000 C.3     1  LIG1        0.0989
     20 C          -1.2960    3.2540    0.0000 C.ar    1  LIG1       -0.0030
     21 C          -0.4330    3.7540    0.0000 C.ar    1  LIG1       -0.0002
     22 C           0.4380    3.2540    0.0000 C.ar    1  LIG1        0.0013
     23 C           0.4290    2.2540    0.0000 C.ar    1  LIG1        0.0146
     24 O           1.2920    0.7580    0.0000 O.2     1  LIG1       -0.2679
@<TRIPOS>BOND
     1     1     2   ar
     2     1     6   ar
     3     1    13    1
     4     2     3   ar
     5     3     4   ar
     6     3    12    1
     7     4     5   ar
     8     4    11    2
     9     5     6   ar
    10     5    10   ar
    11     6     7   ar
    12     7     8   ar
    13     8     9   ar
    14     9    10   ar
    15    13    14   am
    16    13    24    2
    17    14    15    1
    18    14    19    1
    19    15    16   ar
    20    15    23   ar
    21    16    17    1
    22    16    20   ar
    23    17    18    1
    24    18    19    1
    25    20    21   ar
    26    21    22   ar
    27    22    23   ar
