@<TRIPOS>MOLECULE
34780_ChemDiv_8015-7462
 22 24 0 0 0
SMALL
GASTEIGER
Energy = 0

@<TRIPOS>ATOM
      1 S          -1.3000    0.5000    0.0000 S.O2    1  LIG1        0.0634
      2 N          -2.1710    1.0000    0.0000 N.3     1  LIG1       -0.1504
      3 C          -2.1710    2.0000    0.0000 C.3     1  LIG1        0.1279
      4 C          -3.0330    2.5000    0.0000 C.3     1  LIG1        0.1613
      5 O          -3.9000    2.0000    0.0000 O.3     1  LIG1       -0.3507
      6 C          -3.9000    1.0000    0.0000 C.3     1  LIG1        0.1613
      7 C          -3.0330    0.5000    0.0000 C.3     1  LIG1        0.1279
      8 C          -0.4330    0.0000    0.0000 C.ar    1  LIG1        0.1220
      9 C           0.4330    0.5000    0.0000 C.ar    1  LIG1        0.0185
     10 C           1.3040    0.0000    0.0000 C.ar    1  LIG1        0.0128
     11 C           1.3040   -1.0040    0.0000 C.ar    1  LIG1        0.0530
     12 N           2.1670   -1.4960    0.0000 N.am    1  LIG1       -0.2416
     13 C           3.0330   -1.0040    0.0000 C.2     1  LIG1        0.3113
     14 N           3.0330    0.0000    0.0000 N.am    1  LIG1       -0.2579
     15 C           2.1670    0.5000    0.0000 C.3     1  LIG1        0.1230
     16 C           3.8960    0.5000    0.0000 C.3     1  LIG1        0.1168
     17 O           3.8960   -1.4960    0.0000 O.2     1  LIG1       -0.2520
     18 C           2.1670   -2.4960    0.0000 C.3     1  LIG1        0.1216
     19 C           0.4330   -1.4960    0.0000 C.ar    1  LIG1        0.0161
     20 C          -0.4330   -1.0040    0.0000 C.ar    1  LIG1        0.0212
     21 O          -0.7960    1.3710    0.0000 O.2     1  LIG1       -0.1528
     22 O          -1.8000   -0.3710    0.0000 O.2     1  LIG1       -0.1528
@<TRIPOS>BOND
     1     1     2    1
     2     1     8    1
     3     1    21    2
     4     1    22    2
     5     2     3    1
     6     2     7    1
     7     3     4    1
     8     4     5    1
     9     5     6    1
    10     6     7    1
    11     8     9   ar
    12     8    20   ar
    13     9    10   ar
    14    10    11   ar
    15    10    15    1
    16    11    12    1
    17    11    19   ar
    18    12    13   am
    19    12    18    1
    20    13    14   am
    21    13    17    2
    22    14    15    1
    23    14    16    1
    24    19    20   ar
