@<TRIPOS>MOLECULE
34783_ChemDiv_8015-3560
 20 22 0 0 0
SMALL
GASTEIGER
Energy = 0

@<TRIPOS>ATOM
      1 N           3.0670    1.7250    0.0000 N.ar    1  LIG1       -0.2180
      2 N           2.7790    2.6790    0.0000 N.ar    1  LIG1       -0.2180
      3 N           1.7750    2.7040    0.0000 N.ar    1  LIG1       -0.2895
      4 C           1.4540    1.7630    0.0000 C.ar    1  LIG1        0.0444
      5 N           2.2380    1.1540    0.0000 N.ar    1  LIG1       -0.2895
      6 C           0.4920    1.4710    0.0000 C.ar    1  LIG1       -0.0149
      7 C          -0.2380    2.1540    0.0000 C.ar    1  LIG1       -0.0035
      8 C          -1.2000    1.8670    0.0000 C.ar    1  LIG1        0.0363
      9 C          -1.4250    0.8960    0.0000 C.ar    1  LIG1        0.1390
     10 O          -2.3830    0.6130    0.0000 O.3     1  LIG1       -0.4707
     11 C          -2.6170   -0.3540    0.0000 C.3     1  LIG1        0.2317
     12 C          -1.8880   -1.0380    0.0000 C.ar    1  LIG1        0.0172
     13 C          -2.1170   -2.0170    0.0000 C.ar    1  LIG1       -0.0223
     14 C          -3.0710   -2.3040    0.0000 C.3     1  LIG1        0.0308
     15 C          -1.3830   -2.7000    0.0000 C.ar    1  LIG1       -0.0045
     16 C          -0.4250   -2.4130    0.0000 C.ar    1  LIG1       -0.0003
     17 C          -0.2000   -1.4380    0.0000 C.ar    1  LIG1       -0.0002
     18 C          -0.9290   -0.7460    0.0000 C.ar    1  LIG1       -0.0010
     19 C          -0.7040    0.2130    0.0000 C.ar    1  LIG1        0.0363
     20 C           0.2540    0.5000    0.0000 C.ar    1  LIG1       -0.0035
@<TRIPOS>BOND
     1     1     2   ar
     2     1     5   ar
     3     2     3   ar
     4     3     4   ar
     5     4     5   ar
     6     4     6    1
     7     6     7   ar
     8     6    20   ar
     9     7     8   ar
    10     8     9   ar
    11     9    10    1
    12     9    19   ar
    13    10    11    1
    14    11    12    1
    15    12    13   ar
    16    12    18   ar
    17    13    14    1
    18    13    15   ar
    19    15    16   ar
    20    16    17   ar
    21    17    18   ar
    22    19    20   ar
