@<TRIPOS>MOLECULE
34790_ChemDiv_8016-9973
 17 20 0 0 0
SMALL
GASTEIGER
Energy = 0

@<TRIPOS>ATOM
      1 N           0.1170   -1.3710    0.0000 N.ar    1  LIG1       -0.1954
      2 C          -0.8880   -1.3710    0.0000 C.ar    1  LIG1        0.1985
      3 N          -1.1960   -2.3290    0.0000 N.ar    1  LIG1       -0.1809
      4 S          -0.3880   -2.9080    0.0000 S.2     1  LIG1        0.0531
      5 C           0.4290   -2.3290    0.0000 C.ar    1  LIG1        0.2197
      6 N           1.3920   -2.5830    0.0000 N.pl3   1  LIG1       -0.0982
      7 S          -1.3960   -0.5080    0.0000 S.3     1  LIG1       -0.0768
      8 C          -0.8960    0.3630    0.0000 C.3     1  LIG1        0.0461
      9 C          -1.2460    1.3630    0.0000 C.3     1  LIG1        0.0104
     10 C          -0.4500    1.9460    0.0000 C.3     1  LIG1        0.0008
     11 C          -0.1630    2.9130    0.0000 C.3     1  LIG1        0.0001
     12 C           0.1250    1.8210    0.0000 C.3     1  LIG1        0.0008
     13 C          -0.6000    1.2580    0.0000 C.3     1  LIG1        0.0104
     14 C           0.9460    1.3080    0.0000 C.3     1  LIG1        0.0001
     15 C           0.7460    0.4000    0.0000 C.3     1  LIG1        0.0008
     16 C          -0.0580   -0.1710    0.0000 C.3     1  LIG1        0.0104
     17 C           0.4290    1.4000    0.0000 C.3     1  LIG1        0.0001
@<TRIPOS>BOND
     1     1     2   ar
     2     1     5   ar
     3     2     3   ar
     4     2     7    1
     5     3     4   ar
     6     4     5   ar
     7     5     6    1
     8     7     8    1
     9     8     9    1
    10     8    13    1
    11     8    16    1
    12     9    10    1
    13    10    11    1
    14    10    17    1
    15    11    12    1
    16    12    13    1
    17    12    14    1
    18    14    15    1
    19    15    16    1
    20    15    17    1
