@<TRIPOS>MOLECULE
34792_ChemDiv_8017-0007
 12 12 0 0 0
SMALL
GASTEIGER
Energy = 0

@<TRIPOS>ATOM
      1 N           1.1790   -1.3580    0.0000 N.am    1  LIG1       -0.1248
      2 C           1.4920   -0.4080    0.0000 C.2     1  LIG1        0.3463
      3 N           0.6790    0.1830    0.0000 N.am    1  LIG1       -0.1786
      4 C          -0.1250   -0.4080    0.0000 C.3     1  LIG1        0.1859
      5 C           0.1790   -1.3580    0.0000 C.2     1  LIG1        0.2696
      6 O          -0.4080   -2.1670    0.0000 O.2     1  LIG1       -0.2710
      7 C          -1.0830   -0.0960    0.0000 C.3     1  LIG1        0.1406
      8 C          -1.2880    0.8830    0.0000 C.2     1  LIG1        0.3194
      9 O          -0.5460    1.5500    0.0000 O.2     1  LIG1       -0.2500
     10 O          -2.2380    1.1960    0.0000 O.3     1  LIG1       -0.4443
     11 C          -2.4460    2.1710    0.0000 C.3     1  LIG1        0.2556
     12 O           2.4420   -0.0960    0.0000 O.2     1  LIG1       -0.2487
@<TRIPOS>BOND
     1     1     2   am
     2     1     5   am
     3     2     3   am
     4     2    12    2
     5     3     4    1
     6     4     5    1
     7     4     7    1
     8     5     6    2
     9     7     8    1
    10     8     9    2
    11     8    10    1
    12    10    11    1
