@<TRIPOS>MOLECULE
34796_ChemDiv_8017-0163
 27 31 0 0 0
SMALL
GASTEIGER
Energy = 0

@<TRIPOS>ATOM
      1 C           2.3460   -0.3170    0.0000 C.3     1  LIG1        0.0705
      2 C           1.4710    0.1830    0.0000 C.2     1  LIG1        0.2407
      3 N           0.5960   -0.3170    0.0000 N.am    1  LIG1       -0.2023
      4 C          -0.2790    0.1830    0.0000 C.3     1  LIG1        0.1231
      5 C          -0.2790    1.1960    0.0000 C.3     1  LIG1        0.0678
      6 C          -1.1540    1.7040    0.0000 C.2     1  LIG1        0.0524
      7 O          -2.0290    1.1960    0.0000 O.co2   1  LIG1       -0.5491
      8 O          -1.1540    2.7170    0.0000 O.co2   1  LIG1       -0.5491
      9 C          -1.1540   -0.3170    0.0000 C.ar    1  LIG1        0.0010
     10 C          -2.0290    0.1830    0.0000 C.ar    1  LIG1        0.0376
     11 C          -2.9040   -0.3170    0.0000 C.ar    1  LIG1        0.1762
     12 C          -2.9040   -1.3290    0.0000 C.ar    1  LIG1        0.1764
     13 O          -3.8670   -1.6420    0.0000 O.3     1  LIG1       -0.4346
     14 C          -4.4630   -0.8250    0.0000 C.3     1  LIG1        0.4294
     15 O          -3.8670   -0.0040    0.0000 O.3     1  LIG1       -0.4346
     16 C          -2.0290   -1.8290    0.0000 C.ar    1  LIG1        0.0399
     17 C          -1.1540   -1.3290    0.0000 C.ar    1  LIG1        0.0007
     18 O           1.4710    1.1960    0.0000 O.2     1  LIG1       -0.2734
     19 C           2.8540   -1.1920    0.0000 C.3     1  LIG1        0.0087
     20 C           3.8170   -1.7500    0.0000 C.3     1  LIG1        0.0005
     21 C           4.4580   -1.1670    0.0000 C.3     1  LIG1        0.0000
     22 C           4.0960   -0.3170    0.0000 C.3     1  LIG1        0.0005
     23 C           3.2210    0.1830    0.0000 C.3     1  LIG1        0.0087
     24 C           4.0920   -1.0500    0.0000 C.3     1  LIG1        0.0000
     25 C           3.2830   -1.8670    0.0000 C.3     1  LIG1        0.0005
     26 C           2.3460   -1.3290    0.0000 C.3     1  LIG1        0.0087
     27 C           3.5710   -2.7130    0.0000 C.3     1  LIG1        0.0000
@<TRIPOS>BOND
     1     1     2    1
     2     1    19    1
     3     1    23    1
     4     1    26    1
     5     2     3   am
     6     2    18    2
     7     3     4    1
     8     4     5    1
     9     4     9    1
    10     5     6    1
    11     6     7   ar
    12     6     8   ar
    13     9    10   ar
    14     9    17   ar
    15    10    11   ar
    16    11    12   ar
    17    11    15    1
    18    12    13    1
    19    12    16   ar
    20    13    14    1
    21    14    15    1
    22    16    17   ar
    23    19    20    1
    24    20    21    1
    25    20    27    1
    26    21    22    1
    27    22    23    1
    28    22    24    1
    29    24    25    1
    30    25    26    1
    31    25    27    1
