@<TRIPOS>MOLECULE
34798_ChemDiv_8017-0227
 13 15 0 0 0
SMALL
GASTEIGER
Energy = 0

@<TRIPOS>ATOM
      1 C           0.3540    0.0330    0.0000 C.ar    1  LIG1        0.0696
      2 C          -0.5210   -0.4790    0.0000 C.ar    1  LIG1        0.1163
      3 C          -0.5210   -1.4790    0.0000 C.ar    1  LIG1        0.1094
      4 N          -1.4710   -1.7830    0.0000 N.ar    1  LIG1       -0.1901
      5 S          -2.0580   -0.9790    0.0000 S.2     1  LIG1        0.1165
      6 N          -1.4710   -0.1580    0.0000 N.ar    1  LIG1       -0.1896
      7 C           0.3540   -1.9710    0.0000 C.ar    1  LIG1        0.0229
      8 C           1.2210   -1.4710    0.0000 C.ar    1  LIG1        0.0213
      9 C           1.2210   -0.4710    0.0000 C.ar    1  LIG1        0.0909
     10 N           1.9580    0.1960    0.0000 N.ar    1  LIG1       -0.2214
     11 C           1.5540    1.1130    0.0000 C.ar    1  LIG1        0.2006
     12 S           0.5580    1.0080    0.0000 S.2     1  LIG1       -0.0468
     13 N           2.0540    1.9750    0.0000 N.pl3   1  LIG1       -0.0998
@<TRIPOS>BOND
     1     1     2   ar
     2     1     9   ar
     3     1    12   ar
     4     2     3   ar
     5     2     6   ar
     6     3     4   ar
     7     3     7   ar
     8     4     5   ar
     9     5     6   ar
    10     7     8   ar
    11     8     9   ar
    12     9    10   ar
    13    10    11   ar
    14    11    12   ar
    15    11    13    1
