@<TRIPOS>MOLECULE
34806_ChemDiv_8016-5818
 27 31 0 0 0
SMALL
GASTEIGER
Energy = 0

@<TRIPOS>ATOM
      1 C          -1.6040   -0.8630    0.0000 C.ar    1  LIG1        0.1126
      2 C          -2.1040    0.0080    0.0000 C.ar    1  LIG1        0.0986
      3 C          -3.1040    0.0080    0.0000 C.ar    1  LIG1        0.0306
      4 C          -3.4170    0.9540    0.0000 C.3     1  LIG1        0.2357
      5 O          -2.6040    1.5420    0.0000 O.3     1  LIG1       -0.4404
      6 C          -1.7920    0.9540    0.0000 C.2     1  LIG1        0.3433
      7 O          -0.9290    1.4540    0.0000 O.2     1  LIG1       -0.2448
      8 C          -3.6040   -0.8630    0.0000 C.ar    1  LIG1        0.0143
      9 C          -3.1040   -1.7290    0.0000 C.ar    1  LIG1        0.0597
     10 N          -2.1040   -1.7290    0.0000 N.ar    1  LIG1       -0.2433
     11 C          -3.6040   -2.5920    0.0000 C.3     1  LIG1        0.0521
     12 S          -0.6040   -0.8630    0.0000 S.3     1  LIG1       -0.0883
     13 C          -0.1040    0.0080    0.0000 C.3     1  LIG1        0.1087
     14 C           0.8920    0.0080    0.0000 C.2     1  LIG1        0.0645
     15 N           1.3920   -0.8630    0.0000 N.2     1  LIG1       -0.2773
     16 C           2.3920   -0.8630    0.0000 C.3     1  LIG1        0.0883
     17 C           2.8920    0.0080    0.0000 C.3     1  LIG1        0.0488
     18 C           2.3920    0.8670    0.0000 C.ar    1  LIG1       -0.0192
     19 C           1.3920    0.8670    0.0000 C.ar    1  LIG1        0.0101
     20 C           0.8920    1.7290    0.0000 C.ar    1  LIG1        0.0009
     21 C           1.3920    2.5960    0.0000 C.ar    1  LIG1        0.0000
     22 C           2.3920    2.5960    0.0000 C.ar    1  LIG1       -0.0003
     23 C           2.8920    1.7290    0.0000 C.ar    1  LIG1       -0.0042
     24 C           1.9880   -1.7750    0.0000 C.3     1  LIG1        0.0228
     25 C           2.7290   -2.4420    0.0000 C.3     1  LIG1        0.0020
     26 C           3.6000   -1.9420    0.0000 C.3     1  LIG1        0.0020
     27 C           3.3920   -0.9670    0.0000 C.3     1  LIG1        0.0228
@<TRIPOS>BOND
     1     1     2   ar
     2     1    10   ar
     3     1    12    1
     4     2     3   ar
     5     2     6    1
     6     3     4    1
     7     3     8   ar
     8     4     5    1
     9     5     6    1
    10     6     7    2
    11     8     9   ar
    12     9    10   ar
    13     9    11    1
    14    12    13    1
    15    13    14    1
    16    14    15    2
    17    14    19    1
    18    15    16    1
    19    16    17    1
    20    16    24    1
    21    16    27    1
    22    17    18    1
    23    18    19   ar
    24    18    23   ar
    25    19    20   ar
    26    20    21   ar
    27    21    22   ar
    28    22    23   ar
    29    24    25    1
    30    25    26    1
    31    26    27    1
