@<TRIPOS>MOLECULE
34803_ChemDiv_8016-8263
 13 13 0 0 0
SMALL
GASTEIGER
Energy = 0

@<TRIPOS>ATOM
      1 C           0.0000    0.0000    0.0000 C.ar    1  LIG1        0.1273
      2 C           0.0000   -1.0000    0.0000 C.ar    1  LIG1        0.3496
      3 O          -0.8630   -1.4920    0.0000 O.2     1  LIG1       -0.4253
      4 C          -1.7250   -1.0000    0.0000 C.ar    1  LIG1        0.1280
      5 C          -1.7250    0.0000    0.0000 C.ar    1  LIG1        0.0514
      6 C          -0.8630    0.5080    0.0000 C.ar    1  LIG1        0.1008
      7 N          -0.8710    1.5080    0.0000 N.pl3   1  LIG1       -0.1277
      8 C          -2.6000   -1.4920    0.0000 C.3     1  LIG1        0.0726
      9 O           0.8630   -1.5040    0.0000 O.2     1  LIG1       -0.2443
     10 C           0.8630    0.5080    0.0000 C.2     1  LIG1        0.1806
     11 O           0.8540    1.5080    0.0000 O.2     1  LIG1       -0.2911
     12 C           1.7290    0.0080    0.0000 C.3     1  LIG1        0.0694
     13 C           2.5960    0.5080    0.0000 C.3     1  LIG1        0.0086
@<TRIPOS>BOND
     1     1     2   ar
     2     1     6   ar
     3     1    10    1
     4     2     3   ar
     5     2     9    2
     6     3     4   ar
     7     4     5   ar
     8     4     8    1
     9     5     6   ar
    10     6     7    1
    11    10    11    2
    12    10    12    1
    13    12    13    1
