@<TRIPOS>MOLECULE
34802_ChemDiv_8016-5733
 29 31 0 0 0
SMALL
GASTEIGER
Energy = 0

@<TRIPOS>ATOM
      1 S          -0.4960    0.8580    0.0000 S.O2    1  LIG1       -0.0578
      2 C          -1.4960    0.8710    0.0000 C.ar    1  LIG1        0.0896
      3 C          -1.9830    1.7460    0.0000 C.ar    1  LIG1        0.0246
      4 C          -2.9830    1.7580    0.0000 C.ar    1  LIG1        0.0918
      5 C          -3.4750    2.6330    0.0000 C.2     1  LIG1        0.2872
      6 O          -2.9580    3.4960    0.0000 O.2     1  LIG1       -0.2666
      7 N          -4.4830    2.6460    0.0000 N.am    1  LIG1       -0.0836
      8 C          -3.5000    0.9000    0.0000 C.ar    1  LIG1        0.1430
      9 C          -3.0080    0.0210    0.0000 C.ar    1  LIG1        0.0383
     10 C          -2.0080    0.0210    0.0000 C.ar    1  LIG1        0.0200
     11 O          -4.5000    0.9080    0.0000 O.3     1  LIG1       -0.4753
     12 C          -5.0210    0.0460    0.0000 C.3     1  LIG1        0.2055
     13 C          -4.5210   -0.8330    0.0000 C.3     1  LIG1        0.0512
     14 N           0.5080    0.8460    0.0000 N.pl3   1  LIG1       -0.5358
     15 C           1.0040   -0.0250    0.0000 C.ar    1  LIG1       -0.1123
     16 C           1.9960   -0.0250    0.0000 C.ar    1  LIG1       -0.0237
     17 C           2.4830   -0.8960    0.0000 C.ar    1  LIG1        0.0027
     18 C           1.9830   -1.7580    0.0000 C.ar    1  LIG1        0.0535
     19 C           2.4710   -2.6330    0.0000 C.2     1  LIG1        0.2490
     20 N           3.4710   -2.6330    0.0000 N.am    1  LIG1       -0.2761
     21 C           4.0540   -3.4420    0.0000 C.3     1  LIG1        0.0938
     22 C           5.0040   -3.1420    0.0000 C.3     1  LIG1        0.0233
     23 C           5.0170   -2.1460    0.0000 C.3     1  LIG1        0.0233
     24 C           4.0670   -1.8330    0.0000 C.3     1  LIG1        0.0938
     25 O           1.9710   -3.4920    0.0000 O.2     1  LIG1       -0.2699
     26 C           0.9830   -1.7460    0.0000 C.ar    1  LIG1        0.0027
     27 C           0.4920   -0.8830    0.0000 C.ar    1  LIG1       -0.0237
     28 O          -0.5130   -0.1420    0.0000 O.2     1  LIG1       -0.1842
     29 O          -0.4710    1.8580    0.0000 O.2     1  LIG1       -0.1842
@<TRIPOS>BOND
     1     1     2    1
     2     1    14    1
     3     1    28    2
     4     1    29    2
     5     2     3   ar
     6     2    10   ar
     7     3     4   ar
     8     4     5    1
     9     4     8   ar
    10     5     6    2
    11     5     7   am
    12     8     9   ar
    13     8    11    1
    14     9    10   ar
    15    11    12    1
    16    12    13    1
    17    14    15    1
    18    15    16   ar
    19    15    27   ar
    20    16    17   ar
    21    17    18   ar
    22    18    19    1
    23    18    26   ar
    24    19    20   am
    25    19    25    2
    26    20    21    1
    27    20    24    1
    28    21    22    1
    29    22    23    1
    30    23    24    1
    31    26    27   ar
