@<TRIPOS>MOLECULE
34807_ChemDiv_8016-8265
 16 16 0 0 0
SMALL
GASTEIGER
Energy = 0

@<TRIPOS>ATOM
      1 C           0.0540   -0.7500    0.0000 C.ar    1  LIG1        0.1254
      2 C           0.0540   -1.7500    0.0000 C.ar    1  LIG1        0.3495
      3 O          -0.8080   -2.2420    0.0000 O.2     1  LIG1       -0.4253
      4 C          -1.6710   -1.7500    0.0000 C.ar    1  LIG1        0.1279
      5 C          -1.6710   -0.7500    0.0000 C.ar    1  LIG1        0.0494
      6 C          -0.8080   -0.2420    0.0000 C.ar    1  LIG1        0.0770
      7 N          -0.8130    0.7580    0.0000 N.pl3   1  LIG1       -0.2390
      8 C          -1.6830    1.2580    0.0000 C.3     1  LIG1        0.0926
      9 C          -2.6580    0.9960    0.0000 C.3     1  LIG1        0.0233
     10 C          -1.6880    2.2580    0.0000 C.3     1  LIG1        0.0233
     11 C          -2.5380   -2.2420    0.0000 C.3     1  LIG1        0.0726
     12 O           0.9210   -2.2540    0.0000 O.2     1  LIG1       -0.2443
     13 C           0.9210   -0.2420    0.0000 C.2     1  LIG1        0.1806
     14 O           0.9210    0.7580    0.0000 O.2     1  LIG1       -0.2911
     15 C           1.7830   -0.7420    0.0000 C.3     1  LIG1        0.0694
     16 C           2.6540   -0.2420    0.0000 C.3     1  LIG1        0.0086
@<TRIPOS>BOND
     1     1     2   ar
     2     1     6   ar
     3     1    13    1
     4     2     3   ar
     5     2    12    2
     6     3     4   ar
     7     4     5   ar
     8     4    11    1
     9     5     6   ar
    10     6     7    1
    11     7     8    1
    12     8     9    1
    13     8    10    1
    14    13    14    2
    15    13    15    1
    16    15    16    1
