@<TRIPOS>MOLECULE
34809_ChemDiv_8016-8266
 16 16 0 0 0
SMALL
GASTEIGER
Energy = 0

@<TRIPOS>ATOM
      1 C           0.4960   -0.3670    0.0000 C.ar    1  LIG1        0.1254
      2 C           0.4960   -1.3670    0.0000 C.ar    1  LIG1        0.3495
      3 O          -0.3710   -1.8670    0.0000 O.2     1  LIG1       -0.4253
      4 C          -1.2330   -1.3670    0.0000 C.ar    1  LIG1        0.1279
      5 C          -1.2330   -0.3670    0.0000 C.ar    1  LIG1        0.0494
      6 C          -0.3710    0.1380    0.0000 C.ar    1  LIG1        0.0771
      7 N          -0.3830    1.1380    0.0000 N.pl3   1  LIG1       -0.2344
      8 C          -1.2500    1.6380    0.0000 C.3     1  LIG1        0.1477
      9 C          -2.2210    1.3790    0.0000 C.3     1  LIG1        0.2053
     10 O          -3.0880    1.8790    0.0000 O.3     1  LIG1       -0.2184
     11 C          -2.1080   -1.8670    0.0000 C.3     1  LIG1        0.0726
     12 O           1.3580   -1.8750    0.0000 O.2     1  LIG1       -0.2443
     13 C           1.3580    0.1380    0.0000 C.2     1  LIG1        0.1806
     14 O           1.3540    1.1380    0.0000 O.2     1  LIG1       -0.2911
     15 C           2.2210   -0.3670    0.0000 C.3     1  LIG1        0.0694
     16 C           3.0830    0.1380    0.0000 C.3     1  LIG1        0.0086
@<TRIPOS>BOND
     1     1     2   ar
     2     1     6   ar
     3     1    13    1
     4     2     3   ar
     5     2    12    2
     6     3     4   ar
     7     4     5   ar
     8     4    11    1
     9     5     6   ar
    10     6     7    1
    11     7     8    1
    12     8     9    1
    13     9    10    1
    14    13    14    2
    15    13    15    1
    16    15    16    1
