@<TRIPOS>MOLECULE
34804_ChemDiv_K786-3259
 35 38 0 0 0
SMALL
GASTEIGER
Energy = 0

@<TRIPOS>ATOM
      1 S          -2.1790   -1.4960    0.0000 S.O2    1  LIG1       -0.0577
      2 N          -1.3040   -0.9960    0.0000 N.pl3   1  LIG1       -0.5348
      3 C          -0.4330   -0.5040    0.0000 C.ar    1  LIG1       -0.0985
      4 C          -0.4330    0.4960    0.0000 C.ar    1  LIG1        0.0254
      5 N          -1.3040    1.0080    0.0000 N.pl3   1  LIG1       -0.3089
      6 C          -2.2580    0.6960    0.0000 C.3     1  LIG1        0.0908
      7 C          -2.8500    1.5080    0.0000 C.3     1  LIG1        0.0232
      8 C          -2.2540    2.3170    0.0000 C.3     1  LIG1        0.0232
      9 C          -1.3040    2.0080    0.0000 C.3     1  LIG1        0.0908
     10 C           0.4290    1.0080    0.0000 C.ar    1  LIG1        0.0128
     11 C           1.2960    0.5080    0.0000 C.ar    1  LIG1        0.0057
     12 C           1.2960   -0.5040    0.0000 C.ar    1  LIG1        0.0533
     13 C           2.1710   -1.0040    0.0000 C.2     1  LIG1        0.2650
     14 N           3.0380   -0.4920    0.0000 N.am    1  LIG1       -0.1967
     15 C           3.0380    0.4960    0.0000 C.3     1  LIG1        0.1448
     16 C           3.9040    0.9920    0.0000 C.ar    1  LIG1        0.0339
     17 C           4.7630    0.4960    0.0000 C.ar    1  LIG1        0.1364
     18 C           5.6290    0.9920    0.0000 C.ar    1  LIG1        0.0371
     19 C           5.6170    1.9960    0.0000 C.ar    1  LIG1        0.0098
     20 C           4.7540    2.4960    0.0000 C.ar    1  LIG1        0.0345
     21 C           3.9000    1.9830    0.0000 C.ar    1  LIG1        0.0072
     22 BR          4.7460    3.4960    0.0000 Br      1  LIG1       -0.0490
     23 O           4.7630   -0.4920    0.0000 O.3     1  LIG1       -0.4717
     24 C           5.6330   -0.9960    0.0000 C.3     1  LIG1        0.2525
     25 O           2.1750   -2.0040    0.0000 O.2     1  LIG1       -0.2684
     26 C           0.4290   -1.0040    0.0000 C.ar    1  LIG1       -0.0181
     27 C          -3.0420   -1.9960    0.0000 C.ar    1  LIG1        0.0893
     28 C          -3.0420   -2.9790    0.0000 C.ar    1  LIG1        0.0166
     29 C          -3.8960   -3.4790    0.0000 C.ar    1  LIG1       -0.0030
     30 C          -4.7710   -2.9920    0.0000 C.ar    1  LIG1       -0.0218
     31 C          -4.7710   -1.9920    0.0000 C.ar    1  LIG1       -0.0030
     32 C          -3.9080   -1.4880    0.0000 C.ar    1  LIG1        0.0166
     33 C          -5.6380   -3.4920    0.0000 C.3     1  LIG1        0.0310
     34 O          -1.6790   -2.3580    0.0000 O.2     1  LIG1       -0.1842
     35 O          -2.6790   -0.6250    0.0000 O.2     1  LIG1       -0.1842
@<TRIPOS>BOND
     1     1     2    1
     2     1    27    1
     3     1    34    2
     4     1    35    2
     5     2     3    1
     6     3     4   ar
     7     3    26   ar
     8     4     5    1
     9     4    10   ar
    10     5     6    1
    11     5     9    1
    12     6     7    1
    13     7     8    1
    14     8     9    1
    15    10    11   ar
    16    11    12   ar
    17    12    13    1
    18    12    26   ar
    19    13    14   am
    20    13    25    2
    21    14    15    1
    22    15    16    1
    23    16    17   ar
    24    16    21   ar
    25    17    18   ar
    26    17    23    1
    27    18    19   ar
    28    19    20   ar
    29    20    21   ar
    30    20    22    1
    31    23    24    1
    32    27    28   ar
    33    27    32   ar
    34    28    29   ar
    35    29    30   ar
    36    30    31   ar
    37    30    33    1
    38    31    32   ar
