@<TRIPOS>MOLECULE
34801_ChemDiv_8016-3545
 17 17 0 0 0
SMALL
GASTEIGER
Energy = 0

@<TRIPOS>ATOM
      1 C           1.3040   -0.7500    0.0000 C.ar    1  LIG1        0.1254
      2 C           1.3040   -1.7500    0.0000 C.ar    1  LIG1        0.3495
      3 O           0.4380   -2.2420    0.0000 O.2     1  LIG1       -0.4253
      4 C          -0.4250   -1.7500    0.0000 C.ar    1  LIG1        0.1279
      5 C          -0.4250   -0.7500    0.0000 C.ar    1  LIG1        0.0494
      6 C           0.4380   -0.2380    0.0000 C.ar    1  LIG1        0.0770
      7 N           0.4290    0.7580    0.0000 N.pl3   1  LIG1       -0.2368
      8 C          -0.4330    1.2710    0.0000 C.3     1  LIG1        0.1181
      9 C          -1.3000    0.7580    0.0000 C.3     1  LIG1        0.0650
     10 C          -2.1710    1.2580    0.0000 C.2     1  LIG1        0.0521
     11 O          -3.0330    0.7580    0.0000 O.co2   1  LIG1       -0.5491
     12 O          -2.1830    2.2580    0.0000 O.co2   1  LIG1       -0.5491
     13 C          -1.2880   -2.2420    0.0000 C.3     1  LIG1        0.0726
     14 O           2.1630   -2.2540    0.0000 O.2     1  LIG1       -0.2443
     15 C           2.1630   -0.2380    0.0000 C.2     1  LIG1        0.1810
     16 O           2.1630    0.7580    0.0000 O.2     1  LIG1       -0.2911
     17 C           3.0290   -0.7420    0.0000 C.3     1  LIG1        0.0775
@<TRIPOS>BOND
     1     1     2   ar
     2     1     6   ar
     3     1    15    1
     4     2     3   ar
     5     2    14    2
     6     3     4   ar
     7     4     5   ar
     8     4    13    1
     9     5     6   ar
    10     6     7    1
    11     7     8    1
    12     8     9    1
    13     9    10    1
    14    10    11   ar
    15    10    12   ar
    16    15    16    2
    17    15    17    1
