@<TRIPOS>MOLECULE
34805_ChemDiv_8016-8264
 14 14 0 0 0
SMALL
GASTEIGER
Energy = 0

@<TRIPOS>ATOM
      1 C           0.0000   -0.2500    0.0000 C.ar    1  LIG1        0.1254
      2 C           0.0000   -1.2540    0.0000 C.ar    1  LIG1        0.3495
      3 O          -0.8630   -1.7420    0.0000 O.2     1  LIG1       -0.4253
      4 C          -1.7250   -1.2540    0.0000 C.ar    1  LIG1        0.1279
      5 C          -1.7250   -0.2500    0.0000 C.ar    1  LIG1        0.0494
      6 C          -0.8630    0.2580    0.0000 C.ar    1  LIG1        0.0771
      7 N          -0.8710    1.2580    0.0000 N.pl3   1  LIG1       -0.2353
      8 C          -1.7460    1.7580    0.0000 C.3     1  LIG1        0.1355
      9 C          -2.5960   -1.7420    0.0000 C.3     1  LIG1        0.0726
     10 O           0.8630   -1.7540    0.0000 O.2     1  LIG1       -0.2443
     11 C           0.8630    0.2580    0.0000 C.2     1  LIG1        0.1806
     12 O           0.8540    1.2580    0.0000 O.2     1  LIG1       -0.2911
     13 C           1.7290   -0.2420    0.0000 C.3     1  LIG1        0.0694
     14 C           2.5920    0.2580    0.0000 C.3     1  LIG1        0.0086
@<TRIPOS>BOND
     1     1     2   ar
     2     1     6   ar
     3     1    11    1
     4     2     3   ar
     5     2    10    2
     6     3     4   ar
     7     4     5   ar
     8     4     9    1
     9     5     6   ar
    10     6     7    1
    11     7     8    1
    12    11    12    2
    13    11    13    1
    14    13    14    1
