@<TRIPOS>MOLECULE
34815_ChemDiv_8016-8270
 20 21 0 0 0
SMALL
GASTEIGER
Energy = 0

@<TRIPOS>ATOM
      1 C           1.0290   -0.4750    0.0000 C.ar    1  LIG1        0.1254
      2 C           1.0290   -1.4750    0.0000 C.ar    1  LIG1        0.3495
      3 O           0.1670   -1.9670    0.0000 O.2     1  LIG1       -0.4253
      4 C          -0.6960   -1.4750    0.0000 C.ar    1  LIG1        0.1279
      5 C          -0.6960   -0.4750    0.0000 C.ar    1  LIG1        0.0495
      6 C           0.1670    0.0290    0.0000 C.ar    1  LIG1        0.0774
      7 N           0.1630    1.0290    0.0000 N.pl3   1  LIG1       -0.2324
      8 C          -0.7080    1.5170    0.0000 C.3     1  LIG1        0.1385
      9 C          -1.6830    1.2580    0.0000 C.ar    1  LIG1       -0.0007
     10 C          -2.3880    1.9790    0.0000 C.ar    1  LIG1       -0.0026
     11 C          -3.3580    1.7170    0.0000 C.ar    1  LIG1       -0.0003
     12 C          -3.6210    0.7460    0.0000 C.ar    1  LIG1       -0.0000
     13 C          -2.9080    0.0330    0.0000 C.ar    1  LIG1       -0.0003
     14 C          -1.9460    0.2920    0.0000 C.ar    1  LIG1       -0.0026
     15 C          -1.5580   -1.9670    0.0000 C.3     1  LIG1        0.0726
     16 O           1.8920   -1.9750    0.0000 O.2     1  LIG1       -0.2443
     17 C           1.8920    0.0290    0.0000 C.2     1  LIG1        0.1806
     18 O           1.8880    1.0290    0.0000 O.2     1  LIG1       -0.2911
     19 C           2.7540   -0.4670    0.0000 C.3     1  LIG1        0.0694
     20 C           3.6170    0.0290    0.0000 C.3     1  LIG1        0.0086
@<TRIPOS>BOND
     1     1     2   ar
     2     1     6   ar
     3     1    17    1
     4     2     3   ar
     5     2    16    2
     6     3     4   ar
     7     4     5   ar
     8     4    15    1
     9     5     6   ar
    10     6     7    1
    11     7     8    1
    12     8     9    1
    13     9    10   ar
    14     9    14   ar
    15    10    11   ar
    16    11    12   ar
    17    12    13   ar
    18    13    14   ar
    19    17    18    2
    20    17    19    1
    21    19    20    1
