@<TRIPOS>MOLECULE
34813_ChemDiv_8016-8269
 17 18 0 0 0
SMALL
GASTEIGER
Energy = 0

@<TRIPOS>ATOM
      1 C           0.0000   -0.7750    0.0000 C.ar    1  LIG1        0.1239
      2 C          -0.8630   -0.2710    0.0000 C.ar    1  LIG1        0.0597
      3 C          -1.7250   -0.7750    0.0000 C.ar    1  LIG1        0.0479
      4 C          -1.7250   -1.7750    0.0000 C.ar    1  LIG1        0.1279
      5 O          -0.8630   -2.2670    0.0000 O.2     1  LIG1       -0.4253
      6 C           0.0000   -1.7750    0.0000 C.ar    1  LIG1        0.3494
      7 O           0.8630   -2.2750    0.0000 O.2     1  LIG1       -0.2443
      8 C          -2.5960   -2.2670    0.0000 C.3     1  LIG1        0.0726
      9 N          -0.8710    0.7290    0.0000 N.pl3   1  LIG1       -0.3072
     10 C          -0.0710    1.3290    0.0000 C.3     1  LIG1        0.0908
     11 C          -0.3880    2.2790    0.0000 C.3     1  LIG1        0.0232
     12 C          -1.3960    2.2670    0.0000 C.3     1  LIG1        0.0232
     13 C          -1.6960    1.3170    0.0000 C.3     1  LIG1        0.0908
     14 C           0.8630   -0.2710    0.0000 C.2     1  LIG1        0.1805
     15 O           0.8540    0.7290    0.0000 O.2     1  LIG1       -0.2911
     16 C           1.7250   -0.7670    0.0000 C.3     1  LIG1        0.0694
     17 C           2.5920   -0.2710    0.0000 C.3     1  LIG1        0.0086
@<TRIPOS>BOND
     1     1     2   ar
     2     1     6   ar
     3     1    14    1
     4     2     3   ar
     5     2     9    1
     6     3     4   ar
     7     4     5   ar
     8     4     8    1
     9     5     6   ar
    10     6     7    2
    11     9    10    1
    12     9    13    1
    13    10    11    1
    14    11    12    1
    15    12    13    1
    16    14    15    2
    17    14    16    1
    18    16    17    1
