@<TRIPOS>MOLECULE
34811_ChemDiv_8016-8267
 18 18 0 0 0
SMALL
GASTEIGER
Energy = 0

@<TRIPOS>ATOM
      1 C           0.4960   -1.0040    0.0000 C.ar    1  LIG1        0.1254
      2 C           0.4960   -2.0040    0.0000 C.ar    1  LIG1        0.3495
      3 O          -0.3710   -2.4960    0.0000 O.2     1  LIG1       -0.4253
      4 C          -1.2330   -2.0040    0.0000 C.ar    1  LIG1        0.1279
      5 C          -1.2330   -1.0040    0.0000 C.ar    1  LIG1        0.0494
      6 C          -0.3710   -0.4960    0.0000 C.ar    1  LIG1        0.0771
      7 N          -0.3830    0.5080    0.0000 N.pl3   1  LIG1       -0.2363
      8 CA         -1.2460    1.0080    0.0000 C.3     1  LIG1        0.1253
      9 C          -1.2580    2.0080    0.0000 C.3     1  LIG1        0.2035
     10 O          -2.1210    2.5080    0.0000 O.3     1  LIG1       -0.2185
     11 C          -2.2210    0.7460    0.0000 C.3     1  LIG1        0.0243
     12 C          -3.0880    1.2460    0.0000 C.3     1  LIG1        0.0019
     13 C          -2.1000   -2.4960    0.0000 C.3     1  LIG1        0.0726
     14 O           1.3580   -2.5040    0.0000 O.2     1  LIG1       -0.2443
     15 C           1.3580   -0.4960    0.0000 C.2     1  LIG1        0.1806
     16 O           1.3540    0.5080    0.0000 O.2     1  LIG1       -0.2911
     17 C           2.2210   -0.9960    0.0000 C.3     1  LIG1        0.0694
     18 C           3.0830   -0.4960    0.0000 C.3     1  LIG1        0.0086
@<TRIPOS>BOND
     1     1     2   ar
     2     1     6   ar
     3     1    15    1
     4     2     3   ar
     5     2    14    2
     6     3     4   ar
     7     4     5   ar
     8     4    13    1
     9     5     6   ar
    10     6     7    1
    11     7     8    1
    12     8     9    1
    13     8    11    1
    14     9    10    1
    15    11    12    1
    16    15    16    2
    17    15    17    1
    18    17    18    1
