@<TRIPOS>MOLECULE
34826_ChemDiv_8017-0934
 24 27 0 0 0
SMALL
GASTEIGER
Energy = 0

@<TRIPOS>ATOM
      1 C          -0.4920   -1.4540    0.0000 C.ar    1  LIG1        0.1553
      2 C          -0.4920   -0.4540    0.0000 C.ar    1  LIG1        0.0931
      3 C          -1.3540    0.0500    0.0000 C.ar    1  LIG1        0.2838
      4 N          -2.2170   -0.4540    0.0000 N.ar    1  LIG1       -0.1837
      5 C          -2.2290   -1.4540    0.0000 C.ar    1  LIG1        0.1835
      6 N          -1.3540   -1.9500    0.0000 N.ar    1  LIG1       -0.2693
      7 C          -1.5540   -2.9290    0.0000 C.ar    1  LIG1        0.0903
      8 C          -2.5540   -3.0420    0.0000 C.ar    1  LIG1        0.0574
      9 S          -2.9670   -2.1290    0.0000 S.2     1  LIG1       -0.0478
     10 O          -1.3540    1.0460    0.0000 O.2     1  LIG1       -0.2650
     11 C           0.3670    0.0460    0.0000 C.ar    1  LIG1        0.0200
     12 C           1.2290   -0.4500    0.0000 C.ar    1  LIG1        0.1034
     13 C           1.2290   -1.4540    0.0000 C.ar    1  LIG1        0.1808
     14 N           0.3670   -1.9500    0.0000 N.ar    1  LIG1       -0.2091
     15 N           2.0920   -1.9540    0.0000 N.pl3   1  LIG1       -0.1064
     16 C           2.0920    0.0580    0.0000 C.1     1  LIG1        0.1034
     17 N           2.9630    0.5540    0.0000 N.1     1  LIG1       -0.1907
     18 C           0.3630    1.0420    0.0000 C.ar    1  LIG1        0.0007
     19 C           1.2290    1.5420    0.0000 C.ar    1  LIG1       -0.0042
     20 C           1.2290    2.5420    0.0000 C.ar    1  LIG1       -0.0218
     21 C           0.3540    3.0420    0.0000 C.ar    1  LIG1       -0.0043
     22 C          -0.5040    2.5290    0.0000 C.ar    1  LIG1       -0.0003
     23 C          -0.5040    1.5290    0.0000 C.ar    1  LIG1        0.0000
     24 C           2.0920    3.0460    0.0000 C.3     1  LIG1        0.0310
@<TRIPOS>BOND
     1     1     2   ar
     2     1     6   ar
     3     1    14   ar
     4     2     3   ar
     5     2    11   ar
     6     3     4   ar
     7     3    10    2
     8     4     5   ar
     9     5     6   ar
    10     5     9   ar
    11     6     7   ar
    12     7     8   ar
    13     8     9   ar
    14    11    12   ar
    15    11    18    1
    16    12    13   ar
    17    12    16    1
    18    13    14   ar
    19    13    15    1
    20    16    17    3
    21    18    19   ar
    22    18    23   ar
    23    19    20   ar
    24    20    21   ar
    25    20    24    1
    26    21    22   ar
    27    22    23   ar
