@<TRIPOS>MOLECULE
34828_ChemDiv_8017-0952
 21 23 0 0 0
SMALL
GASTEIGER
Energy = 0

@<TRIPOS>ATOM
      1 N           0.5040    1.7330    0.0000 N.ar    1  LIG1       -0.1773
      2 C          -0.5000    1.7330    0.0000 C.ar    1  LIG1        0.3516
      3 N          -1.0000    0.8710    0.0000 N.ar    1  LIG1       -0.2743
      4 C          -0.5000    0.0040    0.0000 C.ar    1  LIG1        0.0830
      5 C           0.5040    0.0040    0.0000 C.ar    1  LIG1        0.0532
      6 C           1.0040    0.8710    0.0000 C.ar    1  LIG1        0.1379
      7 N           2.0040    0.8710    0.0000 N.pl3   1  LIG1       -0.2931
      8 C           2.5040    0.0040    0.0000 C.3     1  LIG1        0.0922
      9 C           3.5080    0.0040    0.0000 C.3     1  LIG1        0.0215
     10 C           4.0000    0.8710    0.0000 C.3     1  LIG1        0.0035
     11 C           3.5080    1.7330    0.0000 C.3     1  LIG1        0.0215
     12 C           2.5040    1.7330    0.0000 C.3     1  LIG1        0.0922
     13 C          -2.0000    0.8710    0.0000 C.3     1  LIG1        0.1373
     14 C          -2.5000    0.0000    0.0000 C.ar    1  LIG1        0.0014
     15 C          -2.0000   -0.8670    0.0000 C.ar    1  LIG1        0.0090
     16 C          -2.5000   -1.7330    0.0000 C.ar    1  LIG1        0.0574
     17 CL         -2.0000   -2.5960    0.0000 Cl      1  LIG1       -0.0823
     18 C          -3.5040   -1.7330    0.0000 C.ar    1  LIG1        0.0114
     19 C          -4.0040   -0.8670    0.0000 C.ar    1  LIG1        0.0006
     20 C          -3.5040    0.0000    0.0000 C.ar    1  LIG1       -0.0023
     21 O          -1.0000    2.6000    0.0000 O.2     1  LIG1       -0.2444
@<TRIPOS>BOND
     1     1     2   ar
     2     1     6   ar
     3     2     3   ar
     4     2    21    2
     5     3     4   ar
     6     3    13    1
     7     4     5   ar
     8     5     6   ar
     9     6     7    1
    10     7     8    1
    11     7    12    1
    12     8     9    1
    13     9    10    1
    14    10    11    1
    15    11    12    1
    16    13    14    1
    17    14    15   ar
    18    14    20   ar
    19    15    16   ar
    20    16    17    1
    21    16    18   ar
    22    18    19   ar
    23    19    20   ar
