@<TRIPOS>MOLECULE
34823_ChemDiv_8016-1212
 15 16 0 0 0
SMALL
GASTEIGER
Energy = 0

@<TRIPOS>ATOM
      1 N           0.8670   -1.7460    0.0000 N.ar    1  LIG1       -0.1452
      2 C           0.0000   -1.2460    0.0000 C.ar    1  LIG1        0.1229
      3 C           0.0000   -0.2460    0.0000 C.ar    1  LIG1        0.1052
      4 N           0.8670    0.2580    0.0000 N.ar    1  LIG1       -0.2272
      5 C           1.7290   -0.2460    0.0000 C.ar    1  LIG1        0.1610
      6 N           1.7330   -1.2460    0.0000 N.ar    1  LIG1       -0.1330
      7 C           2.5960    0.2580    0.0000 C.3     1  LIG1        0.0756
      8 C          -0.8710    0.2580    0.0000 C.ar    1  LIG1        0.0599
      9 C          -1.7330   -0.2460    0.0000 C.ar    1  LIG1        0.1674
     10 C          -1.7330   -1.2460    0.0000 C.ar    1  LIG1        0.1755
     11 C          -0.8710   -1.7460    0.0000 C.ar    1  LIG1        0.0552
     12 F          -2.5960   -1.7540    0.0000 F       1  LIG1       -0.2009
     13 O          -2.5960    0.2580    0.0000 O.3     1  LIG1       -0.4731
     14 C          -2.6000    1.2500    0.0000 C.3     1  LIG1        0.2056
     15 C          -1.7330    1.7580    0.0000 C.3     1  LIG1        0.0512
@<TRIPOS>BOND
     1     1     2   ar
     2     1     6   ar
     3     2     3   ar
     4     2    11   ar
     5     3     4   ar
     6     3     8   ar
     7     4     5   ar
     8     5     6   ar
     9     5     7    1
    10     8     9   ar
    11     9    10   ar
    12     9    13    1
    13    10    11   ar
    14    10    12    1
    15    13    14    1
    16    14    15    1
