@<TRIPOS>MOLECULE
34829_ChemDiv_8016-5418
 21 23 0 0 0
SMALL
GASTEIGER
Energy = 0

@<TRIPOS>ATOM
      1 C           1.7540   -1.7540    0.0000 C.ar    1  LIG1        0.2817
      2 N           0.8790   -1.2540    0.0000 N.ar    1  LIG1       -0.1920
      3 C           0.8790   -0.2540    0.0000 C.ar    1  LIG1        0.1536
      4 N           1.7540    0.2630    0.0000 N.ar    1  LIG1       -0.2296
      5 C           2.6130   -0.2540    0.0000 C.ar    1  LIG1        0.0873
      6 C           2.6130   -1.2540    0.0000 C.ar    1  LIG1        0.0755
      7 C           3.4670   -1.7540    0.0000 C.ar    1  LIG1        0.0063
      8 C           4.3250   -1.2540    0.0000 C.ar    1  LIG1        0.0003
      9 C           4.3250   -0.2540    0.0000 C.ar    1  LIG1        0.0015
     10 C           3.4670    0.2630    0.0000 C.ar    1  LIG1        0.0193
     11 C           0.0040    0.2630    0.0000 C.3     1  LIG1        0.1306
     12 S          -0.8670   -0.2380    0.0000 S.3     1  LIG1       -0.0674
     13 C          -1.7420    0.2630    0.0000 C.ar    1  LIG1        0.1929
     14 N          -1.7540    1.2580    0.0000 N.ar    1  LIG1       -0.2028
     15 C          -2.6170    1.7580    0.0000 C.ar    1  LIG1        0.1747
     16 C          -3.4670    1.2580    0.0000 C.ar    1  LIG1        0.0753
     17 C          -3.4670    0.2630    0.0000 C.ar    1  LIG1        0.1747
     18 N          -2.5960   -0.2380    0.0000 N.ar    1  LIG1       -0.2028
     19 N          -4.3290   -0.2540    0.0000 N.pl3   1  LIG1       -0.1070
     20 N          -2.6170    2.7580    0.0000 N.pl3   1  LIG1       -0.1070
     21 O           1.7540   -2.7540    0.0000 O.2     1  LIG1       -0.2651
@<TRIPOS>BOND
     1     1     2   ar
     2     1     6   ar
     3     1    21    2
     4     2     3   ar
     5     3     4   ar
     6     3    11    1
     7     4     5   ar
     8     5     6   ar
     9     5    10   ar
    10     6     7   ar
    11     7     8   ar
    12     8     9   ar
    13     9    10   ar
    14    11    12    1
    15    12    13    1
    16    13    14   ar
    17    13    18   ar
    18    14    15   ar
    19    15    16   ar
    20    15    20    1
    21    16    17   ar
    22    17    18   ar
    23    17    19    1
