@<TRIPOS>MOLECULE
34827_ChemDiv_8016-1452
 24 27 0 0 0
SMALL
GASTEIGER
Energy = 0

@<TRIPOS>ATOM
      1 N          -1.2080    1.5670    0.0000 N.ar    1  LIG1       -0.1977
      2 C          -0.8880    0.6040    0.0000 C.ar    1  LIG1        0.2108
      3 N          -1.7250    0.0330    0.0000 N.ar    1  LIG1       -0.1375
      4 N          -2.5210    0.6040    0.0000 N.ar    1  LIG1       -0.2075
      5 C          -2.2080    1.5670    0.0000 C.ar    1  LIG1        0.2020
      6 C          -3.4580    0.3080    0.0000 C.ar    1  LIG1        0.0846
      7 C          -4.2250    0.9540    0.0000 C.ar    1  LIG1        0.0192
      8 C          -5.1580    0.6290    0.0000 C.ar    1  LIG1        0.0015
      9 C          -5.3580   -0.3500    0.0000 C.ar    1  LIG1        0.0001
     10 C          -4.5960   -0.9790    0.0000 C.ar    1  LIG1        0.0015
     11 C          -3.6580   -0.6540    0.0000 C.ar    1  LIG1        0.0192
     12 S           0.0420    0.3040    0.0000 S.3     1  LIG1       -0.0659
     13 C           0.7750    0.9670    0.0000 C.3     1  LIG1        0.1307
     14 C           1.7000    0.6460    0.0000 C.ar    1  LIG1        0.1536
     15 N           1.8920   -0.3290    0.0000 N.ar    1  LIG1       -0.1920
     16 C           2.8420   -0.6540    0.0000 C.ar    1  LIG1        0.2817
     17 C           3.6290   -0.0040    0.0000 C.ar    1  LIG1        0.0755
     18 C           3.4380    0.9830    0.0000 C.ar    1  LIG1        0.0873
     19 N           2.4670    1.3040    0.0000 N.ar    1  LIG1       -0.2296
     20 C           4.2040    1.6330    0.0000 C.ar    1  LIG1        0.0193
     21 C           5.1750    1.3080    0.0000 C.ar    1  LIG1        0.0015
     22 C           5.3540    0.3420    0.0000 C.ar    1  LIG1        0.0003
     23 C           4.5920   -0.3170    0.0000 C.ar    1  LIG1        0.0063
     24 O           3.0170   -1.6290    0.0000 O.2     1  LIG1       -0.2651
@<TRIPOS>BOND
     1     1     2   ar
     2     1     5   ar
     3     2     3   ar
     4     2    12    1
     5     3     4   ar
     6     4     5   ar
     7     4     6    1
     8     6     7   ar
     9     6    11   ar
    10     7     8   ar
    11     8     9   ar
    12     9    10   ar
    13    10    11   ar
    14    12    13    1
    15    13    14    1
    16    14    15   ar
    17    14    19   ar
    18    15    16   ar
    19    16    17   ar
    20    16    24    2
    21    17    18   ar
    22    17    23   ar
    23    18    19   ar
    24    18    20   ar
    25    20    21   ar
    26    21    22   ar
    27    22    23   ar
