@<TRIPOS>MOLECULE
34825_ChemDiv_8016-1230
 21 23 0 0 0
SMALL
GASTEIGER
Energy = 0

@<TRIPOS>ATOM
      1 N          -1.7330    1.2330    0.0000 N.ar    1  LIG1       -0.1827
      2 C          -1.7330    0.2330    0.0000 C.ar    1  LIG1        0.1944
      3 N          -2.5960   -0.2630    0.0000 N.ar    1  LIG1       -0.2027
      4 C          -3.4630    0.2330    0.0000 C.ar    1  LIG1        0.1766
      5 C          -3.4630    1.2330    0.0000 C.ar    1  LIG1        0.1001
      6 C          -2.5960    1.7330    0.0000 C.ar    1  LIG1        0.2840
      7 O          -2.5960    2.7580    0.0000 O.2     1  LIG1       -0.2650
      8 N          -4.3330   -0.2830    0.0000 N.pl3   1  LIG1       -0.1070
      9 S          -0.8710   -0.2630    0.0000 S.3     1  LIG1       -0.0674
     10 C          -0.0080    0.2580    0.0000 C.3     1  LIG1        0.1306
     11 C           0.8790   -0.2630    0.0000 C.ar    1  LIG1        0.1536
     12 N           0.8790   -1.2580    0.0000 N.ar    1  LIG1       -0.1920
     13 C           1.7500   -1.7580    0.0000 C.ar    1  LIG1        0.2817
     14 C           2.5920   -1.2580    0.0000 C.ar    1  LIG1        0.0755
     15 C           2.5920   -0.2630    0.0000 C.ar    1  LIG1        0.0873
     16 N           1.7500    0.2330    0.0000 N.ar    1  LIG1       -0.2296
     17 C           3.4540    0.2330    0.0000 C.ar    1  LIG1        0.0193
     18 C           4.3290   -0.2630    0.0000 C.ar    1  LIG1        0.0015
     19 C           4.3290   -1.2580    0.0000 C.ar    1  LIG1        0.0003
     20 C           3.4540   -1.7580    0.0000 C.ar    1  LIG1        0.0063
     21 O           1.7500   -2.7540    0.0000 O.2     1  LIG1       -0.2651
@<TRIPOS>BOND
     1     1     2   ar
     2     1     6   ar
     3     2     3   ar
     4     2     9    1
     5     3     4   ar
     6     4     5   ar
     7     4     8    1
     8     5     6   ar
     9     6     7    2
    10     9    10    1
    11    10    11    1
    12    11    12   ar
    13    11    16   ar
    14    12    13   ar
    15    13    14   ar
    16    13    21    2
    17    14    15   ar
    18    14    20   ar
    19    15    16   ar
    20    15    17   ar
    21    17    18   ar
    22    18    19   ar
    23    19    20   ar
