@<TRIPOS>MOLECULE
34832_ChemDiv_8017-0988
 28 32 0 0 0
SMALL
GASTEIGER
Energy = 0

@<TRIPOS>ATOM
      1 N           3.9210    0.5330    0.0000 N.ar    1  LIG1       -0.2027
      2 C           2.9170    0.5330    0.0000 C.ar    1  LIG1        0.1945
      3 N           2.4170   -0.3290    0.0000 N.ar    1  LIG1       -0.1827
      4 C           2.9170   -1.2000    0.0000 C.ar    1  LIG1        0.2840
      5 C           3.9210   -1.2000    0.0000 C.ar    1  LIG1        0.1001
      6 C           4.4210   -0.3290    0.0000 C.ar    1  LIG1        0.1766
      7 N           5.4210   -0.3380    0.0000 N.pl3   1  LIG1       -0.1070
      8 O           2.4130   -2.0670    0.0000 O.2     1  LIG1       -0.2650
      9 S           2.4170    1.4000    0.0000 S.3     1  LIG1       -0.0657
     10 C           1.4170    1.4000    0.0000 C.3     1  LIG1        0.1500
     11 C           0.9130    0.5330    0.0000 C.2     1  LIG1        0.2374
     12 N          -0.0880    0.5330    0.0000 N.am    1  LIG1       -0.2674
     13 C          -0.5880    1.4000    0.0000 C.3     1  LIG1        0.1565
     14 C          -1.5880    1.4000    0.0000 C.3     1  LIG1        0.1600
     15 N          -2.0880    0.5330    0.0000 N.4     1  LIG1        0.3718
     16 C          -3.0500    0.5330    0.0000 C.3     1  LIG1        0.0457
     17 C          -3.6250   -0.2170    0.0000 C.3     1  LIG1        0.0512
     18 C          -4.4630    0.0580    0.0000 C.3     1  LIG1        0.0055
     19 C          -4.4630    1.1830    0.0000 C.3     1  LIG1        0.0004
     20 C          -3.9420    2.0710    0.0000 C.3     1  LIG1        0.0055
     21 C          -3.0500    1.5580    0.0000 C.3     1  LIG1        0.0512
     22 C          -4.8380    1.5580    0.0000 C.3     1  LIG1        0.0004
     23 C          -4.8380    0.4630    0.0000 C.3     1  LIG1        0.0055
     24 C          -3.6500    0.1210    0.0000 C.3     1  LIG1        0.0512
     25 C          -5.4250   -0.2170    0.0000 C.3     1  LIG1        0.0004
     26 C          -1.5880   -0.3290    0.0000 C.3     1  LIG1        0.1600
     27 C          -0.5880   -0.3290    0.0000 C.3     1  LIG1        0.1565
     28 O           1.4170   -0.3290    0.0000 O.2     1  LIG1       -0.2739
@<TRIPOS>BOND
     1     1     2   ar
     2     1     6   ar
     3     2     3   ar
     4     2     9    1
     5     3     4   ar
     6     4     5   ar
     7     4     8    2
     8     5     6   ar
     9     6     7    1
    10     9    10    1
    11    10    11    1
    12    11    12   am
    13    11    28    2
    14    12    13    1
    15    12    27    1
    16    13    14    1
    17    14    15    1
    18    15    16    1
    19    15    26    1
    20    16    17    1
    21    16    21    1
    22    16    24    1
    23    17    18    1
    24    18    19    1
    25    18    25    1
    26    19    20    1
    27    20    21    1
    28    20    22    1
    29    22    23    1
    30    23    24    1
    31    23    25    1
    32    26    27    1
