@<TRIPOS>MOLECULE
34838_ChemDiv_8016-6309
 27 30 0 0 0
SMALL
GASTEIGER
Energy = 0

@<TRIPOS>ATOM
      1 C          -2.6880   -0.4540    0.0000 C.3     1  LIG1        0.2766
      2 O          -3.0460   -1.3880    0.0000 O.3     1  LIG1       -0.4451
      3 C          -4.0460   -1.3290    0.0000 C.ar    1  LIG1        0.1759
      4 C          -4.3080   -0.3670    0.0000 C.ar    1  LIG1        0.1759
      5 O          -3.4710    0.1750    0.0000 O.3     1  LIG1       -0.4451
      6 C          -5.2710   -0.1040    0.0000 C.ar    1  LIG1        0.0402
      7 C          -5.9750   -0.8170    0.0000 C.ar    1  LIG1        0.0033
      8 C          -5.7210   -1.7790    0.0000 C.ar    1  LIG1        0.0033
      9 C          -4.7500   -2.0420    0.0000 C.ar    1  LIG1        0.0402
     10 C          -1.8210   -0.9540    0.0000 C.3     1  LIG1        0.1494
     11 C          -0.9580   -0.4540    0.0000 C.ar    1  LIG1        0.1525
     12 N          -0.0880   -0.9540    0.0000 N.ar    1  LIG1       -0.1971
     13 C           0.7790   -0.4540    0.0000 C.ar    1  LIG1        0.2401
     14 N           0.7790    0.5460    0.0000 N.ar    1  LIG1       -0.1770
     15 C          -0.0880    1.0460    0.0000 C.ar    1  LIG1        0.2601
     16 N          -0.9580    0.5460    0.0000 N.ar    1  LIG1       -0.1958
     17 N          -0.0880    2.0460    0.0000 N.pl3   1  LIG1       -0.0859
     18 N           1.6460   -0.9540    0.0000 N.pl3   1  LIG1       -0.2034
     19 C           2.5080   -0.4540    0.0000 C.3     1  LIG1        0.1200
     20 C           3.3790   -0.9540    0.0000 C.3     1  LIG1        0.0498
     21 C           4.2460   -0.4540    0.0000 C.ar    1  LIG1       -0.0204
     22 C           4.2460    0.5460    0.0000 C.ar    1  LIG1       -0.0042
     23 C           5.1080    1.0460    0.0000 C.ar    1  LIG1       -0.0003
     24 C           5.9710    0.5460    0.0000 C.ar    1  LIG1       -0.0000
     25 C           5.9710   -0.4540    0.0000 C.ar    1  LIG1       -0.0003
     26 C           5.1080   -0.9540    0.0000 C.ar    1  LIG1       -0.0042
     27 C          -2.3710    0.4960    0.0000 C.3     1  LIG1        0.0918
@<TRIPOS>BOND
     1     1     2    1
     2     1     5    1
     3     1    10    1
     4     1    27    1
     5     2     3    1
     6     3     4   ar
     7     3     9   ar
     8     4     5    1
     9     4     6   ar
    10     6     7   ar
    11     7     8   ar
    12     8     9   ar
    13    10    11    1
    14    11    12   ar
    15    11    16   ar
    16    12    13   ar
    17    13    14   ar
    18    13    18    1
    19    14    15   ar
    20    15    16   ar
    21    15    17    1
    22    18    19    1
    23    19    20    1
    24    20    21    1
    25    21    22   ar
    26    21    26   ar
    27    22    23   ar
    28    23    24   ar
    29    24    25   ar
    30    25    26   ar
