@<TRIPOS>MOLECULE
34837_ChemDiv_8016-8485
 25 26 0 0 0
SMALL
GASTEIGER
Energy = 0

@<TRIPOS>ATOM
      1 C           1.7420   -1.4920    0.0000 C.ar    1  LIG1        0.1254
      2 C           1.7420   -2.4920    0.0000 C.ar    1  LIG1        0.3495
      3 O           0.8790   -2.9880    0.0000 O.2     1  LIG1       -0.4253
      4 C           0.0170   -2.4920    0.0000 C.ar    1  LIG1        0.1279
      5 C           0.0170   -1.4920    0.0000 C.ar    1  LIG1        0.0494
      6 C           0.8790   -0.9880    0.0000 C.ar    1  LIG1        0.0770
      7 N           0.8670    0.0130    0.0000 N.pl3   1  LIG1       -0.2369
      8 C           0.0000    0.5000    0.0000 C.3     1  LIG1        0.1169
      9 C          -0.8460   -0.0040    0.0000 C.3     1  LIG1        0.0498
     10 C          -1.7210    0.4960    0.0000 C.ar    1  LIG1       -0.0172
     11 C          -2.5830   -0.0130    0.0000 C.ar    1  LIG1        0.0358
     12 C          -3.4500    0.4830    0.0000 C.ar    1  LIG1        0.1721
     13 C          -3.4580    1.4960    0.0000 C.ar    1  LIG1        0.1724
     14 C          -2.5880    1.9960    0.0000 C.ar    1  LIG1        0.0397
     15 C          -1.7210    1.4960    0.0000 C.ar    1  LIG1       -0.0009
     16 O          -4.3330    1.9960    0.0000 O.3     1  LIG1       -0.4684
     17 C          -4.3330    2.9960    0.0000 C.3     1  LIG1        0.2526
     18 O          -4.3290   -0.0040    0.0000 O.3     1  LIG1       -0.4684
     19 C          -4.3330   -1.0040    0.0000 C.3     1  LIG1        0.2526
     20 C          -0.8500   -2.9880    0.0000 C.3     1  LIG1        0.0726
     21 O           2.6040   -2.9920    0.0000 O.2     1  LIG1       -0.2443
     22 C           2.6040   -0.9880    0.0000 C.2     1  LIG1        0.1806
     23 O           2.6000    0.0130    0.0000 O.2     1  LIG1       -0.2911
     24 C           3.4670   -1.4880    0.0000 C.3     1  LIG1        0.0694
     25 C           4.3290   -0.9790    0.0000 C.3     1  LIG1        0.0086
@<TRIPOS>BOND
     1     1     2   ar
     2     1     6   ar
     3     1    22    1
     4     2     3   ar
     5     2    21    2
     6     3     4   ar
     7     4     5   ar
     8     4    20    1
     9     5     6   ar
    10     6     7    1
    11     7     8    1
    12     8     9    1
    13     9    10    1
    14    10    11   ar
    15    10    15   ar
    16    11    12   ar
    17    12    13   ar
    18    12    18    1
    19    13    14   ar
    20    13    16    1
    21    14    15   ar
    22    16    17    1
    23    18    19    1
    24    22    23    2
    25    22    24    1
    26    24    25    1
