@<TRIPOS>MOLECULE
34839_ChemDiv_8016-8486
 17 17 0 0 0
SMALL
GASTEIGER
Energy = 0

@<TRIPOS>ATOM
      1 C           0.0630   -0.3670    0.0000 C.ar    1  LIG1        0.1254
      2 C           0.0630   -1.3670    0.0000 C.ar    1  LIG1        0.3495
      3 O          -0.8000   -1.8670    0.0000 O.2     1  LIG1       -0.4253
      4 C          -1.6710   -1.3670    0.0000 C.ar    1  LIG1        0.1279
      5 C          -1.6710   -0.3670    0.0000 C.ar    1  LIG1        0.0494
      6 C          -0.8000    0.1330    0.0000 C.ar    1  LIG1        0.0771
      7 N          -0.8130    1.1290    0.0000 N.pl3   1  LIG1       -0.2344
      8 C          -1.6830    1.6290    0.0000 C.3     1  LIG1        0.1477
      9 C          -2.6500    1.3710    0.0000 C.3     1  LIG1        0.2053
     10 O          -3.5210    1.8790    0.0000 O.3     1  LIG1       -0.2184
     11 C          -2.5330   -1.8670    0.0000 C.3     1  LIG1        0.0726
     12 O           0.9250   -1.8750    0.0000 O.2     1  LIG1       -0.2443
     13 C           0.9250    0.1330    0.0000 C.2     1  LIG1        0.1806
     14 O           0.9170    1.1290    0.0000 O.2     1  LIG1       -0.2911
     15 C           1.7880   -0.3670    0.0000 C.3     1  LIG1        0.0694
     16 C           2.6500    0.1380    0.0000 C.3     1  LIG1        0.0081
     17 C           3.5170   -0.3630    0.0000 C.3     1  LIG1        0.0005
@<TRIPOS>BOND
     1     1     2   ar
     2     1     6   ar
     3     1    13    1
     4     2     3   ar
     5     2    12    2
     6     3     4   ar
     7     4     5   ar
     8     4    11    1
     9     5     6   ar
    10     6     7    1
    11     7     8    1
    12     8     9    1
    13     9    10    1
    14    13    14    2
    15    13    15    1
    16    15    16    1
    17    16    17    1
