@<TRIPOS>MOLECULE
34835_ChemDiv_8016-8361
 21 22 0 0 0
SMALL
GASTEIGER
Energy = 0

@<TRIPOS>ATOM
      1 C           1.3040   -0.9960    0.0000 C.ar    1  LIG1        0.1254
      2 C           1.3040   -1.9960    0.0000 C.ar    1  LIG1        0.3495
      3 O           0.4420   -2.4920    0.0000 O.2     1  LIG1       -0.4253
      4 C          -0.4210   -1.9960    0.0000 C.ar    1  LIG1        0.1279
      5 C          -0.4210   -0.9960    0.0000 C.ar    1  LIG1        0.0494
      6 C           0.4420   -0.4920    0.0000 C.ar    1  LIG1        0.0770
      7 N           0.4290    0.5130    0.0000 N.pl3   1  LIG1       -0.2369
      8 C          -0.4380    1.0000    0.0000 C.3     1  LIG1        0.1169
      9 C          -1.2880    0.4960    0.0000 C.3     1  LIG1        0.0497
     10 C          -2.1580    0.9960    0.0000 C.ar    1  LIG1       -0.0204
     11 C          -2.1580    1.9960    0.0000 C.ar    1  LIG1       -0.0042
     12 C          -3.0250    2.5000    0.0000 C.ar    1  LIG1       -0.0003
     13 C          -3.8960    1.9960    0.0000 C.ar    1  LIG1       -0.0000
     14 C          -3.8960    0.9830    0.0000 C.ar    1  LIG1       -0.0003
     15 C          -3.0210    0.4880    0.0000 C.ar    1  LIG1       -0.0042
     16 C          -1.2880   -2.4920    0.0000 C.3     1  LIG1        0.0726
     17 O           2.1670   -2.4960    0.0000 O.2     1  LIG1       -0.2443
     18 C           2.1670   -0.4920    0.0000 C.2     1  LIG1        0.1806
     19 O           2.1540    0.5130    0.0000 O.2     1  LIG1       -0.2911
     20 C           3.0290   -0.9920    0.0000 C.3     1  LIG1        0.0694
     21 C           3.8920   -0.4830    0.0000 C.3     1  LIG1        0.0086
@<TRIPOS>BOND
     1     1     2   ar
     2     1     6   ar
     3     1    18    1
     4     2     3   ar
     5     2    17    2
     6     3     4   ar
     7     4     5   ar
     8     4    16    1
     9     5     6   ar
    10     6     7    1
    11     7     8    1
    12     8     9    1
    13     9    10    1
    14    10    11   ar
    15    10    15   ar
    16    11    12   ar
    17    12    13   ar
    18    13    14   ar
    19    14    15   ar
    20    18    19    2
    21    18    20    1
    22    20    21    1
