@<TRIPOS>MOLECULE
34836_ChemDiv_8016-6263
 26 29 0 0 0
SMALL
GASTEIGER
Energy = 0

@<TRIPOS>ATOM
      1 N           4.1880    0.2790    0.0000 N.ar    1  LIG1       -0.2442
      2 C           3.4420    0.9460    0.0000 C.ar    1  LIG1        0.0946
      3 C           2.5790    0.4460    0.0000 C.ar    1  LIG1        0.0002
      4 C           2.7790   -0.5290    0.0000 C.ar    1  LIG1        0.0152
      5 C           3.7790   -0.6290    0.0000 C.ar    1  LIG1        0.0810
      6 C           4.1880   -1.5420    0.0000 C.ar    1  LIG1        0.0191
      7 C           3.6000   -2.3540    0.0000 C.ar    1  LIG1        0.0015
      8 C           2.6040   -2.2500    0.0000 C.ar    1  LIG1        0.0001
      9 C           2.1920   -1.3380    0.0000 C.ar    1  LIG1        0.0012
     10 C           1.6630    0.8540    0.0000 C.3     1  LIG1        0.0514
     11 C           0.8540    0.2670    0.0000 C.3     1  LIG1        0.1199
     12 N          -0.0580    0.6710    0.0000 N.am    1  LIG1       -0.2048
     13 C          -0.8670    0.0830    0.0000 C.2     1  LIG1        0.2444
     14 C          -1.7790    0.4920    0.0000 C.3     1  LIG1        0.0940
     15 C          -2.5040   -0.1920    0.0000 C.ar    1  LIG1       -0.0144
     16 C          -3.4670    0.0830    0.0000 C.ar    1  LIG1       -0.0038
     17 C          -4.1920   -0.6000    0.0000 C.ar    1  LIG1       -0.0003
     18 C          -3.9540   -1.5670    0.0000 C.ar    1  LIG1       -0.0000
     19 C          -2.9960   -1.8540    0.0000 C.ar    1  LIG1       -0.0003
     20 C          -2.2710   -1.1670    0.0000 C.ar    1  LIG1       -0.0038
     21 C          -1.1460    1.2670    0.0000 C.3     1  LIG1        0.0449
     22 C          -1.5040    2.2040    0.0000 C.3     1  LIG1        0.1430
     23 O          -2.4960    2.3580    0.0000 O.3     1  LIG1       -0.3537
     24 C          -3.1290    1.5790    0.0000 C.3     1  LIG1        0.1430
     25 C          -2.7670    0.6460    0.0000 C.3     1  LIG1        0.0449
     26 O          -0.7580   -0.9040    0.0000 O.2     1  LIG1       -0.2730
@<TRIPOS>BOND
     1     1     2   ar
     2     1     5   ar
     3     2     3   ar
     4     3     4   ar
     5     3    10    1
     6     4     5   ar
     7     4     9   ar
     8     5     6   ar
     9     6     7   ar
    10     7     8   ar
    11     8     9   ar
    12    10    11    1
    13    11    12    1
    14    12    13   am
    15    13    14    1
    16    13    26    2
    17    14    15    1
    18    14    21    1
    19    14    25    1
    20    15    16   ar
    21    15    20   ar
    22    16    17   ar
    23    17    18   ar
    24    18    19   ar
    25    19    20   ar
    26    21    22    1
    27    22    23    1
    28    23    24    1
    29    24    25    1
