@<TRIPOS>MOLECULE
34830_ChemDiv_8017-0959
 13 14 0 0 0
SMALL
GASTEIGER
Energy = 0

@<TRIPOS>ATOM
      1 C          -0.0080    0.9920    0.0000 C.ar    1  LIG1        0.0596
      2 C          -0.0080   -0.0080    0.0000 C.ar    1  LIG1        0.1182
      3 N           0.8540   -0.5130    0.0000 N.ar    1  LIG1       -0.2406
      4 C           1.7290   -0.0130    0.0000 C.ar    1  LIG1        0.1022
      5 C           1.7290    0.9920    0.0000 C.ar    1  LIG1        0.0627
      6 C           0.8540    1.4960    0.0000 C.ar    1  LIG1        0.1988
      7 O           0.8540    2.4960    0.0000 O.2     1  LIG1       -0.2865
      8 C          -0.8710   -0.5040    0.0000 C.ar    1  LIG1        0.1563
      9 O          -0.8710   -1.5040    0.0000 O.3     1  LIG1       -0.4699
     10 C          -0.8710   -2.4920    0.0000 C.3     1  LIG1        0.2525
     11 C          -1.7330   -0.0080    0.0000 C.ar    1  LIG1        0.0385
     12 C          -1.7330    0.9920    0.0000 C.ar    1  LIG1        0.0033
     13 C          -0.8750    1.4920    0.0000 C.ar    1  LIG1        0.0049
@<TRIPOS>BOND
     1     1     2   ar
     2     1     6   ar
     3     1    13   ar
     4     2     3   ar
     5     2     8   ar
     6     3     4   ar
     7     4     5   ar
     8     5     6   ar
     9     6     7    2
    10     8     9    1
    11     8    11   ar
    12     9    10    1
    13    11    12   ar
    14    12    13   ar
