@<TRIPOS>MOLECULE
34845_ChemDiv_8016-3732
 23 26 0 0 0
SMALL
GASTEIGER
Energy = 0

@<TRIPOS>ATOM
      1 C          -0.4380   -0.7460    0.0000 C.ar    1  LIG1        0.0926
      2 C          -1.3080   -0.2460    0.0000 C.ar    1  LIG1        0.1538
      3 C          -2.1710   -0.7460    0.0000 C.ar    1  LIG1        0.0692
      4 C          -2.1710   -1.7580    0.0000 C.ar    1  LIG1        0.1516
      5 O          -1.3080   -2.2460    0.0000 O.2     1  LIG1       -0.4211
      6 C          -0.4380   -1.7580    0.0000 C.ar    1  LIG1        0.3450
      7 O           0.4290   -2.2460    0.0000 O.2     1  LIG1       -0.2447
      8 C          -3.0330   -2.2460    0.0000 C.ar    1  LIG1        0.0377
      9 C          -3.9000   -1.7580    0.0000 C.ar    1  LIG1        0.0031
     10 C          -3.9000   -0.7460    0.0000 C.ar    1  LIG1        0.0003
     11 C          -3.0330   -0.2460    0.0000 C.ar    1  LIG1        0.0061
     12 O          -1.3080    0.7500    0.0000 O.3     1  LIG1       -0.4241
     13 C          -0.4380    1.2580    0.0000 C.2     1  LIG1        0.3221
     14 C           0.4290    0.7500    0.0000 C.3     1  LIG1        0.1190
     15 C           0.4290   -0.2460    0.0000 C.3     1  LIG1        0.0651
     16 C           1.2960   -0.7460    0.0000 C.ar    1  LIG1       -0.0175
     17 C           2.1580   -0.2460    0.0000 C.ar    1  LIG1       -0.0031
     18 C           3.0290   -0.7460    0.0000 C.ar    1  LIG1        0.0111
     19 C           3.0290   -1.7460    0.0000 C.ar    1  LIG1        0.0577
     20 C           2.1580   -2.2460    0.0000 C.ar    1  LIG1        0.0111
     21 C           1.2960   -1.7460    0.0000 C.ar    1  LIG1       -0.0031
     22 CL          3.8960   -2.2460    0.0000 Cl      1  LIG1       -0.0822
     23 O          -0.4380    2.2500    0.0000 O.2     1  LIG1       -0.2497
@<TRIPOS>BOND
     1     1     2   ar
     2     1     6   ar
     3     1    15    1
     4     2     3   ar
     5     2    12    1
     6     3     4   ar
     7     3    11   ar
     8     4     5   ar
     9     4     8   ar
    10     5     6   ar
    11     6     7    2
    12     8     9   ar
    13     9    10   ar
    14    10    11   ar
    15    12    13    1
    16    13    14    1
    17    13    23    2
    18    14    15    1
    19    15    16    1
    20    16    17   ar
    21    16    21   ar
    22    17    18   ar
    23    18    19   ar
    24    19    20   ar
    25    19    22    1
    26    20    21   ar
