@<TRIPOS>MOLECULE
34841_ChemDiv_8016-3580
 16 17 0 0 0
SMALL
GASTEIGER
Energy = 0

@<TRIPOS>ATOM
      1 C           2.2130   -0.4630    0.0000 C.2     1  LIG1        0.4127
      2 C           1.3630    0.0380    0.0000 C.2     1  LIG1        0.3548
      3 N           0.4790   -0.4630    0.0000 N.am    1  LIG1       -0.1689
      4 C          -0.3830    0.0580    0.0000 C.ar    1  LIG1        0.0769
      5 C          -1.2500   -0.4420    0.0000 C.ar    1  LIG1        0.0535
      6 C          -2.1250    0.0580    0.0000 C.ar    1  LIG1        0.1400
      7 O          -2.9960   -0.4380    0.0000 O.3     1  LIG1       -0.4714
      8 C          -3.8460    0.0630    0.0000 C.3     1  LIG1        0.2525
      9 C          -2.1250    1.0460    0.0000 C.ar    1  LIG1        0.0370
     10 C          -1.2500    1.5460    0.0000 C.ar    1  LIG1        0.0044
     11 C          -0.3830    1.0460    0.0000 C.ar    1  LIG1        0.0168
     12 O           1.3630    1.0330    0.0000 O.2     1  LIG1       -0.2597
     13 N           3.0790    0.0380    0.0000 N.2     1  LIG1       -0.0533
     14 C           3.8420   -0.6290    0.0000 C.3     1  LIG1        0.3183
     15 C           3.4290   -1.5420    0.0000 C.3     1  LIG1        0.3088
     16 N           2.4290   -1.4420    0.0000 N.pl3   1  LIG1       -0.0226
@<TRIPOS>BOND
     1     1     2    1
     2     1    13    2
     3     1    16    1
     4     2     3   am
     5     2    12    2
     6     3     4    1
     7     4     5   ar
     8     4    11   ar
     9     5     6   ar
    10     6     7    1
    11     6     9   ar
    12     7     8    1
    13     9    10   ar
    14    10    11   ar
    15    13    14    1
    16    14    15    1
    17    15    16    1
