@<TRIPOS>MOLECULE
34844_ChemDiv_8016-6568
 29 32 0 0 0
SMALL
GASTEIGER
Energy = 0

@<TRIPOS>ATOM
      1 N          -3.8790   -1.9960    0.0000 N.am    1  LIG1       -0.1730
      2 C          -3.0210   -2.4960    0.0000 C.ar    1  LIG1        0.1075
      3 C          -2.1580   -1.9960    0.0000 C.ar    1  LIG1        0.0243
      4 C          -1.2960   -2.4880    0.0000 C.ar    1  LIG1        0.0569
      5 C          -0.4250   -1.9880    0.0000 C.2     1  LIG1        0.2690
      6 N          -0.4330   -0.9880    0.0000 N.am    1  LIG1       -0.1754
      7 C           0.4290   -0.4880    0.0000 C.ar    1  LIG1        0.0737
      8 C           0.4250    0.5000    0.0000 C.ar    1  LIG1        0.0168
      9 C           1.2880    1.0080    0.0000 C.ar    1  LIG1        0.0059
     10 C           2.1540    0.5080    0.0000 C.ar    1  LIG1        0.0551
     11 C           3.0290    1.0130    0.0000 C.2     1  LIG1        0.2647
     12 N           3.0170    2.0170    0.0000 N.am    1  LIG1       -0.2034
     13 C           3.8750    2.5210    0.0000 C.3     1  LIG1        0.0956
     14 C           4.7500    2.0080    0.0000 C.3     1  LIG1        0.0217
     15 C           5.6130    2.5080    0.0000 C.3     1  LIG1        0.0018
     16 C           5.6130    3.5080    0.0000 C.3     1  LIG1        0.0001
     17 C           4.7380    4.0000    0.0000 C.3     1  LIG1        0.0018
     18 C           3.8750    3.5080    0.0000 C.3     1  LIG1        0.0217
     19 O           3.8880    0.5210    0.0000 O.2     1  LIG1       -0.2684
     20 C           2.1630   -0.4880    0.0000 C.ar    1  LIG1        0.0059
     21 C           1.3000   -0.9880    0.0000 C.ar    1  LIG1        0.0168
     22 O           0.4420   -2.4880    0.0000 O.2     1  LIG1       -0.2680
     23 C          -1.2880   -3.5000    0.0000 C.ar    1  LIG1        0.0078
     24 C          -2.1580   -4.0000    0.0000 C.ar    1  LIG1        0.0384
     25 C          -3.0210   -3.5000    0.0000 C.ar    1  LIG1        0.1544
     26 O          -3.8920   -4.0000    0.0000 O.3     1  LIG1       -0.4642
     27 C          -4.7540   -3.4880    0.0000 C.3     1  LIG1        0.2915
     28 C          -4.7460   -2.4880    0.0000 C.2     1  LIG1        0.2902
     29 O          -5.6170   -1.9880    0.0000 O.2     1  LIG1       -0.2689
@<TRIPOS>BOND
     1     1     2    1
     2     1    28   am
     3     2     3   ar
     4     2    25   ar
     5     3     4   ar
     6     4     5    1
     7     4    23   ar
     8     5     6   am
     9     5    22    2
    10     6     7    1
    11     7     8   ar
    12     7    21   ar
    13     8     9   ar
    14     9    10   ar
    15    10    11    1
    16    10    20   ar
    17    11    12   am
    18    11    19    2
    19    12    13    1
    20    13    14    1
    21    13    18    1
    22    14    15    1
    23    15    16    1
    24    16    17    1
    25    17    18    1
    26    20    21   ar
    27    23    24   ar
    28    24    25   ar
    29    25    26    1
    30    26    27    1
    31    27    28    1
    32    28    29    2
