@<TRIPOS>MOLECULE
34842_ChemDiv_8016-6565
 30 33 0 0 0
SMALL
GASTEIGER
Energy = 0

@<TRIPOS>ATOM
      1 C           0.7500    0.5540    0.0000 C.ar    1  LIG1        0.1441
      2 C           1.7540    0.5540    0.0000 C.ar    1  LIG1        0.2953
      3 N           2.0630    1.5040    0.0000 N.ar    1  LIG1       -0.2134
      4 N           1.2500    2.0960    0.0000 N.ar    1  LIG1       -0.2646
      5 C           0.4420    1.5040    0.0000 C.ar    1  LIG1        0.0746
      6 C          -0.5080    1.8170    0.0000 C.3     1  LIG1        0.0532
      7 C           1.2500    3.1000    0.0000 C.3     1  LIG1        0.1518
      8 C           3.0130    1.8170    0.0000 C.ar    1  LIG1        0.0841
      9 C           3.2170    2.7920    0.0000 C.ar    1  LIG1        0.0192
     10 C           4.1670    3.1040    0.0000 C.ar    1  LIG1        0.0015
     11 C           4.9170    2.4290    0.0000 C.ar    1  LIG1        0.0001
     12 C           4.7040    1.4540    0.0000 C.ar    1  LIG1        0.0015
     13 C           3.7540    1.1420    0.0000 C.ar    1  LIG1        0.0192
     14 O           2.3380   -0.2540    0.0000 O.2     1  LIG1       -0.2637
     15 N           0.1630   -0.2500    0.0000 N.am    1  LIG1       -0.1700
     16 C          -0.4250   -1.0630    0.0000 C.2     1  LIG1        0.2902
     17 O          -0.0210   -1.9750    0.0000 O.2     1  LIG1       -0.2689
     18 C          -1.4210   -0.9540    0.0000 C.3     1  LIG1        0.2916
     19 O          -1.8330   -0.0420    0.0000 O.3     1  LIG1       -0.4625
     20 C          -2.8210    0.0670    0.0000 C.ar    1  LIG1        0.1726
     21 C          -3.3880   -0.7420    0.0000 C.ar    1  LIG1        0.1680
     22 O          -3.1710   -1.7170    0.0000 O.3     1  LIG1       -0.4795
     23 C          -4.0210   -2.2290    0.0000 C.3     1  LIG1        0.1376
     24 C          -4.7790   -1.5750    0.0000 C.3     1  LIG1        0.0695
     25 C          -4.3830   -0.6540    0.0000 C.ar    1  LIG1        0.0183
     26 C          -4.8080    0.2540    0.0000 C.ar    1  LIG1       -0.0010
     27 C          -4.2250    1.0670    0.0000 C.ar    1  LIG1        0.0030
     28 C          -3.2330    0.9790    0.0000 C.ar    1  LIG1        0.0400
     29 C          -3.5210   -3.1000    0.0000 C.3     1  LIG1        0.0439
     30 C          -4.9210   -2.6750    0.0000 C.3     1  LIG1        0.0439
@<TRIPOS>BOND
     1     1     2   ar
     2     1     5   ar
     3     1    15    1
     4     2     3   ar
     5     2    14    2
     6     3     4   ar
     7     3     8    1
     8     4     5   ar
     9     4     7    1
    10     5     6    1
    11     8     9   ar
    12     8    13   ar
    13     9    10   ar
    14    10    11   ar
    15    11    12   ar
    16    12    13   ar
    17    15    16   am
    18    16    17    2
    19    16    18    1
    20    18    19    1
    21    19    20    1
    22    20    21   ar
    23    20    28   ar
    24    21    22    1
    25    21    25   ar
    26    22    23    1
    27    23    24    1
    28    23    29    1
    29    23    30    1
    30    24    25    1
    31    25    26   ar
    32    26    27   ar
    33    27    28   ar
