@<TRIPOS>MOLECULE
34848_ChemDiv_8016-7068
 28 32 0 0 0
SMALL
GASTEIGER
Energy = 0

@<TRIPOS>ATOM
      1 C          -0.3540   -0.4170    0.0000 C.ar    1  LIG1        0.0728
      2 C          -1.2210    0.0750    0.0000 C.ar    1  LIG1        0.2601
      3 N          -2.0830   -0.4250    0.0000 N.ar    1  LIG1       -0.2936
      4 C          -2.0920   -1.4290    0.0000 C.ar    1  LIG1        0.0654
      5 C          -1.2210   -1.9290    0.0000 C.ar    1  LIG1        0.0504
      6 C          -0.3540   -1.4250    0.0000 C.ar    1  LIG1        0.1506
      7 O           0.5040   -1.9250    0.0000 O.3     1  LIG1       -0.4242
      8 C           1.3750   -1.4290    0.0000 C.2     1  LIG1        0.3221
      9 C           1.3790   -0.4250    0.0000 C.3     1  LIG1        0.1190
     10 C           0.5040    0.0830    0.0000 C.3     1  LIG1        0.0645
     11 C           0.5040    1.0830    0.0000 C.ar    1  LIG1       -0.0046
     12 C          -0.3040    1.6710    0.0000 C.ar    1  LIG1        0.0338
     13 N           0.0080    2.6210    0.0000 N.ar    1  LIG1       -0.3289
     14 C           1.0040    2.6210    0.0000 C.ar    1  LIG1        0.0594
     15 C           1.3040    1.6710    0.0000 C.ar    1  LIG1        0.0132
     16 C           2.2790    1.4630    0.0000 C.ar    1  LIG1        0.0012
     17 C           2.9500    2.2080    0.0000 C.ar    1  LIG1        0.0001
     18 C           2.6420    3.1580    0.0000 C.ar    1  LIG1        0.0015
     19 C           1.6670    3.3580    0.0000 C.ar    1  LIG1        0.0172
     20 C          -0.5790    3.4330    0.0000 C.3     1  LIG1        0.1301
     21 C          -1.1790    2.1710    0.0000 C.3     1  LIG1        0.0497
     22 O           2.2420   -1.9290    0.0000 O.2     1  LIG1       -0.2497
     23 C          -1.2170   -2.9250    0.0000 C.ar    1  LIG1        0.0045
     24 C          -2.0790   -3.4290    0.0000 C.ar    1  LIG1        0.0002
     25 C          -2.9540   -2.9290    0.0000 C.ar    1  LIG1        0.0015
     26 C          -2.9540   -1.9290    0.0000 C.ar    1  LIG1        0.0174
     27 C          -2.9540    0.0750    0.0000 C.3     1  LIG1        0.1335
     28 O          -1.2290    1.0750    0.0000 O.2     1  LIG1       -0.2672
@<TRIPOS>BOND
     1     1     2   ar
     2     1     6   ar
     3     1    10    1
     4     2     3   ar
     5     2    28    2
     6     3     4   ar
     7     3    27    1
     8     4     5   ar
     9     4    26   ar
    10     5     6   ar
    11     5    23   ar
    12     6     7    1
    13     7     8    1
    14     8     9    1
    15     8    22    2
    16     9    10    1
    17    10    11    1
    18    11    12   ar
    19    11    15   ar
    20    12    13   ar
    21    12    21    1
    22    13    14   ar
    23    13    20    1
    24    14    15   ar
    25    14    19   ar
    26    15    16   ar
    27    16    17   ar
    28    17    18   ar
    29    18    19   ar
    30    23    24   ar
    31    24    25   ar
    32    25    26   ar
