@<TRIPOS>MOLECULE
34840_ChemDiv_8016-6425
 18 19 0 0 0
SMALL
GASTEIGER
Energy = 0

@<TRIPOS>ATOM
      1 N           2.1630    0.5000    0.0000 N.ar    1  LIG1       -0.2467
      2 C           2.1630   -0.5080    0.0000 C.ar    1  LIG1        0.3339
      3 N           1.2920   -1.0040    0.0000 N.ar    1  LIG1       -0.2791
      4 C           0.4290   -0.5040    0.0000 C.ar    1  LIG1        0.0686
      5 C           0.4290    0.5080    0.0000 C.ar    1  LIG1        0.0735
      6 C           1.2920    1.0080    0.0000 C.ar    1  LIG1        0.2657
      7 O           1.2920    2.0080    0.0000 O.2     1  LIG1       -0.2668
      8 C          -0.4380    0.9960    0.0000 C.ar    1  LIG1        0.0262
      9 C          -1.3000    0.4960    0.0000 C.ar    1  LIG1        0.1253
     10 S          -2.1630    0.9960    0.0000 S.O2    1  LIG1        0.0935
     11 O          -2.6580    0.1290    0.0000 O.2     1  LIG1       -0.1503
     12 O          -1.6710    1.8630    0.0000 O.2     1  LIG1       -0.1503
     13 N          -3.0330    1.4960    0.0000 N.3     1  LIG1        0.0392
     14 C          -1.3000   -0.5080    0.0000 C.ar    1  LIG1        0.0215
     15 C          -0.4330   -1.0080    0.0000 C.ar    1  LIG1        0.0188
     16 C           1.2880   -2.0040    0.0000 C.3     1  LIG1        0.1351
     17 O           3.0250   -1.0080    0.0000 O.2     1  LIG1       -0.2462
     18 C           3.0290    0.9960    0.0000 C.3     1  LIG1        0.1382
@<TRIPOS>BOND
     1     1     2   ar
     2     1     6   ar
     3     1    18    1
     4     2     3   ar
     5     2    17    2
     6     3     4   ar
     7     3    16    1
     8     4     5   ar
     9     4    15   ar
    10     5     6   ar
    11     5     8   ar
    12     6     7    2
    13     8     9   ar
    14     9    10    1
    15     9    14   ar
    16    10    11    2
    17    10    12    2
    18    10    13    1
    19    14    15   ar
