@<TRIPOS>MOLECULE
34846_ChemDiv_8016-6870
 24 27 0 0 0
SMALL
GASTEIGER
Energy = 0

@<TRIPOS>ATOM
      1 C          -1.1290   -1.3710    0.0000 C.ar    1  LIG1        0.1704
      2 C          -1.1290   -0.3790    0.0000 C.ar    1  LIG1        0.1567
      3 C          -2.0040    0.1290    0.0000 C.ar    1  LIG1        0.2835
      4 N          -2.8790   -0.3790    0.0000 N.ar    1  LIG1       -0.2454
      5 C          -2.8790   -1.3710    0.0000 C.ar    1  LIG1        0.3350
      6 N          -2.0040   -1.8790    0.0000 N.ar    1  LIG1       -0.2628
      7 C          -2.0040   -2.8830    0.0000 C.3     1  LIG1        0.1366
      8 O          -3.7460   -1.9040    0.0000 O.2     1  LIG1       -0.2461
      9 C          -3.7460    0.1290    0.0000 C.3     1  LIG1        0.1383
     10 O          -2.0040    1.1290    0.0000 O.2     1  LIG1       -0.2651
     11 N          -0.1920   -0.0710    0.0000 N.ar    1  LIG1       -0.2814
     12 C           0.4000   -0.8960    0.0000 C.ar    1  LIG1        0.1808
     13 N          -0.1920   -1.6830    0.0000 N.ar    1  LIG1       -0.2029
     14 S           1.3380   -0.5920    0.0000 S.2     1  LIG1       -0.0483
     15 C           1.3540    0.3920    0.0000 C.ar    1  LIG1        0.0532
     16 C           0.4170    0.7330    0.0000 C.ar    1  LIG1        0.0717
     17 C           0.1040    1.6960    0.0000 C.3     1  LIG1        0.1565
     18 N           0.8040    2.4170    0.0000 N.pl3   1  LIG1       -0.2312
     19 C           1.7790    2.1790    0.0000 C.ar    1  LIG1        0.0657
     20 C           2.0670    1.2170    0.0000 C.ar    1  LIG1        0.0161
     21 C           3.0420    0.9920    0.0000 C.ar    1  LIG1        0.0013
     22 C           3.7420    1.7170    0.0000 C.ar    1  LIG1        0.0001
     23 C           3.4380    2.6540    0.0000 C.ar    1  LIG1        0.0013
     24 C           2.4790    2.8880    0.0000 C.ar    1  LIG1        0.0161
@<TRIPOS>BOND
     1     1     2   ar
     2     1     6   ar
     3     1    13   ar
     4     2     3   ar
     5     2    11   ar
     6     3     4   ar
     7     3    10    2
     8     4     5   ar
     9     4     9    1
    10     5     6   ar
    11     5     8    2
    12     6     7    1
    13    11    12   ar
    14    11    16   ar
    15    12    13   ar
    16    12    14   ar
    17    14    15   ar
    18    15    16   ar
    19    16    17    1
    20    17    18    1
    21    18    19    1
    22    19    20   ar
    23    19    24   ar
    24    20    21   ar
    25    21    22   ar
    26    22    23   ar
    27    23    24   ar
