@<TRIPOS>MOLECULE
34854_ChemDiv_8017-4087
 26 30 0 0 0
SMALL
GASTEIGER
Energy = 0

@<TRIPOS>ATOM
      1 C          -2.5500    0.0960    0.0000 C.3     1  LIG1        0.0457
      2 N          -1.5960    0.0960    0.0000 N.4     1  LIG1        0.3718
      3 C          -1.0880    0.9670    0.0000 C.3     1  LIG1        0.1600
      4 C          -0.0880    0.9670    0.0000 C.3     1  LIG1        0.1565
      5 N           0.4130    0.0960    0.0000 N.am    1  LIG1       -0.2674
      6 C           1.4170    0.0960    0.0000 C.2     1  LIG1        0.2374
      7 C           1.9170    0.9670    0.0000 C.3     1  LIG1        0.1485
      8 S           2.9170    0.9670    0.0000 S.3     1  LIG1       -0.0851
      9 C           3.4170    0.0960    0.0000 C.ar    1  LIG1        0.1071
     10 N           2.9170   -0.7670    0.0000 N.ar    1  LIG1       -0.2376
     11 C           3.4170   -1.6290    0.0000 C.ar    1  LIG1        0.0994
     12 C           4.4170   -1.6290    0.0000 C.ar    1  LIG1        0.0207
     13 C           4.9170   -0.7670    0.0000 C.ar    1  LIG1        0.0037
     14 C           4.4170    0.0960    0.0000 C.ar    1  LIG1        0.0255
     15 O           1.9170   -0.7670    0.0000 O.2     1  LIG1       -0.2739
     16 C          -0.0880   -0.7670    0.0000 C.3     1  LIG1        0.1565
     17 C          -1.0880   -0.7670    0.0000 C.3     1  LIG1        0.1600
     18 C          -3.1210   -0.6540    0.0000 C.3     1  LIG1        0.0512
     19 C          -3.9580   -0.3790    0.0000 C.3     1  LIG1        0.0055
     20 C          -3.9580    0.7460    0.0000 C.3     1  LIG1        0.0004
     21 C          -3.4380    1.6330    0.0000 C.3     1  LIG1        0.0055
     22 C          -2.5500    1.1210    0.0000 C.3     1  LIG1        0.0512
     23 C          -4.3330    1.1210    0.0000 C.3     1  LIG1        0.0004
     24 C          -4.3330    0.0330    0.0000 C.3     1  LIG1        0.0055
     25 C          -3.1500   -0.3130    0.0000 C.3     1  LIG1        0.0512
     26 C          -4.9210   -0.6540    0.0000 C.3     1  LIG1        0.0004
@<TRIPOS>BOND
     1     1     2    1
     2     1    18    1
     3     1    22    1
     4     1    25    1
     5     2     3    1
     6     2    17    1
     7     3     4    1
     8     4     5    1
     9     5     6   am
    10     5    16    1
    11     6     7    1
    12     6    15    2
    13     7     8    1
    14     8     9    1
    15     9    10   ar
    16     9    14   ar
    17    10    11   ar
    18    11    12   ar
    19    12    13   ar
    20    13    14   ar
    21    16    17    1
    22    18    19    1
    23    19    20    1
    24    19    26    1
    25    20    21    1
    26    21    22    1
    27    21    23    1
    28    23    24    1
    29    24    25    1
    30    24    26    1
