@<TRIPOS>MOLECULE
34852_ChemDiv_8017-1967
 28 32 0 0 0
SMALL
GASTEIGER
Energy = 0

@<TRIPOS>ATOM
      1 C          -3.0500    0.5330    0.0000 C.3     1  LIG1        0.0457
      2 N          -2.0960    0.5330    0.0000 N.4     1  LIG1        0.3718
      3 C          -1.5880   -0.3290    0.0000 C.3     1  LIG1        0.1600
      4 C          -0.5880   -0.3290    0.0000 C.3     1  LIG1        0.1565
      5 N          -0.0880    0.5330    0.0000 N.am    1  LIG1       -0.2674
      6 C           0.9130    0.5330    0.0000 C.2     1  LIG1        0.2374
      7 C           1.4130    1.4000    0.0000 C.3     1  LIG1        0.1500
      8 S           2.4170    1.4000    0.0000 S.3     1  LIG1       -0.0658
      9 C           2.9170    0.5330    0.0000 C.ar    1  LIG1        0.1930
     10 N           3.9210    0.5330    0.0000 N.ar    1  LIG1       -0.1828
     11 C           4.4210   -0.3380    0.0000 C.ar    1  LIG1        0.2822
     12 C           3.9210   -1.2040    0.0000 C.ar    1  LIG1        0.0773
     13 C           2.9130   -1.2040    0.0000 C.ar    1  LIG1        0.0663
     14 N           2.4170   -0.3290    0.0000 N.ar    1  LIG1       -0.2254
     15 C           2.4170   -2.0670    0.0000 C.3     1  LIG1        0.0523
     16 O           5.4210   -0.3380    0.0000 O.2     1  LIG1       -0.2651
     17 O           1.4130   -0.3290    0.0000 O.2     1  LIG1       -0.2739
     18 C          -0.5880    1.4000    0.0000 C.3     1  LIG1        0.1565
     19 C          -1.5960    1.4000    0.0000 C.3     1  LIG1        0.1600
     20 C          -3.6250   -0.2170    0.0000 C.3     1  LIG1        0.0512
     21 C          -4.4630    0.0580    0.0000 C.3     1  LIG1        0.0055
     22 C          -5.4250   -0.2170    0.0000 C.3     1  LIG1        0.0004
     23 C          -4.8380    0.4630    0.0000 C.3     1  LIG1        0.0055
     24 C          -3.6540    0.1210    0.0000 C.3     1  LIG1        0.0512
     25 C          -4.8380    1.5580    0.0000 C.3     1  LIG1        0.0004
     26 C          -3.9500    2.0710    0.0000 C.3     1  LIG1        0.0055
     27 C          -3.0500    1.5580    0.0000 C.3     1  LIG1        0.0512
     28 C          -4.4630    1.1830    0.0000 C.3     1  LIG1        0.0004
@<TRIPOS>BOND
     1     1     2    1
     2     1    20    1
     3     1    24    1
     4     1    27    1
     5     2     3    1
     6     2    19    1
     7     3     4    1
     8     4     5    1
     9     5     6   am
    10     5    18    1
    11     6     7    1
    12     6    17    2
    13     7     8    1
    14     8     9    1
    15     9    10   ar
    16     9    14   ar
    17    10    11   ar
    18    11    12   ar
    19    11    16    2
    20    12    13   ar
    21    13    14   ar
    22    13    15    1
    23    18    19    1
    24    20    21    1
    25    21    22    1
    26    21    28    1
    27    22    23    1
    28    23    24    1
    29    23    25    1
    30    25    26    1
    31    26    27    1
    32    26    28    1
