@<TRIPOS>MOLECULE
34858_ChemDiv_8017-5851
 30 35 0 0 0
SMALL
GASTEIGER
Energy = 0

@<TRIPOS>ATOM
      1 C          -3.3750   -1.7420    0.0000 C.3     1  LIG1        0.0457
      2 N          -2.3710   -1.7420    0.0000 N.4     1  LIG1        0.3718
      3 C          -1.8630   -2.6170    0.0000 C.3     1  LIG1        0.1600
      4 C          -0.8580   -2.6170    0.0000 C.3     1  LIG1        0.1565
      5 N          -0.3460   -1.7420    0.0000 N.am    1  LIG1       -0.2674
      6 C           0.6580   -1.7420    0.0000 C.2     1  LIG1        0.2374
      7 C           1.1670   -0.8670    0.0000 C.3     1  LIG1        0.1485
      8 S           2.1710   -0.8670    0.0000 S.3     1  LIG1       -0.0851
      9 C           2.6790    0.0000    0.0000 C.ar    1  LIG1        0.1071
     10 N           3.6830    0.0000    0.0000 N.ar    1  LIG1       -0.2391
     11 C           4.1920    0.8750    0.0000 C.ar    1  LIG1        0.0818
     12 C           3.6830    1.7500    0.0000 C.ar    1  LIG1        0.0177
     13 C           2.6790    1.7460    0.0000 C.ar    1  LIG1        0.0036
     14 C           2.1710    0.8750    0.0000 C.ar    1  LIG1        0.0255
     15 C           4.1920    2.6210    0.0000 C.ar    1  LIG1        0.0015
     16 C           5.1960    2.6210    0.0000 C.ar    1  LIG1        0.0001
     17 C           5.7040    1.7500    0.0000 C.ar    1  LIG1        0.0015
     18 C           5.1960    0.8750    0.0000 C.ar    1  LIG1        0.0191
     19 O           1.1670   -2.6170    0.0000 O.2     1  LIG1       -0.2739
     20 C          -0.8580   -0.8670    0.0000 C.3     1  LIG1        0.1565
     21 C          -1.8630   -0.8670    0.0000 C.3     1  LIG1        0.1600
     22 C          -3.3750   -0.7380    0.0000 C.3     1  LIG1        0.0512
     23 C          -4.2460   -0.2290    0.0000 C.3     1  LIG1        0.0055
     24 C          -5.1210   -0.7380    0.0000 C.3     1  LIG1        0.0004
     25 C          -5.1210   -1.8130    0.0000 C.3     1  LIG1        0.0055
     26 C          -3.9630   -2.1500    0.0000 C.3     1  LIG1        0.0512
     27 C          -5.7080   -2.4790    0.0000 C.3     1  LIG1        0.0004
     28 C          -4.7580   -2.2130    0.0000 C.3     1  LIG1        0.0055
     29 C          -3.9330   -2.4790    0.0000 C.3     1  LIG1        0.0512
     30 C          -4.7580   -1.1040    0.0000 C.3     1  LIG1        0.0004
@<TRIPOS>BOND
     1     1     2    1
     2     1    22    1
     3     1    26    1
     4     1    29    1
     5     2     3    1
     6     2    21    1
     7     3     4    1
     8     4     5    1
     9     5     6   am
    10     5    20    1
    11     6     7    1
    12     6    19    2
    13     7     8    1
    14     8     9    1
    15     9    10   ar
    16     9    14   ar
    17    10    11   ar
    18    11    12   ar
    19    11    18   ar
    20    12    13   ar
    21    12    15   ar
    22    13    14   ar
    23    15    16   ar
    24    16    17   ar
    25    17    18   ar
    26    20    21    1
    27    22    23    1
    28    23    24    1
    29    23    30    1
    30    24    25    1
    31    25    26    1
    32    25    27    1
    33    27    28    1
    34    28    29    1
    35    28    30    1
