@<TRIPOS>MOLECULE
34851_ChemDiv_8016-1367
 21 23 0 0 0
SMALL
GASTEIGER
Energy = 0

@<TRIPOS>ATOM
      1 C          -1.0040   -0.4670    0.0000 C.ar    1  LIG1        0.1227
      2 N          -1.8670   -0.9630    0.0000 N.ar    1  LIG1       -0.2750
      3 C          -2.7330   -0.4670    0.0000 C.ar    1  LIG1        0.3340
      4 N          -2.7330    0.5330    0.0000 N.ar    1  LIG1       -0.2467
      5 C          -1.8670    1.0330    0.0000 C.ar    1  LIG1        0.2660
      6 C          -1.0040    0.5330    0.0000 C.ar    1  LIG1        0.0828
      7 O          -1.8670    2.0330    0.0000 O.2     1  LIG1       -0.2668
      8 C          -3.6040    1.0330    0.0000 C.3     1  LIG1        0.1382
      9 O          -3.6040   -0.9630    0.0000 O.2     1  LIG1       -0.2462
     10 C          -1.8670   -1.9670    0.0000 C.3     1  LIG1        0.1352
     11 C          -0.1330   -0.9630    0.0000 C.2     1  LIG1        0.2689
     12 N           0.7290   -0.4670    0.0000 N.am    1  LIG1       -0.2539
     13 C           1.6420   -0.8670    0.0000 C.ar    1  LIG1        0.0502
     14 C           2.3040   -0.1290    0.0000 C.ar    1  LIG1       -0.0067
     15 C           1.8040    0.7330    0.0000 C.3     1  LIG1        0.0495
     16 C           0.8290    0.5330    0.0000 C.3     1  LIG1        0.1032
     17 C           3.2880   -0.3380    0.0000 C.ar    1  LIG1       -0.0030
     18 C           3.6000   -1.2880    0.0000 C.ar    1  LIG1       -0.0002
     19 C           2.9290   -2.0290    0.0000 C.ar    1  LIG1        0.0013
     20 C           1.9500   -1.8250    0.0000 C.ar    1  LIG1        0.0146
     21 O          -0.1330   -1.9670    0.0000 O.2     1  LIG1       -0.2680
@<TRIPOS>BOND
     1     1     2   ar
     2     1     6   ar
     3     1    11    1
     4     2     3   ar
     5     2    10    1
     6     3     4   ar
     7     3     9    2
     8     4     5   ar
     9     4     8    1
    10     5     6   ar
    11     5     7    2
    12    11    12   am
    13    11    21    2
    14    12    13    1
    15    12    16    1
    16    13    14   ar
    17    13    20   ar
    18    14    15    1
    19    14    17   ar
    20    15    16    1
    21    17    18   ar
    22    18    19   ar
    23    19    20   ar
