@<TRIPOS>MOLECULE
34863_ChemDiv_G617-0002
 22 24 0 0 0
SMALL
GASTEIGER
Energy = 0

@<TRIPOS>ATOM
      1 C           0.4250    0.7500    0.0000 C.ar    1  LIG1        0.0939
      2 C           1.3080    0.2460    0.0000 C.ar    1  LIG1        0.2097
      3 C           2.1630    0.7500    0.0000 C.ar    1  LIG1        0.0462
      4 C           2.1710    1.7540    0.0000 C.ar    1  LIG1        0.0326
      5 S           1.3080    2.2540    0.0000 S.2     1  LIG1       -0.0849
      6 C           0.4250    1.7540    0.0000 C.ar    1  LIG1        0.0532
      7 C           3.0290    2.2540    0.0000 C.ar    1  LIG1        0.0066
      8 C           3.8920    1.7540    0.0000 C.ar    1  LIG1        0.0005
      9 C           3.8920    0.7500    0.0000 C.ar    1  LIG1        0.0001
     10 C           3.0290    0.2580    0.0000 C.ar    1  LIG1        0.0037
     11 O           1.3080   -0.7500    0.0000 O.2     1  LIG1       -0.2852
     12 N          -0.4420    0.2500    0.0000 N.pl3   1  LIG1       -0.3046
     13 C          -1.3130    0.7420    0.0000 C.3     1  LIG1        0.0914
     14 C          -2.1710    0.2500    0.0000 C.3     1  LIG1        0.0326
     15 C          -2.1710   -0.7540    0.0000 C.3     1  LIG1        0.1025
     16 C          -3.0290   -1.2420    0.0000 C.2     1  LIG1        0.3165
     17 O          -3.0290   -2.2500    0.0000 O.2     1  LIG1       -0.2501
     18 O          -3.8960   -0.7420    0.0000 O.3     1  LIG1       -0.4485
     19 C          -3.8960    0.2580    0.0000 C.3     1  LIG1        0.2086
     20 C          -3.0290    0.7540    0.0000 C.3     1  LIG1        0.0513
     21 C          -1.3130   -1.2540    0.0000 C.3     1  LIG1        0.0326
     22 C          -0.4420   -0.7540    0.0000 C.3     1  LIG1        0.0914
@<TRIPOS>BOND
     1     1     2   ar
     2     1     6   ar
     3     1    12    1
     4     2     3   ar
     5     2    11    2
     6     3     4   ar
     7     3    10   ar
     8     4     5   ar
     9     4     7   ar
    10     5     6   ar
    11     7     8   ar
    12     8     9   ar
    13     9    10   ar
    14    12    13    1
    15    12    22    1
    16    13    14    1
    17    14    15    1
    18    15    16    1
    19    15    21    1
    20    16    17    2
    21    16    18    1
    22    18    19    1
    23    19    20    1
    24    21    22    1
