@<TRIPOS>MOLECULE
34868_ChemDiv_8017-0049
 28 32 0 0 0
SMALL
GASTEIGER
Energy = 0

@<TRIPOS>ATOM
      1 C          -1.0080   -0.3790    0.0000 C.ar    1  LIG1        0.0728
      2 C          -1.8710    0.1130    0.0000 C.ar    1  LIG1        0.2601
      3 N          -2.7330   -0.3880    0.0000 N.ar    1  LIG1       -0.2936
      4 C          -2.7330   -1.3920    0.0000 C.ar    1  LIG1        0.0654
      5 C          -1.8710   -1.8920    0.0000 C.ar    1  LIG1        0.0504
      6 C          -1.0080   -1.3920    0.0000 C.ar    1  LIG1        0.1506
      7 O          -0.1330   -1.8920    0.0000 O.3     1  LIG1       -0.4242
      8 C           0.7330   -1.3920    0.0000 C.2     1  LIG1        0.3221
      9 C           0.7330   -0.3880    0.0000 C.3     1  LIG1        0.1190
     10 C          -0.1330    0.1210    0.0000 C.3     1  LIG1        0.0650
     11 C          -0.1330    1.1210    0.0000 C.ar    1  LIG1        0.0031
     12 C           0.6710    1.7080    0.0000 C.ar    1  LIG1        0.0185
     13 C           0.3580    2.6580    0.0000 C.ar    1  LIG1        0.0812
     14 N          -0.6460    2.6580    0.0000 N.ar    1  LIG1       -0.2442
     15 C          -0.9500    1.7080    0.0000 C.ar    1  LIG1        0.0949
     16 C           1.0290    3.3960    0.0000 C.ar    1  LIG1        0.0222
     17 C           1.9960    3.1960    0.0000 C.ar    1  LIG1        0.0384
     18 C           2.3080    2.2460    0.0000 C.ar    1  LIG1        0.1388
     19 C           1.6420    1.5000    0.0000 C.ar    1  LIG1        0.0381
     20 O           3.2920    2.0330    0.0000 O.3     1  LIG1       -0.4714
     21 C           3.5960    1.0830    0.0000 C.3     1  LIG1        0.2525
     22 O           1.5960   -1.8920    0.0000 O.2     1  LIG1       -0.2497
     23 C          -1.8630   -2.8880    0.0000 C.ar    1  LIG1        0.0045
     24 C          -2.7250   -3.3920    0.0000 C.ar    1  LIG1        0.0002
     25 C          -3.5960   -2.8920    0.0000 C.ar    1  LIG1        0.0015
     26 C          -3.6000   -1.8920    0.0000 C.ar    1  LIG1        0.0174
     27 C          -3.6000    0.1130    0.0000 C.3     1  LIG1        0.1335
     28 O          -1.8710    1.1130    0.0000 O.2     1  LIG1       -0.2672
@<TRIPOS>BOND
     1     1     2   ar
     2     1     6   ar
     3     1    10    1
     4     2     3   ar
     5     2    28    2
     6     3     4   ar
     7     3    27    1
     8     4     5   ar
     9     4    26   ar
    10     5     6   ar
    11     5    23   ar
    12     6     7    1
    13     7     8    1
    14     8     9    1
    15     8    22    2
    16     9    10    1
    17    10    11    1
    18    11    12   ar
    19    11    15   ar
    20    12    13   ar
    21    12    19   ar
    22    13    14   ar
    23    13    16   ar
    24    14    15   ar
    25    16    17   ar
    26    17    18   ar
    27    18    19   ar
    28    18    20    1
    29    20    21    1
    30    23    24   ar
    31    24    25   ar
    32    25    26   ar
