@<TRIPOS>MOLECULE
34865_ChemDiv_8016-4699
 25 28 0 0 0
SMALL
GASTEIGER
Energy = 0

@<TRIPOS>ATOM
      1 C          -1.3040   -0.7500    0.0000 C.ar    1  LIG1        0.0926
      2 C          -2.1670   -0.2500    0.0000 C.ar    1  LIG1        0.1538
      3 C          -3.0290   -0.7500    0.0000 C.ar    1  LIG1        0.0692
      4 C          -3.0290   -1.7420    0.0000 C.ar    1  LIG1        0.1516
      5 O          -2.1670   -2.2500    0.0000 O.2     1  LIG1       -0.4211
      6 C          -1.3040   -1.7420    0.0000 C.ar    1  LIG1        0.3450
      7 O          -0.4290   -2.2500    0.0000 O.2     1  LIG1       -0.2447
      8 C          -3.9040   -2.2500    0.0000 C.ar    1  LIG1        0.0377
      9 C          -4.7670   -1.7420    0.0000 C.ar    1  LIG1        0.0031
     10 C          -4.7670   -0.7500    0.0000 C.ar    1  LIG1        0.0003
     11 C          -3.9040   -0.2500    0.0000 C.ar    1  LIG1        0.0061
     12 O          -2.1670    0.7540    0.0000 O.3     1  LIG1       -0.4241
     13 C          -1.3040    1.2460    0.0000 C.2     1  LIG1        0.3221
     14 C          -0.4420    0.7540    0.0000 C.3     1  LIG1        0.1190
     15 C          -0.4290   -0.2500    0.0000 C.3     1  LIG1        0.0651
     16 C           0.4290   -0.7500    0.0000 C.ar    1  LIG1       -0.0174
     17 C           1.2920   -0.2500    0.0000 C.ar    1  LIG1       -0.0008
     18 C           2.1540   -0.7500    0.0000 C.ar    1  LIG1        0.0366
     19 C           2.1540   -1.7420    0.0000 C.ar    1  LIG1        0.1385
     20 C           1.2920   -2.2500    0.0000 C.ar    1  LIG1        0.0366
     21 C           0.4290   -1.7420    0.0000 C.ar    1  LIG1       -0.0008
     22 O           3.0290   -2.2500    0.0000 O.3     1  LIG1       -0.4755
     23 C           3.8920   -1.7420    0.0000 C.3     1  LIG1        0.2055
     24 C           4.7630   -2.2500    0.0000 C.3     1  LIG1        0.0512
     25 O          -1.3040    2.2540    0.0000 O.2     1  LIG1       -0.2497
@<TRIPOS>BOND
     1     1     2   ar
     2     1     6   ar
     3     1    15    1
     4     2     3   ar
     5     2    12    1
     6     3     4   ar
     7     3    11   ar
     8     4     5   ar
     9     4     8   ar
    10     5     6   ar
    11     6     7    2
    12     8     9   ar
    13     9    10   ar
    14    10    11   ar
    15    12    13    1
    16    13    14    1
    17    13    25    2
    18    14    15    1
    19    15    16    1
    20    16    17   ar
    21    16    21   ar
    22    17    18   ar
    23    18    19   ar
    24    19    20   ar
    25    19    22    1
    26    20    21   ar
    27    22    23    1
    28    23    24    1
