@<TRIPOS>MOLECULE
34866_ChemDiv_8016-7103
 26 30 0 0 0
SMALL
GASTEIGER
Energy = 0

@<TRIPOS>ATOM
      1 C          -0.3540   -0.3790    0.0000 C.ar    1  LIG1        0.0728
      2 C          -1.2210    0.1130    0.0000 C.ar    1  LIG1        0.2601
      3 N          -2.0830   -0.3880    0.0000 N.ar    1  LIG1       -0.2936
      4 C          -2.0920   -1.3920    0.0000 C.ar    1  LIG1        0.0654
      5 C          -1.2210   -1.8920    0.0000 C.ar    1  LIG1        0.0504
      6 C          -0.3540   -1.3920    0.0000 C.ar    1  LIG1        0.1506
      7 O           0.5040   -1.8920    0.0000 O.3     1  LIG1       -0.4242
      8 C           1.3750   -1.3920    0.0000 C.2     1  LIG1        0.3221
      9 C           1.3790   -0.3880    0.0000 C.3     1  LIG1        0.1190
     10 C           0.5040    0.1210    0.0000 C.3     1  LIG1        0.0650
     11 C           0.5040    1.1210    0.0000 C.ar    1  LIG1        0.0030
     12 C          -0.3040    1.7080    0.0000 C.ar    1  LIG1        0.0949
     13 N           0.0080    2.6580    0.0000 N.ar    1  LIG1       -0.2442
     14 C           1.0040    2.6580    0.0000 C.ar    1  LIG1        0.0810
     15 C           1.3040    1.7080    0.0000 C.ar    1  LIG1        0.0155
     16 C           2.2790    1.5000    0.0000 C.ar    1  LIG1        0.0012
     17 C           2.9500    2.2460    0.0000 C.ar    1  LIG1        0.0001
     18 C           2.6420    3.1960    0.0000 C.ar    1  LIG1        0.0015
     19 C           1.6670    3.3960    0.0000 C.ar    1  LIG1        0.0191
     20 O           2.2420   -1.8920    0.0000 O.2     1  LIG1       -0.2497
     21 C          -1.2170   -2.8880    0.0000 C.ar    1  LIG1        0.0045
     22 C          -2.0790   -3.3920    0.0000 C.ar    1  LIG1        0.0002
     23 C          -2.9540   -2.8920    0.0000 C.ar    1  LIG1        0.0015
     24 C          -2.9540   -1.8920    0.0000 C.ar    1  LIG1        0.0174
     25 C          -2.9540    0.1130    0.0000 C.3     1  LIG1        0.1335
     26 O          -1.2290    1.1130    0.0000 O.2     1  LIG1       -0.2672
@<TRIPOS>BOND
     1     1     2   ar
     2     1     6   ar
     3     1    10    1
     4     2     3   ar
     5     2    26    2
     6     3     4   ar
     7     3    25    1
     8     4     5   ar
     9     4    24   ar
    10     5     6   ar
    11     5    21   ar
    12     6     7    1
    13     7     8    1
    14     8     9    1
    15     8    20    2
    16     9    10    1
    17    10    11    1
    18    11    12   ar
    19    11    15   ar
    20    12    13   ar
    21    13    14   ar
    22    14    15   ar
    23    14    19   ar
    24    15    16   ar
    25    16    17   ar
    26    17    18   ar
    27    18    19   ar
    28    21    22   ar
    29    22    23   ar
    30    23    24   ar
