@<TRIPOS>MOLECULE
34869_ChemDiv_8018-0060
 21 24 0 0 0
SMALL
GASTEIGER
Energy = 0

@<TRIPOS>ATOM
      1 C           0.0750   -0.7500    0.0000 C.ar    1  LIG1        0.0927
      2 C          -0.7920   -0.2420    0.0000 C.ar    1  LIG1        0.1538
      3 C          -1.6540   -0.7500    0.0000 C.ar    1  LIG1        0.0692
      4 C          -1.6540   -1.7500    0.0000 C.ar    1  LIG1        0.1516
      5 O          -0.7920   -2.2500    0.0000 O.2     1  LIG1       -0.4211
      6 C           0.0750   -1.7500    0.0000 C.ar    1  LIG1        0.3450
      7 O           0.9380   -2.2420    0.0000 O.2     1  LIG1       -0.2447
      8 C          -2.5210   -2.2500    0.0000 C.ar    1  LIG1        0.0377
      9 C          -3.3880   -1.7500    0.0000 C.ar    1  LIG1        0.0031
     10 C          -3.3880   -0.7500    0.0000 C.ar    1  LIG1        0.0003
     11 C          -2.5210   -0.2420    0.0000 C.ar    1  LIG1        0.0061
     12 O          -0.7920    0.7540    0.0000 O.3     1  LIG1       -0.4241
     13 C           0.0670    1.2540    0.0000 C.2     1  LIG1        0.3221
     14 C           0.9380    0.7540    0.0000 C.3     1  LIG1        0.1190
     15 C           0.9380   -0.2420    0.0000 C.3     1  LIG1        0.0656
     16 C           1.8040   -0.7420    0.0000 C.ar    1  LIG1       -0.0106
     17 C           1.9040   -1.7420    0.0000 C.ar    1  LIG1        0.0315
     18 S           2.8880   -1.9500    0.0000 S.2     1  LIG1       -0.0863
     19 C           3.3830   -1.0790    0.0000 C.ar    1  LIG1        0.0351
     20 C           2.7170   -0.3420    0.0000 C.ar    1  LIG1        0.0035
     21 O           0.0670    2.2540    0.0000 O.2     1  LIG1       -0.2497
@<TRIPOS>BOND
     1     1     2   ar
     2     1     6   ar
     3     1    15    1
     4     2     3   ar
     5     2    12    1
     6     3     4   ar
     7     3    11   ar
     8     4     5   ar
     9     4     8   ar
    10     5     6   ar
    11     6     7    2
    12     8     9   ar
    13     9    10   ar
    14    10    11   ar
    15    12    13    1
    16    13    14    1
    17    13    21    2
    18    14    15    1
    19    15    16    1
    20    16    17   ar
    21    16    20   ar
    22    17    18   ar
    23    18    19   ar
    24    19    20   ar
