@<TRIPOS>MOLECULE
34864_ChemDiv_8017-1115
 13 14 0 0 0
SMALL
GASTEIGER
Energy = 0

@<TRIPOS>ATOM
      1 C          -0.7210    0.0330    0.0000 C.ar    1  LIG1        0.1753
      2 N           0.1500   -0.4420    0.0000 N.ar    1  LIG1       -0.2929
      3 C           1.0170    0.0330    0.0000 C.ar    1  LIG1        0.1576
      4 C           1.0170    1.0540    0.0000 C.ar    1  LIG1        0.0984
      5 C           0.1500    1.5290    0.0000 C.ar    1  LIG1        0.2839
      6 N          -0.7210    1.0540    0.0000 N.ar    1  LIG1       -0.1844
      7 O           0.1500    2.5540    0.0000 O.2     1  LIG1       -0.2650
      8 N           1.8790   -0.4500    0.0000 N.pl3   1  LIG1       -0.1087
      9 C          -0.0330   -1.4250    0.0000 C.3     1  LIG1        0.1195
     10 C          -1.0210   -1.5500    0.0000 C.3     1  LIG1        0.0670
     11 S          -1.4460   -0.6500    0.0000 S.3     1  LIG1       -0.0770
     12 C          -1.8830   -2.0500    0.0000 C.3     1  LIG1        0.0132
     13 C          -1.0210   -2.5500    0.0000 C.3     1  LIG1        0.0132
@<TRIPOS>BOND
     1     1     2   ar
     2     1     6   ar
     3     1    11    1
     4     2     3   ar
     5     2     9    1
     6     3     4   ar
     7     3     8    1
     8     4     5   ar
     9     5     6   ar
    10     5     7    2
    11     9    10    1
    12    10    11    1
    13    10    12    1
    14    10    13    1
