@<TRIPOS>MOLECULE
34867_ChemDiv_8017-1857
 26 30 0 0 0
SMALL
GASTEIGER
Energy = 0

@<TRIPOS>ATOM
      1 C          -0.8710   -0.7540    0.0000 C.ar    1  LIG1        0.0926
      2 C          -1.7330   -0.2460    0.0000 C.ar    1  LIG1        0.1538
      3 C          -2.6000   -0.7540    0.0000 C.ar    1  LIG1        0.0692
      4 C          -2.6000   -1.7540    0.0000 C.ar    1  LIG1        0.1516
      5 O          -1.7330   -2.2460    0.0000 O.2     1  LIG1       -0.4211
      6 C          -0.8710   -1.7540    0.0000 C.ar    1  LIG1        0.3450
      7 O           0.0000   -2.2460    0.0000 O.2     1  LIG1       -0.2447
      8 C          -3.4710   -2.2460    0.0000 C.ar    1  LIG1        0.0377
      9 C          -4.3330   -1.7540    0.0000 C.ar    1  LIG1        0.0031
     10 C          -4.3330   -0.7540    0.0000 C.ar    1  LIG1        0.0003
     11 C          -3.4710   -0.2460    0.0000 C.ar    1  LIG1        0.0061
     12 O          -1.7330    0.7580    0.0000 O.3     1  LIG1       -0.4241
     13 C          -0.8710    1.2580    0.0000 C.2     1  LIG1        0.3221
     14 C          -0.0080    0.7580    0.0000 C.3     1  LIG1        0.1190
     15 C           0.0000   -0.2460    0.0000 C.3     1  LIG1        0.0651
     16 C           0.8630   -0.7460    0.0000 C.ar    1  LIG1       -0.0176
     17 C           1.7290   -0.2460    0.0000 C.ar    1  LIG1       -0.0039
     18 C           2.5920   -0.7460    0.0000 C.ar    1  LIG1       -0.0003
     19 C           2.5920   -1.7540    0.0000 C.ar    1  LIG1       -0.0000
     20 C           1.7290   -2.2460    0.0000 C.ar    1  LIG1       -0.0003
     21 C           0.8630   -1.7540    0.0000 C.ar    1  LIG1       -0.0039
     22 C           3.4630   -2.2460    0.0000 C.ar    1  LIG1       -0.0000
     23 C           4.3290   -1.7460    0.0000 C.ar    1  LIG1       -0.0000
     24 C           4.3290   -0.7460    0.0000 C.ar    1  LIG1       -0.0000
     25 C           3.4630   -0.2460    0.0000 C.ar    1  LIG1       -0.0000
     26 O          -0.8710    2.2500    0.0000 O.2     1  LIG1       -0.2497
@<TRIPOS>BOND
     1     1     2   ar
     2     1     6   ar
     3     1    15    1
     4     2     3   ar
     5     2    12    1
     6     3     4   ar
     7     3    11   ar
     8     4     5   ar
     9     4     8   ar
    10     5     6   ar
    11     6     7    2
    12     8     9   ar
    13     9    10   ar
    14    10    11   ar
    15    12    13    1
    16    13    14    1
    17    13    26    2
    18    14    15    1
    19    15    16    1
    20    16    17   ar
    21    16    21   ar
    22    17    18   ar
    23    18    19   ar
    24    18    25   ar
    25    19    20   ar
    26    19    22   ar
    27    20    21   ar
    28    22    23   ar
    29    23    24   ar
    30    24    25   ar
