@<TRIPOS>MOLECULE
34860_ChemDiv_8017-7749
 34 39 0 0 0
SMALL
GASTEIGER
Energy = 0

@<TRIPOS>ATOM
      1 C          -4.6500    0.5460    0.0000 C.3     1  LIG1        0.0457
      2 N          -3.6420    0.5460    0.0000 N.4     1  LIG1        0.3718
      3 C          -3.1380   -0.3250    0.0000 C.3     1  LIG1        0.1600
      4 C          -2.1380   -0.3250    0.0000 C.3     1  LIG1        0.1565
      5 N          -1.6290    0.5460    0.0000 N.am    1  LIG1       -0.2674
      6 C          -0.6250    0.5460    0.0000 C.2     1  LIG1        0.2374
      7 C          -0.1170    1.4210    0.0000 C.3     1  LIG1        0.1500
      8 S           0.8920    1.4210    0.0000 S.3     1  LIG1       -0.0659
      9 C           1.3920    0.5460    0.0000 C.ar    1  LIG1        0.1899
     10 N           0.9880   -0.3750    0.0000 N.ar    1  LIG1       -0.2244
     11 C           1.7290   -1.0420    0.0000 C.ar    1  LIG1        0.0753
     12 C           2.6040   -0.5420    0.0000 C.ar    1  LIG1        0.0790
     13 N           2.4000    0.4460    0.0000 N.ar    1  LIG1       -0.2241
     14 C           3.4790   -1.0500    0.0000 C.3     1  LIG1        0.0733
     15 C           4.3540   -0.5420    0.0000 C.ar    1  LIG1       -0.0160
     16 C           5.2250   -1.0500    0.0000 C.ar    1  LIG1       -0.0006
     17 C           6.0920   -0.5420    0.0000 C.ar    1  LIG1        0.0417
     18 C           6.0920    0.4630    0.0000 C.ar    1  LIG1        0.1957
     19 C           5.2250    0.9710    0.0000 C.ar    1  LIG1        0.0417
     20 C           4.3540    0.4630    0.0000 C.ar    1  LIG1       -0.0006
     21 O           6.9710    0.9710    0.0000 O.3     1  LIG1       -0.2866
     22 C           1.7290   -2.0540    0.0000 C.3     1  LIG1        0.0534
     23 O          -0.1170   -0.3250    0.0000 O.2     1  LIG1       -0.2739
     24 C          -2.1380    1.4210    0.0000 C.3     1  LIG1        0.1565
     25 C          -3.1420    1.4210    0.0000 C.3     1  LIG1        0.1600
     26 C          -5.2380    0.1460    0.0000 C.3     1  LIG1        0.0512
     27 C          -6.3920    0.4830    0.0000 C.3     1  LIG1        0.0055
     28 C          -6.9710   -0.1920    0.0000 C.3     1  LIG1        0.0004
     29 C          -6.0170    0.0830    0.0000 C.3     1  LIG1        0.0055
     30 C          -5.2130   -0.1920    0.0000 C.3     1  LIG1        0.0512
     31 C          -6.0170    1.1880    0.0000 C.3     1  LIG1        0.0004
     32 C          -5.5250    2.0580    0.0000 C.3     1  LIG1        0.0055
     33 C          -4.6500    1.5580    0.0000 C.3     1  LIG1        0.0512
     34 C          -6.3920    1.5580    0.0000 C.3     1  LIG1        0.0004
@<TRIPOS>BOND
     1     1     2    1
     2     1    26    1
     3     1    30    1
     4     1    33    1
     5     2     3    1
     6     2    25    1
     7     3     4    1
     8     4     5    1
     9     5     6   am
    10     5    24    1
    11     6     7    1
    12     6    23    2
    13     7     8    1
    14     8     9    1
    15     9    10   ar
    16     9    13   ar
    17    10    11   ar
    18    11    12   ar
    19    11    22    1
    20    12    13   ar
    21    12    14    1
    22    14    15    1
    23    15    16   ar
    24    15    20   ar
    25    16    17   ar
    26    17    18   ar
    27    18    19   ar
    28    18    21    1
    29    19    20   ar
    30    24    25    1
    31    26    27    1
    32    27    28    1
    33    27    34    1
    34    28    29    1
    35    29    30    1
    36    29    31    1
    37    31    32    1
    38    32    33    1
    39    32    34    1
