@<TRIPOS>MOLECULE
34862_ChemDiv_8017-1057
 25 27 0 0 0
SMALL
GASTEIGER
Energy = 0

@<TRIPOS>ATOM
      1 C          -2.0000   -0.4330    0.0000 C.ar    1  LIG1        0.1110
      2 CA         -3.0000   -0.4330    0.0000 C.ar    1  LIG1        0.1062
      3 N          -3.5000    0.4330    0.0000 N.ar    1  LIG1       -0.1896
      4 C          -3.0000    1.3000    0.0000 C.ar    1  LIG1        0.3714
      5 N          -2.0000    1.3000    0.0000 N.ar    1  LIG1       -0.1518
      6 C          -1.5080    0.4330    0.0000 C.ar    1  LIG1        0.2861
      7 O          -0.5080    0.4330    0.0000 O.2     1  LIG1       -0.2651
      8 O          -3.5000    2.1710    0.0000 O.2     1  LIG1       -0.2425
      9 C          -3.5000   -1.2960    0.0000 C.2     1  LIG1        0.0907
     10 O          -4.5000   -1.2960    0.0000 O.co2   1  LIG1       -0.5430
     11 OXT        -3.0000   -2.1670    0.0000 O.co2   1  LIG1       -0.5430
     12 C          -1.5080   -1.2960    0.0000 C.3     1  LIG1        0.1726
     13 N          -0.5080   -1.2960    0.0000 N.4     1  LIG1        0.3808
     14 C          -0.0080   -2.1670    0.0000 C.3     1  LIG1        0.1390
     15 C           0.9960   -2.1670    0.0000 C.3     1  LIG1        0.0633
     16 C           1.4960   -1.2960    0.0000 C.3     1  LIG1        0.0162
     17 C           2.4960   -1.2960    0.0000 C.3     1  LIG1        0.0268
     18 C           2.9960   -0.4330    0.0000 C.ar    1  LIG1       -0.0222
     19 C           2.4960    0.4330    0.0000 C.ar    1  LIG1       -0.0043
     20 C           2.9960    1.3000    0.0000 C.ar    1  LIG1       -0.0003
     21 C           3.9960    1.3000    0.0000 C.ar    1  LIG1       -0.0000
     22 C           4.4960    0.4330    0.0000 C.ar    1  LIG1       -0.0003
     23 C           3.9960   -0.4330    0.0000 C.ar    1  LIG1       -0.0043
     24 C           0.9960   -0.4330    0.0000 C.3     1  LIG1        0.0633
     25 C          -0.0080   -0.4330    0.0000 C.3     1  LIG1        0.1390
@<TRIPOS>BOND
     1     1     2   ar
     2     1     6   ar
     3     1    12    1
     4     2     3   ar
     5     2     9    1
     6     3     4   ar
     7     4     5   ar
     8     4     8    2
     9     5     6   ar
    10     6     7    2
    11     9    10   ar
    12     9    11   ar
    13    12    13    1
    14    13    14    1
    15    13    25    1
    16    14    15    1
    17    15    16    1
    18    16    17    1
    19    16    24    1
    20    17    18    1
    21    18    19   ar
    22    18    23   ar
    23    19    20   ar
    24    20    21   ar
    25    21    22   ar
    26    22    23   ar
    27    24    25    1
