@<TRIPOS>MOLECULE
34870_ChemDiv_8017-0315
 26 29 0 0 0
SMALL
GASTEIGER
Energy = 0

@<TRIPOS>ATOM
      1 C          -0.0210   -0.8250    0.0000 C.ar    1  LIG1        0.0728
      2 C          -0.8830   -0.3290    0.0000 C.ar    1  LIG1        0.2601
      3 N          -1.7460   -0.8290    0.0000 N.ar    1  LIG1       -0.2936
      4 C          -1.7460   -1.8290    0.0000 C.ar    1  LIG1        0.0654
      5 C          -0.8830   -2.3290    0.0000 C.ar    1  LIG1        0.0504
      6 C          -0.0210   -1.8290    0.0000 C.ar    1  LIG1        0.1506
      7 O           0.8420   -2.3290    0.0000 O.3     1  LIG1       -0.4242
      8 C           1.7170   -1.8290    0.0000 C.2     1  LIG1        0.3221
      9 C           1.7170   -0.8290    0.0000 C.3     1  LIG1        0.1190
     10 C           0.8500   -0.3250    0.0000 C.3     1  LIG1        0.0643
     11 C           0.8500    0.6750    0.0000 C.ar    1  LIG1       -0.0059
     12 C           1.6540    1.2630    0.0000 C.ar    1  LIG1        0.0562
     13 N           1.3420    2.2130    0.0000 N.ar    1  LIG1       -0.2400
     14 C           0.3420    2.2130    0.0000 C.ar    1  LIG1        0.1445
     15 C           0.0380    1.2630    0.0000 C.ar    1  LIG1        0.0031
     16 C          -0.8330    1.7630    0.0000 C.3     1  LIG1        0.0330
     17 C          -0.2460    3.0210    0.0000 C.1     1  LIG1        0.1194
     18 N          -0.8330    3.8330    0.0000 N.1     1  LIG1       -0.1893
     19 C           2.6040    0.9580    0.0000 C.3     1  LIG1        0.0518
     20 O           2.5790   -2.3290    0.0000 O.2     1  LIG1       -0.2497
     21 C          -0.8750   -3.3290    0.0000 C.ar    1  LIG1        0.0045
     22 C          -1.7380   -3.8290    0.0000 C.ar    1  LIG1        0.0002
     23 C          -2.6080   -3.3290    0.0000 C.ar    1  LIG1        0.0015
     24 C          -2.6080   -2.3290    0.0000 C.ar    1  LIG1        0.0174
     25 C          -2.6080   -0.3290    0.0000 C.3     1  LIG1        0.1335
     26 O          -0.8830    0.6710    0.0000 O.2     1  LIG1       -0.2672
@<TRIPOS>BOND
     1     1     2   ar
     2     1     6   ar
     3     1    10    1
     4     2     3   ar
     5     2    26    2
     6     3     4   ar
     7     3    25    1
     8     4     5   ar
     9     4    24   ar
    10     5     6   ar
    11     5    21   ar
    12     6     7    1
    13     7     8    1
    14     8     9    1
    15     8    20    2
    16     9    10    1
    17    10    11    1
    18    11    12   ar
    19    11    15   ar
    20    12    13   ar
    21    12    19    1
    22    13    14   ar
    23    14    15   ar
    24    14    17    1
    25    15    16    1
    26    17    18    3
    27    21    22   ar
    28    22    23   ar
    29    23    24   ar
