@<TRIPOS>MOLECULE
34876_ChemDiv_8016-7069
 30 34 0 0 0
SMALL
GASTEIGER
Energy = 0

@<TRIPOS>ATOM
      1 C          -1.5420   -0.0210    0.0000 C.ar    1  LIG1        0.0729
      2 C          -2.4080    0.4790    0.0000 C.ar    1  LIG1        0.2601
      3 N          -3.2710   -0.0210    0.0000 N.ar    1  LIG1       -0.2936
      4 C          -3.2710   -1.0250    0.0000 C.ar    1  LIG1        0.0654
      5 C          -2.4040   -1.5250    0.0000 C.ar    1  LIG1        0.0504
      6 C          -1.5420   -1.0170    0.0000 C.ar    1  LIG1        0.1506
      7 O          -0.6790   -1.5170    0.0000 O.3     1  LIG1       -0.4242
      8 C           0.1880   -1.0170    0.0000 C.2     1  LIG1        0.3221
      9 C           0.1960   -0.0210    0.0000 C.3     1  LIG1        0.1190
     10 C          -0.6790    0.4830    0.0000 C.3     1  LIG1        0.0665
     11 C          -0.6790    1.4830    0.0000 C.ar    1  LIG1        0.0227
     12 C           0.1290    2.0750    0.0000 C.ar    1  LIG1        0.1007
     13 N          -0.1830    3.0210    0.0000 N.ar    1  LIG1       -0.1482
     14 N          -1.1790    3.0210    0.0000 N.ar    1  LIG1       -0.1467
     15 C          -1.4920    2.0750    0.0000 C.ar    1  LIG1        0.1197
     16 C           1.0750    1.7670    0.0000 C.ar    1  LIG1        0.0193
     17 C           1.2790    0.7830    0.0000 C.ar    1  LIG1        0.0047
     18 C           2.2290    0.4790    0.0000 C.ar    1  LIG1        0.0369
     19 C           2.9750    1.1460    0.0000 C.ar    1  LIG1        0.1387
     20 C           2.7630    2.1290    0.0000 C.ar    1  LIG1        0.0369
     21 C           1.8130    2.4290    0.0000 C.ar    1  LIG1        0.0047
     22 O           3.9250    0.8420    0.0000 O.3     1  LIG1       -0.4714
     23 C           4.1380   -0.1290    0.0000 C.3     1  LIG1        0.2525
     24 O           1.0540   -1.5250    0.0000 O.2     1  LIG1       -0.2497
     25 C          -2.4040   -2.5170    0.0000 C.ar    1  LIG1        0.0045
     26 C          -3.2670   -3.0170    0.0000 C.ar    1  LIG1        0.0002
     27 C          -4.1380   -2.5250    0.0000 C.ar    1  LIG1        0.0015
     28 C          -4.1380   -1.5250    0.0000 C.ar    1  LIG1        0.0174
     29 C          -4.1420    0.4790    0.0000 C.3     1  LIG1        0.1335
     30 O          -2.4080    1.4790    0.0000 O.2     1  LIG1       -0.2672
@<TRIPOS>BOND
     1     1     2   ar
     2     1     6   ar
     3     1    10    1
     4     2     3   ar
     5     2    30    2
     6     3     4   ar
     7     3    29    1
     8     4     5   ar
     9     4    28   ar
    10     5     6   ar
    11     5    25   ar
    12     6     7    1
    13     7     8    1
    14     8     9    1
    15     8    24    2
    16     9    10    1
    17    10    11    1
    18    11    12   ar
    19    11    15   ar
    20    12    13   ar
    21    12    16    1
    22    13    14   ar
    23    14    15   ar
    24    16    17   ar
    25    16    21   ar
    26    17    18   ar
    27    18    19   ar
    28    19    20   ar
    29    19    22    1
    30    20    21   ar
    31    22    23    1
    32    25    26   ar
    33    26    27   ar
    34    27    28   ar
