@<TRIPOS>MOLECULE
34878_ChemDiv_8016-8844
 29 33 0 0 0
SMALL
GASTEIGER
Energy = 0

@<TRIPOS>ATOM
      1 C          -1.2330   -0.0210    0.0000 C.ar    1  LIG1        0.0729
      2 C          -2.0960    0.4830    0.0000 C.ar    1  LIG1        0.2601
      3 N          -2.9580   -0.0210    0.0000 N.ar    1  LIG1       -0.2936
      4 C          -2.9580   -1.0290    0.0000 C.ar    1  LIG1        0.0654
      5 C          -2.0960   -1.5290    0.0000 C.ar    1  LIG1        0.0504
      6 C          -1.2330   -1.0210    0.0000 C.ar    1  LIG1        0.1506
      7 O          -0.3710   -1.5210    0.0000 O.3     1  LIG1       -0.4242
      8 C           0.5040   -1.0210    0.0000 C.2     1  LIG1        0.3221
      9 C           0.5040   -0.0210    0.0000 C.3     1  LIG1        0.1190
     10 C          -0.3630    0.4880    0.0000 C.3     1  LIG1        0.0665
     11 C          -0.3630    1.4880    0.0000 C.ar    1  LIG1        0.0227
     12 C           0.4420    2.0790    0.0000 C.ar    1  LIG1        0.1008
     13 N           0.1290    3.0250    0.0000 N.ar    1  LIG1       -0.1482
     14 N          -0.8710    3.0250    0.0000 N.ar    1  LIG1       -0.1467
     15 C          -1.1750    2.0790    0.0000 C.ar    1  LIG1        0.1197
     16 C           1.3920    1.7710    0.0000 C.ar    1  LIG1        0.0223
     17 C           2.1290    2.4330    0.0000 C.ar    1  LIG1        0.0436
     18 C           3.0790    2.1330    0.0000 C.ar    1  LIG1        0.1958
     19 O           3.8170    2.8080    0.0000 O.3     1  LIG1       -0.2866
     20 C           3.2920    1.1500    0.0000 C.ar    1  LIG1        0.0420
     21 C           2.5500    0.4830    0.0000 C.ar    1  LIG1        0.0033
     22 C           1.6000    0.7880    0.0000 C.ar    1  LIG1        0.0017
     23 O           1.3670   -1.5290    0.0000 O.2     1  LIG1       -0.2497
     24 C          -2.0880   -2.5210    0.0000 C.ar    1  LIG1        0.0045
     25 C          -2.9500   -3.0210    0.0000 C.ar    1  LIG1        0.0002
     26 C          -3.8210   -2.5290    0.0000 C.ar    1  LIG1        0.0015
     27 C          -3.8210   -1.5290    0.0000 C.ar    1  LIG1        0.0174
     28 C          -3.8210    0.4830    0.0000 C.3     1  LIG1        0.1335
     29 O          -2.0960    1.4830    0.0000 O.2     1  LIG1       -0.2672
@<TRIPOS>BOND
     1     1     2   ar
     2     1     6   ar
     3     1    10    1
     4     2     3   ar
     5     2    29    2
     6     3     4   ar
     7     3    28    1
     8     4     5   ar
     9     4    27   ar
    10     5     6   ar
    11     5    24   ar
    12     6     7    1
    13     7     8    1
    14     8     9    1
    15     8    23    2
    16     9    10    1
    17    10    11    1
    18    11    12   ar
    19    11    15   ar
    20    12    13   ar
    21    12    16    1
    22    13    14   ar
    23    14    15   ar
    24    16    17   ar
    25    16    22   ar
    26    17    18   ar
    27    18    19    1
    28    18    20   ar
    29    20    21   ar
    30    21    22   ar
    31    24    25   ar
    32    25    26   ar
    33    26    27   ar
