@<TRIPOS>MOLECULE
34886_ChemDiv_8017-1264
 15 17 0 0 0
SMALL
GASTEIGER
Energy = 0

@<TRIPOS>ATOM
      1 C           1.9540   -0.7380    0.0000 C.ar    1  LIG1        0.2792
      2 N           1.3670   -1.5420    0.0000 N.ar    1  LIG1       -0.2079
      3 C           0.4290   -1.2290    0.0000 C.ar    1  LIG1        0.0847
      4 C           0.4250   -0.2420    0.0000 C.ar    1  LIG1        0.0223
      5 C           1.2790    0.2330    0.0000 C.ar    1  LIG1        0.0593
      6 C           1.2920    1.2210    0.0000 C.ar    1  LIG1        0.0048
      7 C           0.4420    1.7290    0.0000 C.ar    1  LIG1        0.0001
      8 C          -0.4170    1.2420    0.0000 C.ar    1  LIG1       -0.0001
      9 C          -0.4210    0.2540    0.0000 C.ar    1  LIG1        0.0037
     10 C          -1.2790   -0.2420    0.0000 C.ar    1  LIG1        0.0515
     11 C          -1.2790   -1.2290    0.0000 C.ar    1  LIG1        0.0036
     12 C          -0.4210   -1.7250    0.0000 C.ar    1  LIG1        0.0191
     13 C          -1.9790    0.4540    0.0000 C.3     1  LIG1        0.3431
     14 N          -2.9420    0.2040    0.0000 N.4     1  LIG1        0.6017
     15 O           2.9380   -0.7380    0.0000 O.2     1  LIG1       -0.2652
@<TRIPOS>BOND
     1     1     2   ar
     2     1     5   ar
     3     1    15    2
     4     2     3   ar
     5     3     4   ar
     6     3    12   ar
     7     4     5   ar
     8     4     9   ar
     9     5     6   ar
    10     6     7   ar
    11     7     8   ar
    12     8     9   ar
    13     9    10   ar
    14    10    11   ar
    15    10    13    1
    16    11    12   ar
    17    13    14    1
