@<TRIPOS>MOLECULE
34884_ChemDiv_8017-1202
 30 34 0 0 0
SMALL
GASTEIGER
Energy = 0

@<TRIPOS>ATOM
      1 C           0.3380    0.1460    0.0000 C.3     1  LIG1        0.3777
      2 C           1.3290    0.2380    0.0000 C.2     1  LIG1        0.3090
      3 N           1.5420    1.2210    0.0000 N.am    1  LIG1       -0.2524
      4 C           0.6790    1.7330    0.0000 C.ar    1  LIG1        0.0569
      5 C          -0.0630    1.0500    0.0000 C.ar    1  LIG1        0.0739
      6 C          -1.0710    1.5960    0.0000 C.ar    1  LIG1       -0.0001
      7 C          -1.0580    2.7330    0.0000 C.ar    1  LIG1       -0.0219
      8 C          -0.1830    3.2330    0.0000 C.ar    1  LIG1       -0.0034
      9 C           0.6790    2.7330    0.0000 C.ar    1  LIG1        0.0091
     10 C           1.5420    3.2330    0.0000 C.2     1  LIG1       -0.0234
     11 C           2.4250    2.7330    0.0000 C.2     1  LIG1       -0.0124
     12 C           2.4250    1.7330    0.0000 C.3     1  LIG1        0.0830
     13 C           3.3790    2.0330    0.0000 C.3     1  LIG1        0.0248
     14 C           3.1670    1.0500    0.0000 C.3     1  LIG1        0.0248
     15 C           1.5420    4.2250    0.0000 C.3     1  LIG1        0.0308
     16 C          -1.7710    3.4210    0.0000 C.3     1  LIG1        0.0310
     17 O           1.8750   -0.2500    0.0000 O.2     1  LIG1       -0.2666
     18 N          -0.6380   -0.0920    0.0000 N.2     1  LIG1       -0.0494
     19 C          -0.9080   -1.0630    0.0000 C.cat   1  LIG1        0.4521
     20 N          -0.2130   -1.7880    0.0000 N.pl3   1  LIG1        0.0338
     21 C           0.7420   -1.5380    0.0000 C.cat   1  LIG1        0.4858
     22 N           0.9790   -0.6380    0.0000 N.2     1  LIG1       -0.0470
     23 N           1.4670   -2.2130    0.0000 N.pl3   1  LIG1        0.1474
     24 N          -1.8880   -1.3250    0.0000 N.pl3   1  LIG1       -0.0372
     25 C          -2.1630   -2.2960    0.0000 C.ar    1  LIG1        0.1483
     26 C          -1.4500   -3.0130    0.0000 C.ar    1  LIG1        0.0347
     27 C          -1.7080   -3.9630    0.0000 C.ar    1  LIG1        0.0028
     28 C          -2.6830   -4.2250    0.0000 C.ar    1  LIG1        0.0002
     29 C          -3.3830   -3.5210    0.0000 C.ar    1  LIG1        0.0028
     30 C          -3.1130   -2.5500    0.0000 C.ar    1  LIG1        0.0347
@<TRIPOS>BOND
     1     1     2    1
     2     1     5    1
     3     1    18    1
     4     1    22    1
     5     2     3   am
     6     2    17    2
     7     3     4    1
     8     3    12    1
     9     4     5   ar
    10     4     9   ar
    11     5     6   ar
    12     6     7   ar
    13     7     8   ar
    14     7    16    1
    15     8     9   ar
    16     9    10    1
    17    10    11    2
    18    10    15    1
    19    11    12    1
    20    12    13    1
    21    12    14    1
    22    18    19    2
    23    19    20    1
    24    19    24    1
    25    20    21    1
    26    21    22    2
    27    21    23    1
    28    24    25    1
    29    25    26   ar
    30    25    30   ar
    31    26    27   ar
    32    27    28   ar
    33    28    29   ar
    34    29    30   ar
