@<TRIPOS>MOLECULE
34888_ChemDiv_8017-1340
 14 16 0 0 0
SMALL
GASTEIGER
Energy = 0

@<TRIPOS>ATOM
      1 C          -0.4420    0.2540    0.0000 C.ar    1  LIG1        0.0368
      2 C           0.4250   -0.2420    0.0000 C.ar    1  LIG1        0.1003
      3 N           1.2920    0.2580    0.0000 N.ar    1  LIG1       -0.2406
      4 C           2.1630   -0.2380    0.0000 C.ar    1  LIG1        0.1195
      5 C           2.1630   -1.2420    0.0000 C.ar    1  LIG1        0.1195
      6 N           1.2920   -1.7420    0.0000 N.ar    1  LIG1       -0.2407
      7 C           0.4250   -1.2420    0.0000 C.ar    1  LIG1        0.0990
      8 C          -0.4420   -1.7420    0.0000 C.ar    1  LIG1        0.0222
      9 C          -1.3040   -1.2420    0.0000 C.ar    1  LIG1        0.0207
     10 C          -1.3040   -0.2420    0.0000 C.ar    1  LIG1        0.0829
     11 N          -2.1670    0.2540    0.0000 N.ar    1  LIG1       -0.2438
     12 C          -2.1670    1.2460    0.0000 C.ar    1  LIG1        0.0988
     13 C          -1.2960    1.7460    0.0000 C.ar    1  LIG1        0.0207
     14 C          -0.4290    1.2460    0.0000 C.ar    1  LIG1        0.0046
@<TRIPOS>BOND
     1     1     2   ar
     2     1    10   ar
     3     1    14   ar
     4     2     3   ar
     5     2     7   ar
     6     3     4   ar
     7     4     5   ar
     8     5     6   ar
     9     6     7   ar
    10     7     8   ar
    11     8     9   ar
    12     9    10   ar
    13    10    11   ar
    14    11    12   ar
    15    12    13   ar
    16    13    14   ar
