@<TRIPOS>MOLECULE
34887_ChemDiv_8016-1373
 26 28 0 0 0
SMALL
GASTEIGER
Energy = 0

@<TRIPOS>ATOM
      1 C          -4.2420    0.2540    0.0000 C.ar    1  LIG1        0.3340
      2 N          -4.2420    1.2540    0.0000 N.ar    1  LIG1       -0.2467
      3 C          -3.3790    1.7540    0.0000 C.ar    1  LIG1        0.2660
      4 C          -2.5080    1.2540    0.0000 C.ar    1  LIG1        0.0828
      5 C          -2.5080    0.2540    0.0000 C.ar    1  LIG1        0.1242
      6 N          -3.3790   -0.2420    0.0000 N.ar    1  LIG1       -0.2749
      7 C          -3.3790   -1.2420    0.0000 C.3     1  LIG1        0.1352
      8 C          -1.6420   -0.2420    0.0000 C.2     1  LIG1        0.2851
      9 N          -0.7790    0.2540    0.0000 N.am    1  LIG1       -0.1742
     10 C           0.0920   -0.2420    0.0000 C.ar    1  LIG1        0.0737
     11 C           0.9540    0.2540    0.0000 C.ar    1  LIG1        0.0168
     12 C           1.8170   -0.2420    0.0000 C.ar    1  LIG1        0.0058
     13 C           1.8170   -1.2420    0.0000 C.ar    1  LIG1        0.0537
     14 C           2.6920   -1.7420    0.0000 C.2     1  LIG1        0.2490
     15 N           3.5540   -1.2500    0.0000 N.am    1  LIG1       -0.2761
     16 C           3.5540   -0.2420    0.0000 C.3     1  LIG1        0.0938
     17 C           4.5040    0.0630    0.0000 C.3     1  LIG1        0.0233
     18 C           5.1000   -0.7420    0.0000 C.3     1  LIG1        0.0233
     19 C           4.5040   -1.5540    0.0000 C.3     1  LIG1        0.0938
     20 O           2.6920   -2.7500    0.0000 O.2     1  LIG1       -0.2699
     21 C           0.9540   -1.7420    0.0000 C.ar    1  LIG1        0.0058
     22 C           0.0920   -1.2420    0.0000 C.ar    1  LIG1        0.0168
     23 O          -1.6420   -1.2420    0.0000 O.2     1  LIG1       -0.2664
     24 O          -3.3790    2.7540    0.0000 O.2     1  LIG1       -0.2668
     25 C          -5.1040    1.7540    0.0000 C.3     1  LIG1        0.1382
     26 O          -5.1040   -0.2420    0.0000 O.2     1  LIG1       -0.2462
@<TRIPOS>BOND
     1     1     2   ar
     2     1     6   ar
     3     1    26    2
     4     2     3   ar
     5     2    25    1
     6     3     4   ar
     7     3    24    2
     8     4     5   ar
     9     5     6   ar
    10     5     8    1
    11     6     7    1
    12     8     9   am
    13     8    23    2
    14     9    10    1
    15    10    11   ar
    16    10    22   ar
    17    11    12   ar
    18    12    13   ar
    19    13    14    1
    20    13    21   ar
    21    14    15   am
    22    14    20    2
    23    15    16    1
    24    15    19    1
    25    16    17    1
    26    17    18    1
    27    18    19    1
    28    21    22   ar
