@<TRIPOS>MOLECULE
34885_ChemDiv_G617-0007
 24 27 0 0 0
SMALL
GASTEIGER
Energy = 0

@<TRIPOS>ATOM
      1 C           1.2960    0.2500    0.0000 C.ar    1  LIG1        0.0939
      2 C           2.1750   -0.2540    0.0000 C.ar    1  LIG1        0.2097
      3 C           3.0330    0.2500    0.0000 C.ar    1  LIG1        0.0462
      4 C           3.0420    1.2540    0.0000 C.ar    1  LIG1        0.0326
      5 S           2.1750    1.7540    0.0000 S.2     1  LIG1       -0.0849
      6 C           1.2960    1.2540    0.0000 C.ar    1  LIG1        0.0532
      7 C           3.9000    1.7540    0.0000 C.ar    1  LIG1        0.0066
      8 C           4.7630    1.2540    0.0000 C.ar    1  LIG1        0.0005
      9 C           4.7630    0.2500    0.0000 C.ar    1  LIG1        0.0001
     10 C           3.9000   -0.2420    0.0000 C.ar    1  LIG1        0.0037
     11 O           2.1750   -1.2500    0.0000 O.2     1  LIG1       -0.2852
     12 N           0.4250   -0.2500    0.0000 N.pl3   1  LIG1       -0.3046
     13 C           0.4250   -1.2540    0.0000 C.3     1  LIG1        0.0909
     14 C          -0.4420   -1.7500    0.0000 C.3     1  LIG1        0.0218
     15 C          -1.3000   -1.2500    0.0000 C.3     1  LIG1        0.0078
     16 C          -2.1630   -1.7420    0.0000 C.3     1  LIG1        0.0265
     17 C          -3.0330   -1.2380    0.0000 C.ar    1  LIG1       -0.0222
     18 C          -3.0330   -0.2380    0.0000 C.ar    1  LIG1       -0.0043
     19 C          -3.9000    0.2540    0.0000 C.ar    1  LIG1       -0.0003
     20 C          -4.7670   -0.2290    0.0000 C.ar    1  LIG1       -0.0000
     21 C          -4.7670   -1.2380    0.0000 C.ar    1  LIG1       -0.0003
     22 C          -3.9080   -1.7290    0.0000 C.ar    1  LIG1       -0.0043
     23 C          -1.3000   -0.2420    0.0000 C.3     1  LIG1        0.0218
     24 C          -0.4420    0.2420    0.0000 C.3     1  LIG1        0.0909
@<TRIPOS>BOND
     1     1     2   ar
     2     1     6   ar
     3     1    12    1
     4     2     3   ar
     5     2    11    2
     6     3     4   ar
     7     3    10   ar
     8     4     5   ar
     9     4     7   ar
    10     5     6   ar
    11     7     8   ar
    12     8     9   ar
    13     9    10   ar
    14    12    13    1
    15    12    24    1
    16    13    14    1
    17    14    15    1
    18    15    16    1
    19    15    23    1
    20    16    17    1
    21    17    18   ar
    22    17    22   ar
    23    18    19   ar
    24    19    20   ar
    25    20    21   ar
    26    21    22   ar
    27    23    24    1
