@<TRIPOS>MOLECULE
34894_ChemDiv_8017-1743
 26 28 0 0 0
SMALL
GASTEIGER
Energy = 0

@<TRIPOS>ATOM
      1 C          -0.7460    1.2960    0.0000 C.ar    1  LIG1        0.0554
      2 C           0.2540    1.2960    0.0000 C.2     1  LIG1        0.1038
      3 S           0.7500    2.1580    0.0000 S.2     1  LIG1       -0.0331
      4 N           0.7460    0.4290    0.0000 N.am    1  LIG1       -0.2242
      5 C           1.7420    0.4290    0.0000 C.3     1  LIG1        0.1752
      6 C           2.2460   -0.4420    0.0000 C.3     1  LIG1        0.1626
      7 N           3.2420   -0.4420    0.0000 N.4     1  LIG1        0.3826
      8 C           3.7460    0.4290    0.0000 C.3     1  LIG1        0.1714
      9 C           4.7420    0.4290    0.0000 C.3     1  LIG1        0.2047
     10 O           5.2420   -0.4420    0.0000 O.3     1  LIG1       -0.3411
     11 C           4.7420   -1.3040    0.0000 C.3     1  LIG1        0.2047
     12 C           3.7460   -1.3040    0.0000 C.3     1  LIG1        0.1714
     13 C          -1.2580    0.4290    0.0000 C.ar    1  LIG1        0.1407
     14 O          -0.7540   -0.4330    0.0000 O.3     1  LIG1       -0.4706
     15 C          -1.2580   -1.2920    0.0000 C.3     1  LIG1        0.2320
     16 C          -2.2540   -1.2920    0.0000 C.ar    1  LIG1        0.0211
     17 C          -2.7540   -0.4330    0.0000 C.ar    1  LIG1       -0.0010
     18 C          -3.7540   -0.4330    0.0000 C.ar    1  LIG1       -0.0045
     19 C          -4.2540   -1.2920    0.0000 C.ar    1  LIG1       -0.0219
     20 C          -3.7540   -2.1630    0.0000 C.ar    1  LIG1       -0.0045
     21 C          -2.7540   -2.1630    0.0000 C.ar    1  LIG1       -0.0010
     22 C          -5.2460   -1.2920    0.0000 C.3     1  LIG1        0.0310
     23 C          -2.2540    0.4380    0.0000 C.ar    1  LIG1        0.0370
     24 C          -2.7460    1.3040    0.0000 C.ar    1  LIG1        0.0031
     25 C          -2.2460    2.1670    0.0000 C.ar    1  LIG1        0.0003
     26 C          -1.2460    2.1670    0.0000 C.ar    1  LIG1        0.0048
@<TRIPOS>BOND
     1     1     2    1
     2     1    13   ar
     3     1    26   ar
     4     2     3    2
     5     2     4    1
     6     4     5    1
     7     5     6    1
     8     6     7    1
     9     7     8    1
    10     7    12    1
    11     8     9    1
    12     9    10    1
    13    10    11    1
    14    11    12    1
    15    13    14    1
    16    13    23   ar
    17    14    15    1
    18    15    16    1
    19    16    17   ar
    20    16    21   ar
    21    17    18   ar
    22    18    19   ar
    23    19    20   ar
    24    19    22    1
    25    20    21   ar
    26    23    24   ar
    27    24    25   ar
    28    25    26   ar
