@<TRIPOS>MOLECULE
34896_ChemDiv_8017-1866
 22 25 0 0 0
SMALL
GASTEIGER
Energy = 0

@<TRIPOS>ATOM
      1 C          -0.0500   -1.9670    0.0000 C.ar    1  LIG1        0.1599
      2 N          -0.9250   -2.4540    0.0000 N.ar    1  LIG1       -0.1794
      3 C          -1.7830   -1.9420    0.0000 C.ar    1  LIG1        0.2584
      4 N          -1.7580   -0.9290    0.0000 N.ar    1  LIG1       -0.1713
      5 C          -0.8830   -0.4540    0.0000 C.ar    1  LIG1        0.2808
      6 C          -0.0330   -0.9670    0.0000 C.ar    1  LIG1        0.0734
      7 C           0.8540   -0.4880    0.0000 C.3     1  LIG1        0.0613
      8 C           1.7040   -1.0170    0.0000 C.3     1  LIG1        0.0962
      9 C           1.6750   -2.0170    0.0000 C.2     1  LIG1        0.2475
     10 N           0.8000   -2.4880    0.0000 N.am    1  LIG1       -0.1604
     11 O           2.5290   -2.5420    0.0000 O.2     1  LIG1       -0.2729
     12 C           0.8790    0.5080    0.0000 C.ar    1  LIG1       -0.0175
     13 C           0.0290    1.0290    0.0000 C.ar    1  LIG1       -0.0016
     14 C           0.0540    2.0290    0.0000 C.ar    1  LIG1        0.0293
     15 C           0.9380    2.5130    0.0000 C.ar    1  LIG1        0.1401
     16 C           1.7920    1.9830    0.0000 C.ar    1  LIG1        0.0293
     17 C           1.7630    0.9830    0.0000 C.ar    1  LIG1       -0.0016
     18 F           0.9290    3.5170    0.0000 F       1  LIG1       -0.2042
     19 O          -0.8580    0.5420    0.0000 O.2     1  LIG1       -0.2653
     20 N          -2.5330   -2.5920    0.0000 N.ar    1  LIG1       -0.1861
     21 C          -2.1460   -3.5130    0.0000 C.ar    1  LIG1        0.2226
     22 N          -1.1500   -3.4250    0.0000 N.ar    1  LIG1       -0.1386
@<TRIPOS>BOND
     1     1     2   ar
     2     1     6   ar
     3     1    10    1
     4     2     3   ar
     5     2    22   ar
     6     3     4   ar
     7     3    20   ar
     8     4     5   ar
     9     5     6   ar
    10     5    19    2
    11     6     7    1
    12     7     8    1
    13     7    12    1
    14     8     9    1
    15     9    10   am
    16     9    11    2
    17    12    13   ar
    18    12    17   ar
    19    13    14   ar
    20    14    15   ar
    21    15    16   ar
    22    15    18    1
    23    16    17   ar
    24    20    21   ar
    25    21    22   ar
