@<TRIPOS>MOLECULE
34899_ChemDiv_8016-3789
 27 29 0 0 0
SMALL
GASTEIGER
Energy = 0

@<TRIPOS>ATOM
      1 C          -0.4460   -0.5080    0.0000 C.2     1  LIG1        0.0845
      2 N           0.4420   -0.0080    0.0000 N.am    1  LIG1       -0.3023
      3 C           1.3000   -0.5080    0.0000 C.3     1  LIG1        0.0913
      4 C           2.1540   -0.0080    0.0000 C.3     1  LIG1        0.0218
      5 C           2.1540    0.9960    0.0000 C.3     1  LIG1        0.0078
      6 C           3.0170    1.5080    0.0000 C.3     1  LIG1        0.0265
      7 C           3.8880    1.0210    0.0000 C.ar    1  LIG1       -0.0222
      8 C           3.9170    0.0210    0.0000 C.ar    1  LIG1       -0.0043
      9 C           4.8040   -0.4580    0.0000 C.ar    1  LIG1       -0.0003
     10 C           5.6670    0.0710    0.0000 C.ar    1  LIG1       -0.0000
     11 C           5.6170    1.0500    0.0000 C.ar    1  LIG1       -0.0003
     12 C           4.7380    1.5130    0.0000 C.ar    1  LIG1       -0.0043
     13 C           1.3000    1.4960    0.0000 C.3     1  LIG1        0.0218
     14 C           0.4420    0.9960    0.0000 C.3     1  LIG1        0.0913
     15 C          -1.3330   -0.0080    0.0000 C.ar    1  LIG1        0.0232
     16 C          -2.2000   -0.5080    0.0000 C.ar    1  LIG1        0.0418
     17 C          -3.0580   -0.0080    0.0000 C.ar    1  LIG1        0.1723
     18 C          -3.0580    1.0080    0.0000 C.ar    1  LIG1        0.1722
     19 C          -2.2000    1.5130    0.0000 C.ar    1  LIG1        0.0401
     20 C          -1.3330    1.0080    0.0000 C.ar    1  LIG1        0.0051
     21 O          -3.9330    1.5130    0.0000 O.3     1  LIG1       -0.4724
     22 C          -4.7880    1.0080    0.0000 C.3     1  LIG1        0.2057
     23 C          -5.6710    1.5130    0.0000 C.3     1  LIG1        0.0512
     24 O          -3.9330   -0.5080    0.0000 O.3     1  LIG1       -0.4724
     25 C          -4.7880   -0.0080    0.0000 C.3     1  LIG1        0.2057
     26 C          -5.6460   -0.4960    0.0000 C.3     1  LIG1        0.0512
     27 S          -0.4460   -1.5080    0.0000 S.2     1  LIG1       -0.0347
@<TRIPOS>BOND
     1     1     2    1
     2     1    15    1
     3     1    27    2
     4     2     3    1
     5     2    14    1
     6     3     4    1
     7     4     5    1
     8     5     6    1
     9     5    13    1
    10     6     7    1
    11     7     8   ar
    12     7    12   ar
    13     8     9   ar
    14     9    10   ar
    15    10    11   ar
    16    11    12   ar
    17    13    14    1
    18    15    16   ar
    19    15    20   ar
    20    16    17   ar
    21    17    18   ar
    22    17    24    1
    23    18    19   ar
    24    18    21    1
    25    19    20   ar
    26    21    22    1
    27    22    23    1
    28    24    25    1
    29    25    26    1
