@<TRIPOS>MOLECULE
34893_ChemDiv_8016-1468
 23 25 0 0 0
SMALL
GASTEIGER
Energy = 0

@<TRIPOS>ATOM
      1 N          -0.5880    0.4250    0.0000 N.ar    1  LIG1       -0.1280
      2 N          -0.2630   -0.5170    0.0000 N.ar    1  LIG1       -0.1281
      3 N          -1.0710   -1.1170    0.0000 N.ar    1  LIG1       -0.0434
      4 N          -1.8880   -0.5420    0.0000 N.ar    1  LIG1       -0.1077
      5 C          -1.5960    0.4130    0.0000 C.ar    1  LIG1        0.2058
      6 C          -2.1960    1.2210    0.0000 C.ar    1  LIG1        0.0395
      7 C          -3.1880    1.0960    0.0000 C.ar    1  LIG1        0.0055
      8 C          -3.7960    1.8960    0.0000 C.ar    1  LIG1        0.0297
      9 C          -3.4000    2.8210    0.0000 C.ar    1  LIG1        0.1401
     10 C          -2.4080    2.9460    0.0000 C.ar    1  LIG1        0.0297
     11 C          -1.8000    2.1420    0.0000 C.ar    1  LIG1        0.0055
     12 F          -3.9460    3.5210    0.0000 F       1  LIG1       -0.2042
     13 C           0.5420    0.0750    0.0000 C.3     1  LIG1        0.2656
     14 N           1.5920   -0.5540    0.0000 N.am    1  LIG1       -0.1767
     15 C           2.4630   -0.0540    0.0000 C.2     1  LIG1        0.2476
     16 O           2.4670    0.9460    0.0000 O.2     1  LIG1       -0.2729
     17 C           3.1670   -0.5250    0.0000 C.3     1  LIG1        0.1132
     18 C           3.1040   -1.5250    0.0000 C.ar    1  LIG1       -0.0130
     19 C           3.9420   -2.0750    0.0000 C.ar    1  LIG1       -0.0038
     20 C           3.8790   -3.0750    0.0000 C.ar    1  LIG1       -0.0003
     21 C           2.9880   -3.5170    0.0000 C.ar    1  LIG1       -0.0000
     22 C           2.1540   -2.9670    0.0000 C.ar    1  LIG1       -0.0003
     23 C           2.2130   -1.9670    0.0000 C.ar    1  LIG1       -0.0038
@<TRIPOS>BOND
     1     1     2   ar
     2     1     5   ar
     3     2     3   ar
     4     2    13    1
     5     3     4   ar
     6     4     5   ar
     7     5     6    1
     8     6     7   ar
     9     6    11   ar
    10     7     8   ar
    11     8     9   ar
    12     9    10   ar
    13     9    12    1
    14    10    11   ar
    15    13    14    1
    16    14    15   am
    17    15    16    2
    18    15    17    1
    19    17    18    1
    20    18    19   ar
    21    18    23   ar
    22    19    20   ar
    23    20    21   ar
    24    21    22   ar
    25    22    23   ar
