@<TRIPOS>MOLECULE
34907_ChemDiv_8016-4395
 27 31 0 0 0
SMALL
GASTEIGER
Energy = 0

@<TRIPOS>ATOM
      1 C          -0.7960    0.6380    0.0000 C.ar    1  LIG1        0.1350
      2 C          -0.4960    1.5960    0.0000 C.ar    1  LIG1        0.1053
      3 N          -1.1710    2.3380    0.0000 N.ar    1  LIG1       -0.2208
      4 C          -2.1580    2.1210    0.0000 C.ar    1  LIG1        0.1736
      5 N          -2.4580    1.1630    0.0000 N.ar    1  LIG1       -0.2736
      6 C          -1.7790    0.4170    0.0000 C.ar    1  LIG1        0.2797
      7 O          -2.0750   -0.5330    0.0000 O.2     1  LIG1       -0.2653
      8 C          -3.4630    1.1500    0.0000 C.3     1  LIG1        0.1231
      9 C          -3.7830    2.1080    0.0000 C.3     1  LIG1        0.0897
     10 S          -2.9710    2.7040    0.0000 S.3     1  LIG1       -0.0752
     11 C           0.5080    1.6080    0.0000 C.ar    1  LIG1        0.0381
     12 C           0.8290    0.6580    0.0000 C.ar    1  LIG1        0.0620
     13 N           0.0250    0.0540    0.0000 N.ar    1  LIG1       -0.3180
     14 C           0.0380   -0.9420    0.0000 C.3     1  LIG1        0.1329
     15 C           0.9210   -1.4330    0.0000 C.ar    1  LIG1        0.0004
     16 C           0.9290   -2.4290    0.0000 C.ar    1  LIG1       -0.0015
     17 C           1.7960   -2.9080    0.0000 C.ar    1  LIG1        0.0111
     18 C           2.6540   -2.4040    0.0000 C.ar    1  LIG1        0.0577
     19 CL          3.5210   -2.8830    0.0000 Cl      1  LIG1       -0.0822
     20 C           2.6420   -1.4080    0.0000 C.ar    1  LIG1        0.0111
     21 C           1.7710   -0.9210    0.0000 C.ar    1  LIG1       -0.0015
     22 C           1.8080    0.4670    0.0000 C.ar    1  LIG1        0.0204
     23 C           2.4580    1.2210    0.0000 C.ar    1  LIG1        0.0384
     24 C           2.1380    2.1630    0.0000 C.ar    1  LIG1        0.1389
     25 C           1.1580    2.3580    0.0000 C.ar    1  LIG1        0.0399
     26 O           2.7960    2.9130    0.0000 O.3     1  LIG1       -0.4714
     27 C           3.7790    2.7210    0.0000 C.3     1  LIG1        0.2525
@<TRIPOS>BOND
     1     1     2   ar
     2     1     6   ar
     3     1    13   ar
     4     2     3   ar
     5     2    11   ar
     6     3     4   ar
     7     4     5   ar
     8     4    10    1
     9     5     6   ar
    10     5     8    1
    11     6     7    2
    12     8     9    1
    13     9    10    1
    14    11    12   ar
    15    11    25   ar
    16    12    13   ar
    17    12    22   ar
    18    13    14    1
    19    14    15    1
    20    15    16   ar
    21    15    21   ar
    22    16    17   ar
    23    17    18   ar
    24    18    19    1
    25    18    20   ar
    26    20    21   ar
    27    22    23   ar
    28    23    24   ar
    29    24    25   ar
    30    24    26    1
    31    26    27    1
