@<TRIPOS>MOLECULE
34908_ChemDiv_8016-7599
 13 14 0 0 0
SMALL
GASTEIGER
Energy = 0

@<TRIPOS>ATOM
      1 N           0.0000   -1.2540    0.0000 N.ar    1  LIG1       -0.1321
      2 C           0.0000   -0.2460    0.0000 C.ar    1  LIG1        0.1538
      3 N           0.8630    0.2540    0.0000 N.pl3   1  LIG1       -0.2806
      4 C           0.8540    1.2580    0.0000 C.3     1  LIG1        0.1617
      5 C           1.7250    1.7580    0.0000 C.3     1  LIG1        0.2225
      6 N           2.5920    1.2580    0.0000 N.4     1  LIG1        0.4510
      7 C           2.5920    0.2540    0.0000 C.3     1  LIG1        0.2225
      8 C           1.7290   -0.2460    0.0000 C.3     1  LIG1        0.1617
      9 C          -0.8710    0.2500    0.0000 C.ar    1  LIG1        0.0386
     10 C          -1.7330   -0.2540    0.0000 C.ar    1  LIG1        0.0355
     11 C          -1.7330   -1.2540    0.0000 C.ar    1  LIG1        0.1600
     12 N          -0.8710   -1.7540    0.0000 N.ar    1  LIG1       -0.1352
     13 CL         -2.5960   -1.7460    0.0000 Cl      1  LIG1       -0.0594
@<TRIPOS>BOND
     1     1     2   ar
     2     1    12   ar
     3     2     3    1
     4     2     9   ar
     5     3     4    1
     6     3     8    1
     7     4     5    1
     8     5     6    1
     9     6     7    1
    10     7     8    1
    11     9    10   ar
    12    10    11   ar
    13    11    12   ar
    14    11    13    1
