@<TRIPOS>MOLECULE
34901_ChemDiv_8017-3795
 28 30 0 0 0
SMALL
GASTEIGER
Energy = 0

@<TRIPOS>ATOM
      1 C           0.4960   -1.7290    0.0000 C.2     1  LIG1        0.0845
      2 N           0.9960   -0.8630    0.0000 N.am    1  LIG1       -0.3023
      3 C           1.9960   -0.8630    0.0000 C.3     1  LIG1        0.0913
      4 C           2.4960    0.0000    0.0000 C.3     1  LIG1        0.0218
      5 C           1.9960    0.8710    0.0000 C.3     1  LIG1        0.0078
      6 C           2.4960    1.7330    0.0000 C.3     1  LIG1        0.0265
      7 C           3.4960    1.7330    0.0000 C.ar    1  LIG1       -0.0222
      8 C           3.9960    0.8710    0.0000 C.ar    1  LIG1       -0.0043
      9 C           4.9960    0.8710    0.0000 C.ar    1  LIG1       -0.0003
     10 C           5.4920    1.7330    0.0000 C.ar    1  LIG1       -0.0000
     11 C           4.9960    2.5960    0.0000 C.ar    1  LIG1       -0.0003
     12 C           3.9960    2.5960    0.0000 C.ar    1  LIG1       -0.0043
     13 C           0.9960    0.8710    0.0000 C.3     1  LIG1        0.0218
     14 C           0.4960    0.0080    0.0000 C.3     1  LIG1        0.0913
     15 C          -0.5080   -1.7290    0.0000 C.ar    1  LIG1        0.0232
     16 C          -1.0080   -0.8630    0.0000 C.ar    1  LIG1        0.0418
     17 C          -2.0080   -0.8630    0.0000 C.ar    1  LIG1        0.1725
     18 C          -2.5080   -1.7290    0.0000 C.ar    1  LIG1        0.1729
     19 O          -3.5080   -1.7290    0.0000 O.3     1  LIG1       -0.4624
     20 C          -3.9960   -0.8290    0.0000 C.3     1  LIG1        0.2930
     21 C          -4.9960   -0.8420    0.0000 C.2     1  LIG1        0.3052
     22 O          -5.4960   -1.7040    0.0000 O.2     1  LIG1       -0.2676
     23 N          -5.4960    0.0250    0.0000 N.am    1  LIG1       -0.0845
     24 C          -2.0080   -2.5920    0.0000 C.ar    1  LIG1        0.0401
     25 C          -1.0080   -2.5920    0.0000 C.ar    1  LIG1        0.0051
     26 O          -2.5080    0.0080    0.0000 O.3     1  LIG1       -0.4684
     27 C          -1.9960    0.8630    0.0000 C.3     1  LIG1        0.2526
     28 S           0.9960   -2.5920    0.0000 S.2     1  LIG1       -0.0347
@<TRIPOS>BOND
     1     1     2    1
     2     1    15    1
     3     1    28    2
     4     2     3    1
     5     2    14    1
     6     3     4    1
     7     4     5    1
     8     5     6    1
     9     5    13    1
    10     6     7    1
    11     7     8   ar
    12     7    12   ar
    13     8     9   ar
    14     9    10   ar
    15    10    11   ar
    16    11    12   ar
    17    13    14    1
    18    15    16   ar
    19    15    25   ar
    20    16    17   ar
    21    17    18   ar
    22    17    26    1
    23    18    19    1
    24    18    24   ar
    25    19    20    1
    26    20    21    1
    27    21    22    2
    28    21    23   am
    29    24    25   ar
    30    26    27    1
