@<TRIPOS>MOLECULE
34910_ChemDiv_8016-7642
 29 32 0 0 0
SMALL
GASTEIGER
Energy = 0

@<TRIPOS>ATOM
      1 N           2.8500   -1.0250    0.0000 N.am    1  LIG1       -0.2568
      2 C           2.2920   -1.8420    0.0000 C.3     1  LIG1        0.1931
      3 N           1.3290   -1.5380    0.0000 N.am    1  LIG1       -0.2596
      4 C           0.4670   -2.0290    0.0000 C.2     1  LIG1        0.2383
      5 C          -0.3920   -1.5380    0.0000 C.3     1  LIG1        0.1501
      6 S          -0.4170   -0.5290    0.0000 S.3     1  LIG1       -0.0659
      7 C          -1.3210   -0.0170    0.0000 C.ar    1  LIG1        0.1905
      8 N          -1.4170    0.9580    0.0000 N.ar    1  LIG1       -0.2196
      9 C          -2.3960    1.1710    0.0000 C.ar    1  LIG1        0.1041
     10 C          -2.8830    0.3080    0.0000 C.ar    1  LIG1        0.1013
     11 N          -2.2080   -0.4630    0.0000 N.ar    1  LIG1       -0.2197
     12 C          -3.8920    0.3080    0.0000 C.ar    1  LIG1        0.0238
     13 C          -4.4040    1.1710    0.0000 C.ar    1  LIG1        0.0385
     14 C          -3.8670    2.0580    0.0000 C.ar    1  LIG1        0.1402
     15 C          -2.8830    2.0330    0.0000 C.ar    1  LIG1        0.0576
     16 O          -4.2960    2.9580    0.0000 O.3     1  LIG1       -0.4754
     17 C          -5.2920    3.0330    0.0000 C.3     1  LIG1        0.2055
     18 C          -5.8580    2.2330    0.0000 C.3     1  LIG1        0.0512
     19 O           0.4920   -3.0290    0.0000 O.2     1  LIG1       -0.2739
     20 C           1.3290   -0.5290    0.0000 C.3     1  LIG1        0.1165
     21 C           2.2670   -0.2040    0.0000 C.3     1  LIG1        0.1168
     22 C           3.8540   -1.0250    0.0000 C.2     1  LIG1        0.2503
     23 O           4.3420   -1.9130    0.0000 O.2     1  LIG1       -0.2699
     24 C           4.3670   -0.1580    0.0000 C.ar    1  LIG1        0.0536
     25 C           3.8750    0.7250    0.0000 C.ar    1  LIG1        0.0045
     26 C           4.3670    1.5710    0.0000 C.ar    1  LIG1        0.0001
     27 C           5.3670    1.5710    0.0000 C.ar    1  LIG1        0.0000
     28 C           5.8540    0.7000    0.0000 C.ar    1  LIG1        0.0001
     29 C           5.3420   -0.1580    0.0000 C.ar    1  LIG1        0.0045
@<TRIPOS>BOND
     1     1     2    1
     2     1    21    1
     3     1    22   am
     4     2     3    1
     5     3     4   am
     6     3    20    1
     7     4     5    1
     8     4    19    2
     9     5     6    1
    10     6     7    1
    11     7     8   ar
    12     7    11   ar
    13     8     9   ar
    14     9    10   ar
    15     9    15   ar
    16    10    11   ar
    17    10    12   ar
    18    12    13   ar
    19    13    14   ar
    20    14    15   ar
    21    14    16    1
    22    16    17    1
    23    17    18    1
    24    20    21    1
    25    22    23    2
    26    22    24    1
    27    24    25   ar
    28    24    29   ar
    29    25    26   ar
    30    26    27   ar
    31    27    28   ar
    32    28    29   ar
