@<TRIPOS>MOLECULE
34917_ChemDiv_8016-1861
 29 32 0 0 0
SMALL
GASTEIGER
Energy = 0

@<TRIPOS>ATOM
      1 S           2.0790   -1.6000    0.0000 S.O2    1  LIG1       -0.0578
      2 N           2.9420   -2.1040    0.0000 N.pl3   1  LIG1       -0.5363
      3 C           3.8130   -1.6000    0.0000 C.ar    1  LIG1       -0.1203
      4 C           4.6790   -2.1040    0.0000 C.ar    1  LIG1       -0.0442
      5 C           5.5540   -1.6000    0.0000 C.ar    1  LIG1       -0.0061
      6 C           5.5540   -0.5920    0.0000 C.ar    1  LIG1       -0.0008
      7 C           4.6790   -0.1040    0.0000 C.ar    1  LIG1       -0.0061
      8 C           3.8130   -0.5920    0.0000 C.ar    1  LIG1       -0.0442
      9 C           2.9540   -0.1040    0.0000 C.3     1  LIG1        0.0291
     10 C           4.6790   -3.1000    0.0000 C.3     1  LIG1        0.0291
     11 C           1.2170   -1.1000    0.0000 C.ar    1  LIG1        0.0893
     12 C           1.2250   -0.1040    0.0000 C.ar    1  LIG1        0.0169
     13 C           0.3630    0.3960    0.0000 C.ar    1  LIG1        0.0013
     14 C          -0.5040   -0.1040    0.0000 C.ar    1  LIG1        0.0001
     15 C          -1.3670    0.3960    0.0000 C.ar    1  LIG1        0.0001
     16 C          -1.3790    1.4040    0.0000 C.ar    1  LIG1        0.0015
     17 C          -2.2330    1.8960    0.0000 C.ar    1  LIG1        0.0193
     18 C          -3.1040    1.4040    0.0000 C.ar    1  LIG1        0.0863
     19 N          -3.9670    1.8960    0.0000 N.ar    1  LIG1       -0.1886
     20 N          -4.8920    1.4960    0.0000 N.ar    1  LIG1       -0.0385
     21 N          -5.5580    2.2330    0.0000 N.ar    1  LIG1       -0.0222
     22 N          -5.0540    3.1040    0.0000 N.ar    1  LIG1       -0.1045
     23 C          -4.0750    2.8920    0.0000 C.ar    1  LIG1        0.2258
     24 C          -3.1040    0.3960    0.0000 C.ar    1  LIG1        0.0193
     25 C          -2.2460   -0.1040    0.0000 C.ar    1  LIG1        0.0015
     26 C          -0.5040   -1.1000    0.0000 C.ar    1  LIG1        0.0013
     27 C           0.3630   -1.6000    0.0000 C.ar    1  LIG1        0.0169
     28 O           1.5880   -2.4670    0.0000 O.2     1  LIG1       -0.1842
     29 O           2.5790   -0.7290    0.0000 O.2     1  LIG1       -0.1842
@<TRIPOS>BOND
     1     1     2    1
     2     1    11    1
     3     1    28    2
     4     1    29    2
     5     2     3    1
     6     3     4   ar
     7     3     8   ar
     8     4     5   ar
     9     4    10    1
    10     5     6   ar
    11     6     7   ar
    12     7     8   ar
    13     8     9    1
    14    11    12   ar
    15    11    27   ar
    16    12    13   ar
    17    13    14   ar
    18    14    15    1
    19    14    26   ar
    20    15    16   ar
    21    15    25   ar
    22    16    17   ar
    23    17    18   ar
    24    18    19    1
    25    18    24   ar
    26    19    20   ar
    27    19    23   ar
    28    20    21   ar
    29    21    22   ar
    30    22    23   ar
    31    24    25   ar
    32    26    27   ar
