@<TRIPOS>MOLECULE
34913_ChemDiv_8016-1814
 26 29 0 0 0
SMALL
GASTEIGER
Energy = 0

@<TRIPOS>ATOM
      1 N          -2.1960    0.2920    0.0000 N.am    1  LIG1       -0.1588
      2 N          -2.9880    0.8670    0.0000 N.2     1  LIG1       -0.1798
      3 C          -2.6880    1.7920    0.0000 C.2     1  LIG1        0.0634
      4 C          -1.7080    1.7920    0.0000 C.3     1  LIG1        0.1166
      5 C          -1.4080    0.8670    0.0000 C.2     1  LIG1        0.2531
      6 O          -0.5710    0.3790    0.0000 O.2     1  LIG1       -0.2724
      7 C          -1.2250    2.6380    0.0000 C.3     1  LIG1        0.0244
      8 C          -0.2500    2.6380    0.0000 C.3     1  LIG1        0.0865
      9 C           0.2420    1.7920    0.0000 C.2     1  LIG1        0.2293
     10 N           1.2210    1.7920    0.0000 N.am    1  LIG1       -0.2586
     11 C           1.7080    0.9540    0.0000 C.ar    1  LIG1        0.0499
     12 C           2.6830    0.9540    0.0000 C.ar    1  LIG1       -0.0068
     13 C           2.6830    2.6380    0.0000 C.3     1  LIG1        0.0495
     14 C           1.7080    2.6380    0.0000 C.3     1  LIG1        0.1029
     15 C           3.1710    0.1040    0.0000 C.ar    1  LIG1       -0.0030
     16 C           2.6830   -0.7460    0.0000 C.ar    1  LIG1       -0.0002
     17 C           1.7080   -0.7460    0.0000 C.ar    1  LIG1        0.0013
     18 C           1.2210    0.1040    0.0000 C.ar    1  LIG1        0.0146
     19 O          -0.2500    0.9540    0.0000 O.2     1  LIG1       -0.2745
     20 C          -3.1750    2.6380    0.0000 C.3     1  LIG1        0.0494
     21 C          -2.1960   -0.6830    0.0000 C.ar    1  LIG1        0.0767
     22 C          -3.0460   -1.1710    0.0000 C.ar    1  LIG1        0.0168
     23 C          -3.0460   -2.1460    0.0000 C.ar    1  LIG1        0.0013
     24 C          -2.1960   -2.6330    0.0000 C.ar    1  LIG1        0.0001
     25 C          -1.3580   -2.1460    0.0000 C.ar    1  LIG1        0.0013
     26 C          -1.3580   -1.1710    0.0000 C.ar    1  LIG1        0.0168
@<TRIPOS>BOND
     1     1     2    1
     2     1     5   am
     3     1    21    1
     4     2     3    2
     5     3     4    1
     6     3    20    1
     7     4     5    1
     8     4     7    1
     9     5     6    2
    10     7     8    1
    11     8     9    1
    12     9    10   am
    13     9    19    2
    14    10    11    1
    15    10    14    1
    16    11    12   ar
    17    11    18   ar
    18    12    13    1
    19    12    15   ar
    20    13    14    1
    21    15    16   ar
    22    16    17   ar
    23    17    18   ar
    24    21    22   ar
    25    21    26   ar
    26    22    23   ar
    27    23    24   ar
    28    24    25   ar
    29    25    26   ar
