@<TRIPOS>MOLECULE
34919_ChemDiv_8016-1878
 21 24 0 0 0
SMALL
GASTEIGER
Energy = 0

@<TRIPOS>ATOM
      1 N           1.7170    0.3330    0.0000 N.ar    1  LIG1       -0.1964
      2 C           1.6040   -0.6750    0.0000 C.ar    1  LIG1        0.2052
      3 N           0.7290   -1.1790    0.0000 N.am    1  LIG1       -0.1531
      4 C          -0.1460   -0.6750    0.0000 C.2     1  LIG1        0.2473
      5 C          -1.0210   -1.1790    0.0000 C.3     1  LIG1        0.0872
      6 C          -1.8960   -0.6750    0.0000 C.3     1  LIG1        0.0087
      7 C          -1.8960    0.3380    0.0000 C.3     1  LIG1        0.0005
      8 C          -2.7710    0.8460    0.0000 C.3     1  LIG1        0.0000
      9 C          -3.6460    0.3380    0.0000 C.3     1  LIG1        0.0000
     10 C          -3.6460   -0.7420    0.0000 C.3     1  LIG1        0.0000
     11 C          -2.4880   -1.0790    0.0000 C.3     1  LIG1        0.0005
     12 C          -4.2330   -1.4170    0.0000 C.3     1  LIG1        0.0000
     13 C          -3.2750   -1.1420    0.0000 C.3     1  LIG1        0.0000
     14 C          -2.4580   -1.4170    0.0000 C.3     1  LIG1        0.0005
     15 C          -3.2750   -0.0290    0.0000 C.3     1  LIG1        0.0000
     16 O          -0.1460    0.3380    0.0000 O.2     1  LIG1       -0.2729
     17 S           2.5290   -1.0880    0.0000 S.2     1  LIG1        0.0519
     18 N           3.2130   -0.3290    0.0000 N.ar    1  LIG1       -0.1809
     19 C           2.7040    0.5460    0.0000 C.ar    1  LIG1        0.1985
     20 S           3.2130    1.4210    0.0000 S.3     1  LIG1       -0.0742
     21 C           4.2290    1.4210    0.0000 C.3     1  LIG1        0.0772
@<TRIPOS>BOND
     1     1     2   ar
     2     1    19   ar
     3     2     3    1
     4     2    17   ar
     5     3     4   am
     6     4     5    1
     7     4    16    2
     8     5     6    1
     9     6     7    1
    10     6    11    1
    11     6    14    1
    12     7     8    1
    13     8     9    1
    14     8    15    1
    15     9    10    1
    16    10    11    1
    17    10    12    1
    18    12    13    1
    19    13    14    1
    20    13    15    1
    21    17    18   ar
    22    18    19   ar
    23    19    20    1
    24    20    21    1
