@<TRIPOS>MOLECULE
34928_ChemDiv_8017-2147
 26 29 0 0 0
SMALL
GASTEIGER
Energy = 0

@<TRIPOS>ATOM
      1 C           0.8170    0.8670    0.0000 C.ar    1  LIG1        0.1453
      2 N           0.8420    1.8580    0.0000 N.ar    1  LIG1       -0.2731
      3 C           1.6920    2.3790    0.0000 C.ar    1  LIG1        0.1893
      4 N           2.5880    1.8580    0.0000 N.ar    1  LIG1       -0.1833
      5 C           2.5630    0.8670    0.0000 C.ar    1  LIG1        0.2852
      6 C           1.7130    0.3540    0.0000 C.ar    1  LIG1        0.1240
      7 C           1.7000   -0.6460    0.0000 C.3     1  LIG1        0.1771
      8 N           0.8290   -1.1460    0.0000 N.4     1  LIG1        0.4042
      9 C          -0.0330   -0.6460    0.0000 C.3     1  LIG1        0.2630
     10 N          -0.0330    0.3580    0.0000 N.pl3   1  LIG1       -0.1648
     11 C           0.8290   -2.1460    0.0000 C.3     1  LIG1        0.2071
     12 C           1.7000   -2.6460    0.0000 C.ar    1  LIG1        0.1799
     13 O           1.8040   -3.6420    0.0000 O.2     1  LIG1       -0.4488
     14 C           2.7790   -3.8460    0.0000 C.ar    1  LIG1        0.1794
     15 C           3.2790   -2.9830    0.0000 C.ar    1  LIG1        0.0436
     16 C           2.6170   -2.2330    0.0000 C.ar    1  LIG1        0.0422
     17 O           3.4540    0.3540    0.0000 O.2     1  LIG1       -0.2652
     18 S           1.7170    3.3670    0.0000 S.2     1  LIG1       -0.0105
     19 C          -0.0130    2.3540    0.0000 C.ar    1  LIG1        0.0672
     20 C          -0.0130    3.3540    0.0000 C.ar    1  LIG1        0.0207
     21 C          -0.8750    3.8500    0.0000 C.ar    1  LIG1        0.0384
     22 C          -1.7380    3.3540    0.0000 C.ar    1  LIG1        0.1388
     23 C          -1.7380    2.3540    0.0000 C.ar    1  LIG1        0.0384
     24 C          -0.8750    1.8580    0.0000 C.ar    1  LIG1        0.0207
     25 O          -2.5960    3.8500    0.0000 O.3     1  LIG1       -0.4714
     26 C          -3.4580    3.3540    0.0000 C.3     1  LIG1        0.2525
@<TRIPOS>BOND
     1     1     2   ar
     2     1     6   ar
     3     1    10    1
     4     2     3   ar
     5     2    19    1
     6     3     4   ar
     7     3    18    2
     8     4     5   ar
     9     5     6   ar
    10     5    17    2
    11     6     7    1
    12     7     8    1
    13     8     9    1
    14     8    11    1
    15     9    10    1
    16    11    12    1
    17    12    13   ar
    18    12    16   ar
    19    13    14   ar
    20    14    15   ar
    21    15    16   ar
    22    19    20   ar
    23    19    24   ar
    24    20    21   ar
    25    21    22   ar
    26    22    23   ar
    27    22    25    1
    28    23    24   ar
    29    25    26    1
