@<TRIPOS>MOLECULE
34927_ChemDiv_8016-2065
 12 12 0 0 0
SMALL
GASTEIGER
Energy = 0

@<TRIPOS>ATOM
      1 C           0.0000    1.2580    0.0000 C.ar    1  LIG1        0.0910
      2 C          -0.8630    0.7880    0.0000 C.ar    1  LIG1        0.1009
      3 C          -0.8630   -0.2460    0.0000 C.ar    1  LIG1        0.0201
      4 C           0.0000   -0.7460    0.0000 C.ar    1  LIG1        0.0167
      5 C           0.0000   -1.7540    0.0000 C.2     1  LIG1        0.0730
      6 O           0.8540   -2.2460    0.0000 O.co2   1  LIG1       -0.5446
      7 O          -0.8630   -2.2460    0.0000 O.co2   1  LIG1       -0.5446
      8 C           0.8540   -0.2460    0.0000 C.ar    1  LIG1        0.0201
      9 C           0.8540    0.7710    0.0000 C.ar    1  LIG1        0.1009
     10 N           1.7170    1.2830    0.0000 N.pl3   1  LIG1       -0.1271
     11 N          -1.7210    1.3250    0.0000 N.pl3   1  LIG1       -0.1271
     12 CL         -0.0250    2.2500    0.0000 Cl      1  LIG1       -0.0794
@<TRIPOS>BOND
     1     1     2   ar
     2     1     9   ar
     3     1    12    1
     4     2     3   ar
     5     2    11    1
     6     3     4   ar
     7     4     5    1
     8     4     8   ar
     9     5     6   ar
    10     5     7   ar
    11     8     9   ar
    12     9    10    1
