@<TRIPOS>MOLECULE
34924_ChemDiv_8017-2101
 14 15 0 0 0
SMALL
GASTEIGER
Energy = 0

@<TRIPOS>ATOM
      1 C          -0.0250    0.0040    0.0000 C.ar    1  LIG1        0.2177
      2 N          -0.0330   -0.9920    0.0000 N.ar    1  LIG1       -0.2626
      3 C           0.8290   -1.4920    0.0000 C.ar    1  LIG1        0.2629
      4 C           1.7040   -1.0000    0.0000 C.ar    1  LIG1        0.0574
      5 C           1.7040    0.0130    0.0000 C.ar    1  LIG1       -0.0030
      6 C           0.8290    0.5040    0.0000 C.ar    1  LIG1        0.1160
      7 C           0.8290    1.4960    0.0000 C.1     1  LIG1        0.1048
      8 N           0.8290    2.4960    0.0000 N.1     1  LIG1       -0.1907
      9 C           2.5670    0.5040    0.0000 C.3     1  LIG1        0.0320
     10 O           0.8290   -2.4920    0.0000 O.2     1  LIG1       -0.2669
     11 C          -0.9830   -1.3040    0.0000 C.3     1  LIG1        0.1553
     12 C          -1.5710   -0.4920    0.0000 C.3     1  LIG1        0.1902
     13 O          -0.9830    0.3170    0.0000 O.3     1  LIG1       -0.4626
     14 C          -2.5710   -0.4880    0.0000 C.3     1  LIG1        0.0494
@<TRIPOS>BOND
     1     1     2   ar
     2     1     6   ar
     3     1    13    1
     4     2     3   ar
     5     2    11    1
     6     3     4   ar
     7     3    10    2
     8     4     5   ar
     9     5     6   ar
    10     5     9    1
    11     6     7    1
    12     7     8    3
    13    11    12    1
    14    12    13    1
    15    12    14    1
