@<TRIPOS>MOLECULE
34925_ChemDiv_8016-2017
 16 17 0 0 0
SMALL
GASTEIGER
Energy = 0

@<TRIPOS>ATOM
      1 C          -0.6130    0.4210    0.0000 C.ar    1  LIG1        0.1614
      2 C          -0.1330    1.2460    0.0000 C.2     1  LIG1        0.2887
      3 N           0.8330    1.2460    0.0000 N.am    1  LIG1       -0.1741
      4 C           1.3080    0.4210    0.0000 C.ar    1  LIG1        0.0739
      5 C           0.8330   -0.4170    0.0000 C.ar    1  LIG1        0.0189
      6 C           1.3080   -1.2460    0.0000 C.ar    1  LIG1        0.0310
      7 C           2.2710   -1.2460    0.0000 C.ar    1  LIG1        0.1402
      8 F           2.7460   -2.0790    0.0000 F       1  LIG1       -0.2042
      9 C           2.7460   -0.4170    0.0000 C.ar    1  LIG1        0.0310
     10 C           2.2710    0.4210    0.0000 C.ar    1  LIG1        0.0189
     11 O          -0.6130    2.0830    0.0000 O.2     1  LIG1       -0.2663
     12 C          -2.2710    0.4210    0.0000 C.ar    1  LIG1        0.1197
     13 C          -2.2710   -0.5460    0.0000 C.ar    1  LIG1        0.0745
     14 S          -1.4580   -1.0210    0.0000 S.2     1  LIG1        0.0151
     15 N          -0.6130   -0.5460    0.0000 N.ar    1  LIG1       -0.2031
     16 N          -2.7500    1.2460    0.0000 N.pl3   1  LIG1       -0.1257
@<TRIPOS>BOND
     1     1     2    1
     2     1    12   ar
     3     1    15   ar
     4     2     3   am
     5     2    11    2
     6     3     4    1
     7     4     5   ar
     8     4    10   ar
     9     5     6   ar
    10     6     7   ar
    11     7     8    1
    12     7     9   ar
    13     9    10   ar
    14    12    13   ar
    15    12    16    1
    16    13    14   ar
    17    14    15   ar
