@<TRIPOS>MOLECULE
34921_ChemDiv_8016-1934
 20 22 0 0 0
SMALL
GASTEIGER
Energy = 0

@<TRIPOS>ATOM
      1 C           0.4210    0.2460    0.0000 C.ar    1  LIG1        0.1367
      2 N           0.4210    1.2080    0.0000 N.ar    1  LIG1       -0.2320
      3 C           2.0960    1.2080    0.0000 C.ar    1  LIG1        0.0884
      4 C           2.0960    0.2460    0.0000 C.ar    1  LIG1        0.0490
      5 S           1.2580   -0.2420    0.0000 S.2     1  LIG1       -0.0603
      6 C           2.9330   -0.2420    0.0000 C.ar    1  LIG1        0.0080
      7 C           3.7710    0.2460    0.0000 C.ar    1  LIG1        0.0006
      8 C           3.7710    1.2080    0.0000 C.ar    1  LIG1        0.0016
      9 C           2.9330    1.6960    0.0000 C.ar    1  LIG1        0.0196
     10 S          -0.4250   -0.2420    0.0000 S.3     1  LIG1       -0.0837
     11 C          -1.2630    0.2460    0.0000 C.3     1  LIG1        0.0904
     12 C          -2.1000   -0.2420    0.0000 C.ar    1  LIG1       -0.0098
     13 C          -2.9330    0.2460    0.0000 C.ar    1  LIG1        0.0109
     14 C          -2.9330    1.2080    0.0000 C.2     1  LIG1        0.0726
     15 O          -2.1000    1.6960    0.0000 O.co2   1  LIG1       -0.5446
     16 O          -3.7750    1.6960    0.0000 O.co2   1  LIG1       -0.5446
     17 C          -3.7750   -0.2420    0.0000 C.ar    1  LIG1        0.0008
     18 C          -3.7750   -1.2040    0.0000 C.ar    1  LIG1        0.0000
     19 C          -2.9330   -1.6920    0.0000 C.ar    1  LIG1       -0.0003
     20 C          -2.1000   -1.2040    0.0000 C.ar    1  LIG1       -0.0034
@<TRIPOS>BOND
     1     1     2   ar
     2     1     5   ar
     3     1    10    1
     4     2     3   ar
     5     3     4   ar
     6     3     9   ar
     7     4     5   ar
     8     4     6   ar
     9     6     7   ar
    10     7     8   ar
    11     8     9   ar
    12    10    11    1
    13    11    12    1
    14    12    13   ar
    15    12    20   ar
    16    13    14    1
    17    13    17   ar
    18    14    15   ar
    19    14    16   ar
    20    17    18   ar
    21    18    19   ar
    22    19    20   ar
