@<TRIPOS>MOLECULE
34926_ChemDiv_8017-2118
 26 29 0 0 0
SMALL
GASTEIGER
Energy = 0

@<TRIPOS>ATOM
      1 C           2.3290    0.2710    0.0000 C.ar    1  LIG1        0.1280
      2 C           1.3420    0.1580    0.0000 C.ar    1  LIG1        0.1160
      3 C           0.8420   -0.7040    0.0000 C.2     1  LIG1        0.2699
      4 N          -0.1580   -0.7040    0.0000 N.am    1  LIG1       -0.1933
      5 C          -0.6630    0.1580    0.0000 C.3     1  LIG1        0.1806
      6 C          -1.6630    0.1580    0.0000 C.ar    1  LIG1        0.1610
      7 N          -2.2500    0.9670    0.0000 N.ar    1  LIG1       -0.2274
      8 C          -3.2000    0.6580    0.0000 C.ar    1  LIG1        0.1003
      9 C          -3.2000   -0.3380    0.0000 C.ar    1  LIG1        0.1003
     10 N          -2.2460   -0.6500    0.0000 N.ar    1  LIG1       -0.2274
     11 C          -4.0710   -0.8380    0.0000 C.ar    1  LIG1        0.0207
     12 C          -4.9330   -0.3380    0.0000 C.ar    1  LIG1        0.0016
     13 C          -4.9330    0.6580    0.0000 C.ar    1  LIG1        0.0016
     14 C          -4.0710    1.1580    0.0000 C.ar    1  LIG1        0.0207
     15 O           1.3420   -1.5670    0.0000 O.2     1  LIG1       -0.2682
     16 C           0.9290    1.0710    0.0000 C.ar    1  LIG1        0.2183
     17 O           1.6750    1.7420    0.0000 O.2     1  LIG1       -0.3500
     18 N           2.5420    1.2420    0.0000 N.ar    1  LIG1       -0.0767
     19 C           3.2000   -0.2420    0.0000 C.ar    1  LIG1        0.0277
     20 C           4.0670    0.2540    0.0000 C.ar    1  LIG1        0.0589
     21 CL          4.0670    1.2540    0.0000 Cl      1  LIG1       -0.0822
     22 C           4.9290   -0.2460    0.0000 C.ar    1  LIG1        0.0114
     23 C           4.9250   -1.2420    0.0000 C.ar    1  LIG1        0.0005
     24 C           4.0540   -1.7380    0.0000 C.ar    1  LIG1       -0.0042
     25 C           3.1920   -1.2380    0.0000 C.ar    1  LIG1       -0.0195
     26 C           2.3210   -1.7290    0.0000 C.3     1  LIG1        0.0311
@<TRIPOS>BOND
     1     1     2   ar
     2     1    18   ar
     3     1    19    1
     4     2     3    1
     5     2    16   ar
     6     3     4   am
     7     3    15    2
     8     4     5    1
     9     5     6    1
    10     6     7   ar
    11     6    10   ar
    12     7     8   ar
    13     8     9   ar
    14     8    14   ar
    15     9    10   ar
    16     9    11   ar
    17    11    12   ar
    18    12    13   ar
    19    13    14   ar
    20    16    17   ar
    21    17    18   ar
    22    19    20   ar
    23    19    25   ar
    24    20    21    1
    25    20    22   ar
    26    22    23   ar
    27    23    24   ar
    28    24    25   ar
    29    25    26    1
