@<TRIPOS>MOLECULE
34935_ChemDiv_8016-4575
 26 28 0 0 0
SMALL
GASTEIGER
Energy = 0

@<TRIPOS>ATOM
      1 S          -0.2710    1.6080    0.0000 S.O2    1  LIG1       -0.0578
      2 N           0.7170    1.6330    0.0000 N.pl3   1  LIG1       -0.5358
      3 C           1.2420    0.7710    0.0000 C.ar    1  LIG1       -0.1107
      4 C           2.2290    0.8000    0.0000 C.ar    1  LIG1       -0.0032
      5 C           2.7500   -0.0420    0.0000 C.ar    1  LIG1        0.0967
      6 N           3.7420   -0.0170    0.0000 N.ar    1  LIG1       -0.2470
      7 C           4.2670   -0.8670    0.0000 C.ar    1  LIG1        0.0728
      8 C           3.7920   -1.7540    0.0000 C.ar    1  LIG1        0.0728
      9 N           2.7920   -1.7750    0.0000 N.ar    1  LIG1       -0.2470
     10 C           2.2670   -0.9250    0.0000 C.ar    1  LIG1        0.0984
     11 C           1.2670   -0.9500    0.0000 C.ar    1  LIG1        0.0188
     12 C           0.7540   -0.0920    0.0000 C.ar    1  LIG1       -0.0222
     13 C           4.3170   -2.6040    0.0000 C.3     1  LIG1        0.0534
     14 C           5.2750   -0.8380    0.0000 C.3     1  LIG1        0.0534
     15 C          -1.2710    1.5880    0.0000 C.ar    1  LIG1        0.0893
     16 C          -1.7540    0.7130    0.0000 C.ar    1  LIG1        0.0166
     17 C          -2.7540    0.6880    0.0000 C.ar    1  LIG1       -0.0030
     18 C          -3.2790    1.5580    0.0000 C.ar    1  LIG1       -0.0227
     19 C          -4.2750    1.5380    0.0000 C.3     1  LIG1        0.0189
     20 C          -4.2750    2.5380    0.0000 C.3     1  LIG1        0.0044
     21 C          -5.2790    1.5460    0.0000 C.3     1  LIG1        0.0044
     22 C          -4.2670    0.5460    0.0000 C.3     1  LIG1        0.0044
     23 C          -2.7920    2.4330    0.0000 C.ar    1  LIG1       -0.0030
     24 C          -1.7920    2.4580    0.0000 C.ar    1  LIG1        0.0166
     25 O          -0.2830    2.6080    0.0000 O.2     1  LIG1       -0.1842
     26 O          -0.2580    0.6000    0.0000 O.2     1  LIG1       -0.1842
@<TRIPOS>BOND
     1     1     2    1
     2     1    15    1
     3     1    25    2
     4     1    26    2
     5     2     3    1
     6     3     4   ar
     7     3    12   ar
     8     4     5   ar
     9     5     6   ar
    10     5    10   ar
    11     6     7   ar
    12     7     8   ar
    13     7    14    1
    14     8     9   ar
    15     8    13    1
    16     9    10   ar
    17    10    11   ar
    18    11    12   ar
    19    15    16   ar
    20    15    24   ar
    21    16    17   ar
    22    17    18   ar
    23    18    19    1
    24    18    23   ar
    25    19    20    1
    26    19    21    1
    27    19    22    1
    28    23    24   ar
