@<TRIPOS>MOLECULE
34938_ChemDiv_8016-8090
 20 22 0 0 0
SMALL
GASTEIGER
Energy = 0

@<TRIPOS>ATOM
      1 C          -1.4580   -0.7920    0.0000 C.ar    1  LIG1        0.1267
      2 C          -0.6210   -0.3130    0.0000 C.2     1  LIG1        0.2747
      3 N           0.2170   -0.7920    0.0000 N.am    1  LIG1       -0.1752
      4 C           1.0540   -0.3130    0.0000 C.ar    1  LIG1        0.0769
      5 C           1.0540    0.6580    0.0000 C.ar    1  LIG1        0.0566
      6 C           1.8920    1.1380    0.0000 C.ar    1  LIG1        0.1737
      7 C           2.7420    0.6580    0.0000 C.ar    1  LIG1        0.1725
      8 O           3.5630    1.1380    0.0000 O.3     1  LIG1       -0.4684
      9 C           3.5630    2.1000    0.0000 C.3     1  LIG1        0.2526
     10 C           2.7290    2.5830    0.0000 C.3     1  LIG1        0.2526
     11 O           1.8920    2.1000    0.0000 O.3     1  LIG1       -0.4683
     12 C           2.7420   -0.3130    0.0000 C.ar    1  LIG1        0.0414
     13 C           1.9000   -0.7920    0.0000 C.ar    1  LIG1        0.0199
     14 O          -0.6210    0.6580    0.0000 O.2     1  LIG1       -0.2678
     15 C          -1.7080   -1.7290    0.0000 C.ar    1  LIG1        0.2692
     16 O          -2.6580   -1.9790    0.0000 O.2     1  LIG1       -0.3353
     17 N          -3.3290   -1.2920    0.0000 N.ar    1  LIG1       -0.0795
     18 C          -3.0790   -0.3630    0.0000 C.ar    1  LIG1        0.1069
     19 C          -3.5670    0.4830    0.0000 C.3     1  LIG1        0.0559
     20 N          -1.2210   -2.5790    0.0000 N.pl3   1  LIG1       -0.0851
@<TRIPOS>BOND
     1     1     2    1
     2     1    15   ar
     3     1    18   ar
     4     2     3   am
     5     2    14    2
     6     3     4    1
     7     4     5   ar
     8     4    13   ar
     9     5     6   ar
    10     6     7   ar
    11     6    11    1
    12     7     8    1
    13     7    12   ar
    14     8     9    1
    15     9    10    1
    16    10    11    1
    17    12    13   ar
    18    15    16   ar
    19    15    20    1
    20    16    17   ar
    21    17    18   ar
    22    18    19    1
