@<TRIPOS>MOLECULE
34931_ChemDiv_8016-4429
 25 28 0 0 0
SMALL
GASTEIGER
Energy = 0

@<TRIPOS>ATOM
      1 C          -3.0920    0.1330    0.0000 C.ar    1  LIG1        0.1090
      2 C          -2.6790   -0.7750    0.0000 C.ar    1  LIG1        0.0601
      3 N          -1.6920   -0.8790    0.0000 N.pl3   1  LIG1       -0.2966
      4 C          -1.2830   -1.7920    0.0000 C.3     1  LIG1        0.1544
      5 C          -0.2830   -1.8920    0.0000 C.3     1  LIG1        0.1609
      6 N           0.3000   -1.0880    0.0000 N.4     1  LIG1        0.3834
      7 C           1.2920   -1.1920    0.0000 C.3     1  LIG1        0.1664
      8 C           1.8790   -0.3880    0.0000 C.ar    1  LIG1        0.0376
      9 C           2.8790   -0.4880    0.0000 C.ar    1  LIG1        0.0416
     10 C           3.4670    0.3170    0.0000 C.ar    1  LIG1        0.1763
     11 C           3.0630    1.2290    0.0000 C.ar    1  LIG1        0.1764
     12 O           3.8040    1.8960    0.0000 O.3     1  LIG1       -0.4346
     13 C           4.6750    1.4040    0.0000 C.3     1  LIG1        0.4294
     14 O           4.4670    0.4170    0.0000 O.3     1  LIG1       -0.4346
     15 C           2.0630    1.3330    0.0000 C.ar    1  LIG1        0.0401
     16 C           1.4790    0.5210    0.0000 C.ar    1  LIG1        0.0048
     17 C          -0.1040   -0.1790    0.0000 C.3     1  LIG1        0.1609
     18 C          -1.1040   -0.0750    0.0000 C.3     1  LIG1        0.1544
     19 C          -3.2710   -1.5790    0.0000 C.ar    1  LIG1        0.0154
     20 C          -4.2750   -1.4790    0.0000 C.ar    1  LIG1        0.0036
     21 C          -4.6790   -0.5670    0.0000 C.ar    1  LIG1        0.0304
     22 C          -4.0880    0.2330    0.0000 C.ar    1  LIG1        0.1509
     23 F          -4.4960    1.1460    0.0000 F       1  LIG1       -0.2034
     24 C          -2.5040    0.9420    0.0000 C.1     1  LIG1        0.1039
     25 N          -1.5040    0.8330    0.0000 N.1     1  LIG1       -0.1907
@<TRIPOS>BOND
     1     1     2   ar
     2     1    22   ar
     3     1    24    1
     4     2     3    1
     5     2    19   ar
     6     3     4    1
     7     3    18    1
     8     4     5    1
     9     5     6    1
    10     6     7    1
    11     6    17    1
    12     7     8    1
    13     8     9   ar
    14     8    16   ar
    15     9    10   ar
    16    10    11   ar
    17    10    14    1
    18    11    12    1
    19    11    15   ar
    20    12    13    1
    21    13    14    1
    22    15    16   ar
    23    17    18    1
    24    19    20   ar
    25    20    21   ar
    26    21    22   ar
    27    22    23    1
    28    24    25    3
