@<TRIPOS>MOLECULE
34939_ChemDiv_8016-4580
 26 28 0 0 0
SMALL
GASTEIGER
Energy = 0

@<TRIPOS>ATOM
      1 S           0.8580   -0.8920    0.0000 S.O2    1  LIG1       -0.0578
      2 N           1.5710   -0.1790    0.0000 N.pl3   1  LIG1       -0.5358
      3 C           1.3080    0.7920    0.0000 C.ar    1  LIG1       -0.1123
      4 C           0.3460    1.0500    0.0000 C.ar    1  LIG1       -0.0237
      5 C           0.0710    2.0130    0.0000 C.ar    1  LIG1        0.0012
      6 C           0.7830    2.7250    0.0000 C.ar    1  LIG1        0.0361
      7 C           0.5210    3.6880    0.0000 C.ar    1  LIG1        0.1659
      8 O          -0.4170    4.0330    0.0000 O.2     1  LIG1       -0.4383
      9 C          -0.3670    5.0290    0.0000 C.ar    1  LIG1        0.2062
     10 N           0.5960    5.2880    0.0000 N.ar    1  LIG1       -0.2104
     11 C           1.1460    4.4540    0.0000 C.ar    1  LIG1        0.1391
     12 C          -1.1420    5.6540    0.0000 C.3     1  LIG1        0.0950
     13 C           1.7540    2.4670    0.0000 C.ar    1  LIG1        0.0012
     14 C           2.0170    1.5040    0.0000 C.ar    1  LIG1       -0.0237
     15 C           0.2170   -1.6540    0.0000 C.ar    1  LIG1        0.0894
     16 C           0.5580   -2.5920    0.0000 C.ar    1  LIG1        0.0182
     17 C          -0.0790   -3.3540    0.0000 C.ar    1  LIG1        0.0179
     18 C          -1.0670   -3.1790    0.0000 C.ar    1  LIG1        0.0734
     19 N          -1.7080   -3.9460    0.0000 N.am    1  LIG1       -0.1792
     20 C          -1.3670   -4.8830    0.0000 C.2     1  LIG1        0.2461
     21 O          -0.3830   -5.0580    0.0000 O.2     1  LIG1       -0.2730
     22 C          -2.0210   -5.6540    0.0000 C.3     1  LIG1        0.0968
     23 C          -1.4040   -2.2380    0.0000 C.ar    1  LIG1        0.0179
     24 C          -0.7670   -1.4750    0.0000 C.ar    1  LIG1        0.0182
     25 O           1.5330   -1.5670    0.0000 O.2     1  LIG1       -0.1842
     26 O           0.1170   -0.1670    0.0000 O.2     1  LIG1       -0.1842
@<TRIPOS>BOND
     1     1     2    1
     2     1    15    1
     3     1    25    2
     4     1    26    2
     5     2     3    1
     6     3     4   ar
     7     3    14   ar
     8     4     5   ar
     9     5     6   ar
    10     6     7    1
    11     6    13   ar
    12     7     8   ar
    13     7    11   ar
    14     8     9   ar
    15     9    10   ar
    16     9    12    1
    17    10    11   ar
    18    13    14   ar
    19    15    16   ar
    20    15    24   ar
    21    16    17   ar
    22    17    18   ar
    23    18    19    1
    24    18    23   ar
    25    19    20   am
    26    20    21    2
    27    20    22    1
    28    23    24   ar
