@<TRIPOS>MOLECULE
34937_ChemDiv_8016-4576
 26 30 0 0 0
SMALL
GASTEIGER
Energy = 0

@<TRIPOS>ATOM
      1 N           3.2960   -0.6040    0.0000 N.ar    1  LIG1       -0.2469
      2 C           2.2960   -0.6290    0.0000 C.ar    1  LIG1        0.0998
      3 C           1.8210   -1.5130    0.0000 C.ar    1  LIG1        0.0986
      4 N           2.3420   -2.3670    0.0000 N.ar    1  LIG1       -0.2470
      5 C           3.3460   -2.3380    0.0000 C.ar    1  LIG1        0.0728
      6 C           3.8210   -1.4540    0.0000 C.ar    1  LIG1        0.0728
      7 C           4.8210   -1.4250    0.0000 C.3     1  LIG1        0.0534
      8 C           3.8670   -3.1920    0.0000 C.3     1  LIG1        0.0534
      9 C           0.8170   -1.5380    0.0000 C.ar    1  LIG1        0.0220
     10 C           0.3040   -0.6790    0.0000 C.ar    1  LIG1        0.0182
     11 C           0.7830    0.1960    0.0000 C.ar    1  LIG1        0.0750
     12 C           1.7790    0.2210    0.0000 C.ar    1  LIG1        0.0372
     13 N           0.2540    1.0460    0.0000 N.am    1  LIG1       -0.1792
     14 C          -0.7460    1.0080    0.0000 C.2     1  LIG1        0.2456
     15 C          -1.2790    1.8580    0.0000 C.3     1  LIG1        0.0872
     16 C          -2.2710    1.8210    0.0000 C.3     1  LIG1        0.0087
     17 C          -2.2580    2.8210    0.0000 C.3     1  LIG1        0.0005
     18 C          -3.1670    3.1960    0.0000 C.3     1  LIG1        0.0000
     19 C          -4.0420    2.8920    0.0000 C.3     1  LIG1        0.0000
     20 C          -4.0420    1.9330    0.0000 C.3     1  LIG1        0.0000
     21 C          -3.1790    1.6080    0.0000 C.3     1  LIG1        0.0005
     22 C          -4.8250    1.1000    0.0000 C.3     1  LIG1        0.0000
     23 C          -3.8420    1.3710    0.0000 C.3     1  LIG1        0.0000
     24 C          -2.9330    0.9960    0.0000 C.3     1  LIG1        0.0005
     25 C          -3.8420    2.3960    0.0000 C.3     1  LIG1        0.0000
     26 O          -1.2170    0.1210    0.0000 O.2     1  LIG1       -0.2730
@<TRIPOS>BOND
     1     1     2   ar
     2     1     6   ar
     3     2     3   ar
     4     2    12   ar
     5     3     4   ar
     6     3     9   ar
     7     4     5   ar
     8     5     6   ar
     9     5     8    1
    10     6     7    1
    11     9    10   ar
    12    10    11   ar
    13    11    12   ar
    14    11    13    1
    15    13    14   am
    16    14    15    1
    17    14    26    2
    18    15    16    1
    19    16    17    1
    20    16    21    1
    21    16    24    1
    22    17    18    1
    23    18    19    1
    24    18    25    1
    25    19    20    1
    26    20    21    1
    27    20    22    1
    28    22    23    1
    29    23    24    1
    30    23    25    1
