@<TRIPOS>MOLECULE
34932_ChemDiv_8016-7981
 26 30 0 0 0
SMALL
GASTEIGER
Energy = 0

@<TRIPOS>ATOM
      1 N          -0.5170   -1.1540    0.0000 N.ar    1  LIG1       -0.2478
      2 C           0.0670   -1.9670    0.0000 C.ar    1  LIG1        0.3147
      3 N           1.0630   -1.8670    0.0000 N.2     1  LIG1       -0.0293
      4 C           1.4670   -0.9540    0.0000 C.cat   1  LIG1        0.4822
      5 N           0.8790   -0.1420    0.0000 N.pl3   1  LIG1       -0.0347
      6 C          -0.1170   -0.2420    0.0000 C.3     1  LIG1        0.2880
      7 C          -0.6210    0.6290    0.0000 C.ar    1  LIG1        0.0774
      8 C          -0.1290    1.4960    0.0000 C.ar    1  LIG1        0.1055
      9 N          -0.8040    2.2330    0.0000 N.ar    1  LIG1       -0.1481
     10 N          -1.7080    1.8210    0.0000 N.ar    1  LIG1       -0.1465
     11 C          -1.6040    0.8290    0.0000 C.ar    1  LIG1        0.1245
     12 C           0.8290    1.7540    0.0000 C.ar    1  LIG1        0.0225
     13 C           1.5290    1.0540    0.0000 C.ar    1  LIG1        0.0436
     14 C           2.4920    1.3080    0.0000 C.ar    1  LIG1        0.1958
     15 O           3.2000    0.6040    0.0000 O.3     1  LIG1       -0.2866
     16 C           2.7540    2.2710    0.0000 C.ar    1  LIG1        0.0420
     17 C           2.0420    2.9790    0.0000 C.ar    1  LIG1        0.0033
     18 C           1.0790    2.7170    0.0000 C.ar    1  LIG1        0.0018
     19 N           2.4670   -0.9500    0.0000 N.pl3   1  LIG1        0.1473
     20 N          -0.5170   -2.7880    0.0000 N.ar    1  LIG1       -0.1947
     21 C          -1.4710   -2.4790    0.0000 C.ar    1  LIG1        0.1017
     22 C          -1.4710   -1.4750    0.0000 C.ar    1  LIG1        0.0846
     23 C          -2.3420   -0.9750    0.0000 C.ar    1  LIG1        0.0189
     24 C          -3.2040   -1.4670    0.0000 C.ar    1  LIG1        0.0016
     25 C          -3.2040   -2.4750    0.0000 C.ar    1  LIG1        0.0016
     26 C          -2.3330   -2.9750    0.0000 C.ar    1  LIG1        0.0207
@<TRIPOS>BOND
     1     1     2   ar
     2     1     6    1
     3     1    22   ar
     4     2     3    1
     5     2    20   ar
     6     3     4    2
     7     4     5    1
     8     4    19    1
     9     5     6    1
    10     6     7    1
    11     7     8   ar
    12     7    11   ar
    13     8     9   ar
    14     8    12    1
    15     9    10   ar
    16    10    11   ar
    17    12    13   ar
    18    12    18   ar
    19    13    14   ar
    20    14    15    1
    21    14    16   ar
    22    16    17   ar
    23    17    18   ar
    24    20    21   ar
    25    21    22   ar
    26    21    26   ar
    27    22    23   ar
    28    23    24   ar
    29    24    25   ar
    30    25    26   ar
