@<TRIPOS>MOLECULE
34930_ChemDiv_8016-7833
 17 18 0 0 0
SMALL
GASTEIGER
Energy = 0

@<TRIPOS>ATOM
      1 N          -3.5630   -0.0170    0.0000 N.ar    1  LIG1       -0.2860
      2 C          -2.6750    0.4130    0.0000 C.ar    1  LIG1        0.1934
      3 N          -2.8210    1.4250    0.0000 N.ar    1  LIG1       -0.1220
      4 N          -3.8130    1.5880    0.0000 N.ar    1  LIG1       -0.1250
      5 C          -4.2710    0.7080    0.0000 C.ar    1  LIG1        0.2031
      6 S          -1.7960   -0.0710    0.0000 S.3     1  LIG1       -0.0717
      7 C          -0.9210    0.4460    0.0000 C.3     1  LIG1        0.1124
      8 C          -0.0580   -0.0540    0.0000 C.3     1  LIG1        0.2174
      9 O           0.8130    0.4330    0.0000 O.3     1  LIG1       -0.4745
     10 C           1.6790   -0.0710    0.0000 C.ar    1  LIG1        0.1386
     11 C           2.5540    0.4130    0.0000 C.ar    1  LIG1        0.0378
     12 C           3.4130   -0.0710    0.0000 C.ar    1  LIG1        0.0145
     13 C           3.4170   -1.0830    0.0000 C.ar    1  LIG1        0.0579
     14 CL          4.2670   -1.5830    0.0000 Cl      1  LIG1       -0.0822
     15 C           2.5420   -1.5580    0.0000 C.ar    1  LIG1        0.0145
     16 C           1.6920   -1.0710    0.0000 C.ar    1  LIG1        0.0378
     17 C          -3.7210   -1.0170    0.0000 C.3     1  LIG1        0.1341
@<TRIPOS>BOND
     1     1     2   ar
     2     1     5   ar
     3     1    17    1
     4     2     3   ar
     5     2     6    1
     6     3     4   ar
     7     4     5   ar
     8     6     7    1
     9     7     8    1
    10     8     9    1
    11     9    10    1
    12    10    11   ar
    13    10    16   ar
    14    11    12   ar
    15    12    13   ar
    16    13    14    1
    17    13    15   ar
    18    15    16   ar
