@<TRIPOS>MOLECULE
34936_ChemDiv_8016-8075
 27 30 0 0 0
SMALL
GASTEIGER
Energy = 0

@<TRIPOS>ATOM
      1 P          -0.0290    0.0040    0.0000 P.3     1  LIG1        0.1336
      2 N           1.6290    0.0040    0.0000 N.2     1  LIG1       -0.2172
      3 C           2.1040    0.8330    0.0000 C.ar    1  LIG1        0.1627
      4 N           3.0580    0.8330    0.0000 N.ar    1  LIG1       -0.2251
      5 C           3.5330    1.6580    0.0000 C.ar    1  LIG1        0.1006
      6 C           3.0580    2.4830    0.0000 C.ar    1  LIG1        0.0208
      7 C           2.1040    2.4830    0.0000 C.ar    1  LIG1        0.0047
      8 C           1.6290    1.6580    0.0000 C.ar    1  LIG1        0.0388
      9 N          -1.6330    0.0040    0.0000 N.pl3   1  LIG1       -0.1816
     10 C          -2.1080   -0.8290    0.0000 C.ar    1  LIG1        0.1523
     11 N          -3.0630   -0.8290    0.0000 N.ar    1  LIG1       -0.2274
     12 C          -3.5380   -1.6580    0.0000 C.ar    1  LIG1        0.1004
     13 C          -3.0580   -2.4830    0.0000 C.ar    1  LIG1        0.0208
     14 C          -2.1080   -2.4830    0.0000 C.ar    1  LIG1        0.0045
     15 C          -1.6330   -1.6580    0.0000 C.ar    1  LIG1        0.0361
     16 C          -0.0290   -0.9580    0.0000 C.ar    1  LIG1        0.0316
     17 C           0.7960   -1.4330    0.0000 C.ar    1  LIG1        0.0031
     18 C           0.7960   -2.3920    0.0000 C.ar    1  LIG1        0.0001
     19 C          -0.0290   -2.8670    0.0000 C.ar    1  LIG1        0.0000
     20 C          -0.8630   -2.3920    0.0000 C.ar    1  LIG1        0.0001
     21 C          -0.8630   -1.4330    0.0000 C.ar    1  LIG1        0.0031
     22 C          -0.0290    0.9580    0.0000 C.ar    1  LIG1        0.0316
     23 C           0.7960    1.4330    0.0000 C.ar    1  LIG1        0.0031
     24 C           0.7960    2.3960    0.0000 C.ar    1  LIG1        0.0001
     25 C          -0.0290    2.8710    0.0000 C.ar    1  LIG1        0.0000
     26 C          -0.8630    2.3960    0.0000 C.ar    1  LIG1        0.0001
     27 C          -0.8630    1.4330    0.0000 C.ar    1  LIG1        0.0031
@<TRIPOS>BOND
     1     1     2    2
     2     1     9    1
     3     1    16    1
     4     1    22    1
     5     2     3    1
     6     3     4   ar
     7     3     8   ar
     8     4     5   ar
     9     5     6   ar
    10     6     7   ar
    11     7     8   ar
    12     9    10    1
    13    10    11   ar
    14    10    15   ar
    15    11    12   ar
    16    12    13   ar
    17    13    14   ar
    18    14    15   ar
    19    16    17   ar
    20    16    21   ar
    21    17    18   ar
    22    18    19   ar
    23    19    20   ar
    24    20    21   ar
    25    22    23   ar
    26    22    27   ar
    27    23    24   ar
    28    24    25   ar
    29    25    26   ar
    30    26    27   ar
