@<TRIPOS>MOLECULE
34933_ChemDiv_8016-4553
 13 14 0 0 0
SMALL
GASTEIGER
Energy = 0

@<TRIPOS>ATOM
      1 N           0.0210   -1.4670    0.0000 N.ar    1  LIG1       -0.2698
      2 C           0.0170   -0.4540    0.0000 C.ar    1  LIG1        0.1707
      3 N           0.8670    0.0380    0.0000 N.ar    1  LIG1       -0.1269
      4 N           0.8670    1.0580    0.0000 N.ar    1  LIG1       -0.1089
      5 C           0.0170    1.5500    0.0000 C.ar    1  LIG1        0.2441
      6 C          -0.8750    1.0380    0.0000 C.ar    1  LIG1        0.0624
      7 C          -0.8750    0.0380    0.0000 C.ar    1  LIG1        0.0441
      8 O           0.0170    2.5630    0.0000 O.3     1  LIG1       -0.4552
      9 C           0.8710    3.0380    0.0000 C.3     1  LIG1        0.2543
     10 C          -0.7750   -2.0920    0.0000 C.ar    1  LIG1        0.1840
     11 N          -0.4130   -3.0330    0.0000 N.ar    1  LIG1       -0.2220
     12 C           0.5580   -2.9830    0.0000 C.ar    1  LIG1        0.1197
     13 C           0.8330   -2.0170    0.0000 C.ar    1  LIG1        0.1036
@<TRIPOS>BOND
     1     1     2    1
     2     1    10   ar
     3     1    13   ar
     4     2     3   ar
     5     2     7   ar
     6     3     4   ar
     7     4     5   ar
     8     5     6   ar
     9     5     8    1
    10     6     7   ar
    11     8     9    1
    12    10    11   ar
    13    11    12   ar
    14    12    13   ar
