@<TRIPOS>MOLECULE
34942_ChemDiv_8016-8120
 27 29 0 0 0
SMALL
GASTEIGER
Energy = 0

@<TRIPOS>ATOM
      1 C           2.6710   -1.9960    0.0000 C.2     1  LIG1        0.2711
      2 N           1.8080   -1.4960    0.0000 N.am    1  LIG1       -0.1981
      3 C           1.8080   -0.4960    0.0000 C.3     1  LIG1        0.1233
      4 C           2.6710    0.0080    0.0000 C.3     1  LIG1        0.0678
      5 C           2.6710    1.0080    0.0000 C.2     1  LIG1        0.0524
      6 O           1.8080    1.5080    0.0000 O.co2   1  LIG1       -0.5491
      7 O           3.5420    1.5080    0.0000 O.co2   1  LIG1       -0.5491
      8 C           0.9420    0.0080    0.0000 C.ar    1  LIG1       -0.0020
      9 C           0.0670   -0.4960    0.0000 C.ar    1  LIG1        0.0005
     10 C          -0.7960    0.0080    0.0000 C.ar    1  LIG1        0.0366
     11 C          -0.7960    1.0080    0.0000 C.ar    1  LIG1        0.1390
     12 O          -1.6630    1.5080    0.0000 O.3     1  LIG1       -0.4706
     13 C          -2.5250    1.0080    0.0000 C.3     1  LIG1        0.2320
     14 C          -3.3960    1.5080    0.0000 C.ar    1  LIG1        0.0212
     15 C          -3.3960    2.5000    0.0000 C.ar    1  LIG1       -0.0007
     16 C          -4.2580    3.0000    0.0000 C.ar    1  LIG1       -0.0002
     17 C          -5.1250    2.5000    0.0000 C.ar    1  LIG1       -0.0000
     18 C          -5.1250    1.5080    0.0000 C.ar    1  LIG1       -0.0002
     19 C          -4.2580    1.0080    0.0000 C.ar    1  LIG1       -0.0007
     20 C           0.0670    1.5080    0.0000 C.ar    1  LIG1        0.0366
     21 C           0.9420    1.0080    0.0000 C.ar    1  LIG1        0.0005
     22 C           3.5420   -1.4960    0.0000 C.ar    1  LIG1        0.0845
     23 S           4.4540   -1.9080    0.0000 S.2     1  LIG1       -0.0819
     24 C           5.1210   -1.1580    0.0000 C.ar    1  LIG1        0.0356
     25 C           4.6210   -0.2960    0.0000 C.ar    1  LIG1        0.0076
     26 C           3.6460   -0.5040    0.0000 C.ar    1  LIG1        0.0116
     27 O           2.6710   -2.9960    0.0000 O.2     1  LIG1       -0.2678
@<TRIPOS>BOND
     1     1     2   am
     2     1    22    1
     3     1    27    2
     4     2     3    1
     5     3     4    1
     6     3     8    1
     7     4     5    1
     8     5     6   ar
     9     5     7   ar
    10     8     9   ar
    11     8    21   ar
    12     9    10   ar
    13    10    11   ar
    14    11    12    1
    15    11    20   ar
    16    12    13    1
    17    13    14    1
    18    14    15   ar
    19    14    19   ar
    20    15    16   ar
    21    16    17   ar
    22    17    18   ar
    23    18    19   ar
    24    20    21   ar
    25    22    23   ar
    26    22    26   ar
    27    23    24   ar
    28    24    25   ar
    29    25    26   ar
