@<TRIPOS>MOLECULE
34946_ChemDiv_8017-2195
 23 26 0 0 0
SMALL
GASTEIGER
Energy = 0

@<TRIPOS>ATOM
      1 C          -0.0630   -2.2040    0.0000 C.ar    1  LIG1        0.1420
      2 C          -0.0630   -1.2040    0.0000 C.ar    1  LIG1        0.0719
      3 C          -0.9210   -0.7000    0.0000 C.ar    1  LIG1        0.2799
      4 N          -1.7830   -1.2040    0.0000 N.ar    1  LIG1       -0.1840
      5 C          -1.7920   -2.2040    0.0000 C.ar    1  LIG1        0.1833
      6 N          -0.9210   -2.7000    0.0000 N.ar    1  LIG1       -0.2714
      7 C          -1.1210   -3.6790    0.0000 C.ar    1  LIG1        0.0901
      8 C          -2.1170   -3.7920    0.0000 C.ar    1  LIG1        0.0574
      9 S          -2.5330   -2.8790    0.0000 S.2     1  LIG1       -0.0478
     10 O          -0.9210    0.2960    0.0000 O.2     1  LIG1       -0.2654
     11 C           0.7920   -0.7040    0.0000 C.3     1  LIG1        0.0612
     12 C           1.6630   -1.2000    0.0000 C.3     1  LIG1        0.0962
     13 C           1.6630   -2.2040    0.0000 C.2     1  LIG1        0.2475
     14 N           0.8000   -2.7040    0.0000 N.am    1  LIG1       -0.1618
     15 O           2.5290   -2.7040    0.0000 O.2     1  LIG1       -0.2729
     16 C           0.7920    0.2920    0.0000 C.ar    1  LIG1       -0.0177
     17 C          -0.0710    0.7790    0.0000 C.ar    1  LIG1       -0.0034
     18 C          -0.0750    1.7790    0.0000 C.ar    1  LIG1        0.0058
     19 C           0.7920    2.2920    0.0000 C.ar    1  LIG1        0.0252
     20 S           0.7790    3.2920    0.0000 S.3     1  LIG1       -0.1127
     21 C           1.6500    3.7960    0.0000 C.3     1  LIG1        0.0742
     22 C           1.6630    1.7920    0.0000 C.ar    1  LIG1        0.0058
     23 C           1.6630    0.7920    0.0000 C.ar    1  LIG1       -0.0034
@<TRIPOS>BOND
     1     1     2   ar
     2     1     6   ar
     3     1    14    1
     4     2     3   ar
     5     2    11    1
     6     3     4   ar
     7     3    10    2
     8     4     5   ar
     9     5     6   ar
    10     5     9   ar
    11     6     7   ar
    12     7     8   ar
    13     8     9   ar
    14    11    12    1
    15    11    16    1
    16    12    13    1
    17    13    14   am
    18    13    15    2
    19    16    17   ar
    20    16    23   ar
    21    17    18   ar
    22    18    19   ar
    23    19    20    1
    24    19    22   ar
    25    20    21    1
    26    22    23   ar
