@<TRIPOS>MOLECULE
34947_ChemDiv_8016-2267
 25 29 0 0 0
SMALL
GASTEIGER
Energy = 0

@<TRIPOS>ATOM
      1 N          -0.5210   -0.3290    0.0000 N.am    1  LIG1       -0.2299
      2 C           0.2880   -0.9290    0.0000 C.2     1  LIG1        0.2317
      3 C           1.1000   -0.3500    0.0000 C.3     1  LIG1        0.0905
      4 C           0.8080    0.5960    0.0000 C.3     1  LIG1        0.0951
      5 C          -0.1830    0.5960    0.0000 C.2     1  LIG1        0.2318
      6 O          -0.8000    1.4330    0.0000 O.2     1  LIG1       -0.2745
      7 C           2.0080   -0.7670    0.0000 C.3     1  LIG1        0.0359
      8 C           2.8250   -0.1790    0.0000 C.ar    1  LIG1       -0.0217
      9 C           2.7250    0.8130    0.0000 C.ar    1  LIG1       -0.0043
     10 C           3.5420    1.3830    0.0000 C.ar    1  LIG1       -0.0003
     11 C           4.4330    0.9960    0.0000 C.ar    1  LIG1       -0.0000
     12 C           4.5540    0.0000    0.0000 C.ar    1  LIG1       -0.0003
     13 C           3.7420   -0.5960    0.0000 C.ar    1  LIG1       -0.0043
     14 O           0.2880   -1.9420    0.0000 O.2     1  LIG1       -0.2745
     15 C          -1.4670   -0.6290    0.0000 C.3     1  LIG1        0.1008
     16 C          -2.2080    0.0460    0.0000 C.3     1  LIG1        0.0188
     17 C          -1.4960    0.9130    0.0000 C.3     1  LIG1        0.0017
     18 C          -1.9040    1.7250    0.0000 C.3     1  LIG1        0.0001
     19 C          -2.6130    1.4830    0.0000 C.3     1  LIG1        0.0000
     20 C          -3.4790    0.4210    0.0000 C.3     1  LIG1        0.0001
     21 C          -2.8380   -0.3960    0.0000 C.3     1  LIG1        0.0017
     22 C          -4.5580    0.9000    0.0000 C.3     1  LIG1        0.0000
     23 C          -3.4750    1.1040    0.0000 C.3     1  LIG1        0.0001
     24 C          -3.0960    0.3710    0.0000 C.3     1  LIG1        0.0017
     25 C          -2.7960    1.9460    0.0000 C.3     1  LIG1        0.0000
@<TRIPOS>BOND
     1     1     2   am
     2     1     5   am
     3     1    15    1
     4     2     3    1
     5     2    14    2
     6     3     4    1
     7     3     7    1
     8     4     5    1
     9     5     6    2
    10     7     8    1
    11     8     9   ar
    12     8    13   ar
    13     9    10   ar
    14    10    11   ar
    15    11    12   ar
    16    12    13   ar
    17    15    16    1
    18    16    17    1
    19    16    21    1
    20    16    24    1
    21    17    18    1
    22    18    19    1
    23    18    25    1
    24    19    20    1
    25    20    21    1
    26    20    22    1
    27    22    23    1
    28    23    24    1
    29    23    25    1
