@<TRIPOS>MOLECULE
34944_ChemDiv_8016-8222
 24 26 0 0 0
SMALL
GASTEIGER
Energy = 0

@<TRIPOS>ATOM
      1 C          -0.4080   -0.6170    0.0000 C.ar    1  LIG1        0.1627
      2 C           0.4380   -1.0540    0.0000 C.ar    1  LIG1        0.2968
      3 N           1.1290   -0.3130    0.0000 N.ar    1  LIG1       -0.2133
      4 N           0.6170    0.4830    0.0000 N.ar    1  LIG1       -0.2645
      5 C          -0.4080    0.2830    0.0000 C.ar    1  LIG1        0.0760
      6 C          -0.7420    1.1040    0.0000 C.3     1  LIG1        0.0533
      7 C           1.0420    1.4420    0.0000 C.3     1  LIG1        0.1518
      8 C           2.1750   -0.3130    0.0000 C.ar    1  LIG1        0.0841
      9 C           2.6670   -1.2170    0.0000 C.ar    1  LIG1        0.0192
     10 C           3.6920   -1.2250    0.0000 C.ar    1  LIG1        0.0015
     11 C           4.1880   -0.3420    0.0000 C.ar    1  LIG1        0.0001
     12 C           3.6920    0.4960    0.0000 C.ar    1  LIG1        0.0015
     13 C           2.6750    0.4960    0.0000 C.ar    1  LIG1        0.0192
     14 O           0.6170   -2.0790    0.0000 O.2     1  LIG1       -0.2637
     15 N          -1.3210   -1.1000    0.0000 N.pl3   1  LIG1       -0.0796
     16 S          -2.1790   -0.5170    0.0000 S.O2    1  LIG1        0.1329
     17 N          -2.6830    0.3420    0.0000 N.3     1  LIG1       -0.1361
     18 C          -2.1830    1.2170    0.0000 C.3     1  LIG1        0.1293
     19 C          -2.6830    2.0830    0.0000 C.3     1  LIG1        0.1614
     20 O          -3.6830    2.0830    0.0000 O.3     1  LIG1       -0.3507
     21 C          -4.1920    1.2170    0.0000 C.3     1  LIG1        0.1614
     22 C          -3.6830    0.3420    0.0000 C.3     1  LIG1        0.1293
     23 O          -2.1080    0.4790    0.0000 O.2     1  LIG1       -0.1362
     24 O          -3.0790   -0.9540    0.0000 O.2     1  LIG1       -0.1362
@<TRIPOS>BOND
     1     1     2   ar
     2     1     5   ar
     3     1    15    1
     4     2     3   ar
     5     2    14    2
     6     3     4   ar
     7     3     8    1
     8     4     5   ar
     9     4     7    1
    10     5     6    1
    11     8     9   ar
    12     8    13   ar
    13     9    10   ar
    14    10    11   ar
    15    11    12   ar
    16    12    13   ar
    17    15    16    1
    18    16    17    1
    19    16    23    2
    20    16    24    2
    21    17    18    1
    22    17    22    1
    23    18    19    1
    24    19    20    1
    25    20    21    1
    26    21    22    1
