@<TRIPOS>MOLECULE
34949_ChemDiv_8016-2289
 26 30 0 0 0
SMALL
GASTEIGER
Energy = 0

@<TRIPOS>ATOM
      1 N          -0.2420   -0.0750    0.0000 N.am    1  LIG1       -0.2299
      2 C           0.5670   -0.6670    0.0000 C.2     1  LIG1        0.2317
      3 C           1.3790   -0.0920    0.0000 C.3     1  LIG1        0.0905
      4 C           1.0790    0.8580    0.0000 C.3     1  LIG1        0.0951
      5 C           0.0920    0.8580    0.0000 C.2     1  LIG1        0.2318
      6 O          -0.5210    1.6830    0.0000 O.2     1  LIG1       -0.2745
      7 C           2.2830   -0.5130    0.0000 C.3     1  LIG1        0.0359
      8 C           3.0960    0.0830    0.0000 C.ar    1  LIG1       -0.0217
      9 C           3.0040    1.0710    0.0000 C.ar    1  LIG1       -0.0043
     10 C           3.8080    1.6460    0.0000 C.ar    1  LIG1       -0.0003
     11 C           4.7040    1.2500    0.0000 C.ar    1  LIG1       -0.0000
     12 C           4.8210    0.2580    0.0000 C.ar    1  LIG1       -0.0003
     13 C           4.0080   -0.3290    0.0000 C.ar    1  LIG1       -0.0043
     14 O           0.5670   -1.6790    0.0000 O.2     1  LIG1       -0.2745
     15 C          -1.1960   -0.3670    0.0000 C.3     1  LIG1        0.1009
     16 C          -1.9290    0.3000    0.0000 C.3     1  LIG1        0.0220
     17 C          -2.8710    0.0080    0.0000 C.3     1  LIG1        0.0017
     18 C          -3.2670    1.0500    0.0000 C.3     1  LIG1        0.0001
     19 C          -4.1670    1.1080    0.0000 C.3     1  LIG1        0.0000
     20 C          -4.3380    0.3580    0.0000 C.3     1  LIG1        0.0000
     21 C          -3.8420   -0.9040    0.0000 C.3     1  LIG1        0.0000
     22 C          -2.8080   -0.7670    0.0000 C.3     1  LIG1        0.0001
     23 C          -4.7920   -1.6000    0.0000 C.3     1  LIG1        0.0000
     24 C          -4.4330   -0.5630    0.0000 C.3     1  LIG1        0.0000
     25 C          -3.6040   -0.6040    0.0000 C.3     1  LIG1        0.0001
     26 C          -4.8250    0.4250    0.0000 C.3     1  LIG1        0.0000
@<TRIPOS>BOND
     1     1     2   am
     2     1     5   am
     3     1    15    1
     4     2     3    1
     5     2    14    2
     6     3     4    1
     7     3     7    1
     8     4     5    1
     9     5     6    2
    10     7     8    1
    11     8     9   ar
    12     8    13   ar
    13     9    10   ar
    14    10    11   ar
    15    11    12   ar
    16    12    13   ar
    17    15    16    1
    18    16    17    1
    19    17    18    1
    20    17    22    1
    21    17    25    1
    22    18    19    1
    23    19    20    1
    24    19    26    1
    25    20    21    1
    26    21    22    1
    27    21    23    1
    28    23    24    1
    29    24    25    1
    30    24    26    1
