@<TRIPOS>MOLECULE
34956_ChemDiv_8017-2389
 17 18 0 0 0
SMALL
GASTEIGER
Energy = 0

@<TRIPOS>ATOM
      1 C           0.0040    1.7500    0.0000 C.2     1  LIG1        0.2885
      2 C          -0.8710    1.2500    0.0000 C.ar    1  LIG1        0.1580
      3 N          -0.8710    0.2500    0.0000 N.ar    1  LIG1       -0.1433
      4 N          -1.7330   -0.2540    0.0000 N.ar    1  LIG1       -0.1463
      5 C          -2.6000    0.2500    0.0000 C.ar    1  LIG1        0.1222
      6 C          -2.6000    1.2500    0.0000 C.ar    1  LIG1        0.0243
      7 C          -1.7330    1.7500    0.0000 C.ar    1  LIG1        0.0273
      8 N           0.8670    1.2500    0.0000 N.am    1  LIG1       -0.1741
      9 C           0.8670    0.2500    0.0000 C.ar    1  LIG1        0.0747
     10 C           1.7330   -0.2540    0.0000 C.ar    1  LIG1        0.0303
     11 C           1.7330   -1.2460    0.0000 C.ar    1  LIG1        0.0863
     12 C           0.8670   -1.7540    0.0000 C.ar    1  LIG1        0.1507
     13 C           0.0040   -1.2460    0.0000 C.ar    1  LIG1        0.0318
     14 C           0.0040   -0.2540    0.0000 C.ar    1  LIG1        0.0190
     15 F           0.8670   -2.7460    0.0000 F       1  LIG1       -0.2033
     16 CL          2.5960   -1.7540    0.0000 Cl      1  LIG1       -0.0799
     17 O           0.0040    2.7500    0.0000 O.2     1  LIG1       -0.2663
@<TRIPOS>BOND
     1     1     2    1
     2     1     8   am
     3     1    17    2
     4     2     3   ar
     5     2     7   ar
     6     3     4   ar
     7     4     5   ar
     8     5     6   ar
     9     6     7   ar
    10     8     9    1
    11     9    10   ar
    12     9    14   ar
    13    10    11   ar
    14    11    12   ar
    15    11    16    1
    16    12    13   ar
    17    12    15    1
    18    13    14   ar
