@<TRIPOS>MOLECULE
34958_ChemDiv_8017-2391
 31 34 0 0 0
SMALL
GASTEIGER
Energy = 0

@<TRIPOS>ATOM
      1 C           2.1670    0.2460    0.0000 C.ar    1  LIG1        0.0551
      2 C           1.2920   -0.2540    0.0000 C.2     1  LIG1        0.1968
      3 O           0.4290    0.2460    0.0000 O.2     1  LIG1       -0.2865
      4 C           1.2920   -1.2540    0.0000 C.ar    1  LIG1        0.0390
      5 C           0.4290   -1.7420    0.0000 C.ar    1  LIG1        0.0032
      6 C           0.4290   -2.7500    0.0000 C.ar    1  LIG1        0.0001
      7 C           1.2920   -3.2540    0.0000 C.ar    1  LIG1        0.0000
      8 C           2.1670   -2.7500    0.0000 C.ar    1  LIG1        0.0001
      9 C           2.1540   -1.7420    0.0000 C.ar    1  LIG1        0.0032
     10 C           2.1670    1.2460    0.0000 C.ar    1  LIG1        0.0767
     11 N           1.3000    1.7460    0.0000 N.am    1  LIG1       -0.1741
     12 C           1.3000    2.7460    0.0000 C.2     1  LIG1        0.3033
     13 C           0.4290    3.2460    0.0000 C.3     1  LIG1        0.2270
     14 N          -0.4330    2.7460    0.0000 N.4     1  LIG1        0.3872
     15 C          -1.3080    3.2580    0.0000 C.3     1  LIG1        0.1612
     16 C          -2.1630    2.7580    0.0000 C.3     1  LIG1        0.1555
     17 N          -2.1710    1.7580    0.0000 N.pl3   1  LIG1       -0.2824
     18 C          -3.0330    1.2630    0.0000 C.ar    1  LIG1        0.1320
     19 N          -3.9000    1.7710    0.0000 N.ar    1  LIG1       -0.2292
     20 C          -4.7670    1.2710    0.0000 C.ar    1  LIG1        0.1003
     21 C          -4.7670    0.2710    0.0000 C.ar    1  LIG1        0.0208
     22 C          -3.9000   -0.2290    0.0000 C.ar    1  LIG1        0.0045
     23 C          -3.0380    0.2710    0.0000 C.ar    1  LIG1        0.0343
     24 C          -1.3080    1.2580    0.0000 C.3     1  LIG1        0.1555
     25 C          -0.4380    1.7580    0.0000 C.3     1  LIG1        0.1612
     26 O           2.1670    3.2460    0.0000 O.2     1  LIG1       -0.2665
     27 C           3.0290    1.7580    0.0000 C.ar    1  LIG1        0.0176
     28 C           3.8920    1.2580    0.0000 C.ar    1  LIG1        0.0127
     29 C           3.8920    0.2460    0.0000 C.ar    1  LIG1        0.0579
     30 C           3.0290   -0.2540    0.0000 C.ar    1  LIG1        0.0159
     31 CL          4.7630   -0.2540    0.0000 Cl      1  LIG1       -0.0822
@<TRIPOS>BOND
     1     1     2    1
     2     1    10   ar
     3     1    30   ar
     4     2     3    2
     5     2     4    1
     6     4     5   ar
     7     4     9   ar
     8     5     6   ar
     9     6     7   ar
    10     7     8   ar
    11     8     9   ar
    12    10    11    1
    13    10    27   ar
    14    11    12   am
    15    12    13    1
    16    12    26    2
    17    13    14    1
    18    14    15    1
    19    14    25    1
    20    15    16    1
    21    16    17    1
    22    17    18    1
    23    17    24    1
    24    18    19   ar
    25    18    23   ar
    26    19    20   ar
    27    20    21   ar
    28    21    22   ar
    29    22    23   ar
    30    24    25    1
    31    27    28   ar
    32    28    29   ar
    33    29    30   ar
    34    29    31    1
