@<TRIPOS>MOLECULE
34957_ChemDiv_8016-4913
 28 32 0 0 0
SMALL
GASTEIGER
Energy = 0

@<TRIPOS>ATOM
      1 N           0.4040    0.6580    0.0000 N.am    1  LIG1       -0.2299
      2 C          -0.4540    1.1710    0.0000 C.2     1  LIG1        0.2317
      3 C          -1.2000    0.5080    0.0000 C.3     1  LIG1        0.0905
      4 C          -0.8000   -0.4040    0.0000 C.3     1  LIG1        0.0951
      5 C           0.1830   -0.2920    0.0000 C.2     1  LIG1        0.2318
      6 O           0.8830   -1.0630    0.0000 O.2     1  LIG1       -0.2745
      7 C          -2.1580    0.8210    0.0000 C.3     1  LIG1        0.0359
      8 C          -2.9000    0.1460    0.0000 C.ar    1  LIG1       -0.0223
      9 C          -2.6880   -0.8380    0.0000 C.ar    1  LIG1       -0.0085
     10 C          -3.4330   -1.5000    0.0000 C.ar    1  LIG1       -0.0225
     11 C          -4.3580   -1.2040    0.0000 C.ar    1  LIG1       -0.0085
     12 C          -4.5960   -0.2210    0.0000 C.ar    1  LIG1       -0.0225
     13 C          -3.8500    0.4580    0.0000 C.ar    1  LIG1       -0.0085
     14 C          -5.5460    0.0630    0.0000 C.3     1  LIG1        0.0310
     15 C          -3.2460   -2.4670    0.0000 C.3     1  LIG1        0.0310
     16 O          -0.5710    2.1580    0.0000 O.2     1  LIG1       -0.2745
     17 C           1.3210    1.0710    0.0000 C.3     1  LIG1        0.1009
     18 C           2.1290    0.4330    0.0000 C.3     1  LIG1        0.0220
     19 C           3.0420    0.8000    0.0000 C.3     1  LIG1        0.0017
     20 C           3.4830    0.1630    0.0000 C.3     1  LIG1        0.0001
     21 C           4.3710    0.6830    0.0000 C.3     1  LIG1        0.0000
     22 C           5.5420    0.7500    0.0000 C.3     1  LIG1        0.0000
     23 C           4.6210    1.3330    0.0000 C.3     1  LIG1        0.0000
     24 C           3.9920    0.7710    0.0000 C.3     1  LIG1        0.0001
     25 C           4.2960    2.3500    0.0000 C.3     1  LIG1        0.0000
     26 C           3.3710    2.4710    0.0000 C.3     1  LIG1        0.0000
     27 C           2.6960    1.8500    0.0000 C.3     1  LIG1        0.0001
     28 C           3.9580    1.9830    0.0000 C.3     1  LIG1        0.0000
@<TRIPOS>BOND
     1     1     2   am
     2     1     5   am
     3     1    17    1
     4     2     3    1
     5     2    16    2
     6     3     4    1
     7     3     7    1
     8     4     5    1
     9     5     6    2
    10     7     8    1
    11     8     9   ar
    12     8    13   ar
    13     9    10   ar
    14    10    11   ar
    15    10    15    1
    16    11    12   ar
    17    12    13   ar
    18    12    14    1
    19    17    18    1
    20    18    19    1
    21    19    20    1
    22    19    24    1
    23    19    27    1
    24    20    21    1
    25    21    22    1
    26    21    28    1
    27    22    23    1
    28    23    24    1
    29    23    25    1
    30    25    26    1
    31    26    27    1
    32    26    28    1
