@<TRIPOS>MOLECULE
34955_ChemDiv_8016-4885
 28 32 0 0 0
SMALL
GASTEIGER
Energy = 0

@<TRIPOS>ATOM
      1 N           0.7000   -0.4500    0.0000 N.am    1  LIG1       -0.2273
      2 C          -0.0920    0.1290    0.0000 C.2     1  LIG1        0.2317
      3 C          -0.9040   -0.4380    0.0000 C.3     1  LIG1        0.0905
      4 C          -0.6170   -1.3670    0.0000 C.3     1  LIG1        0.0951
      5 C           0.3670   -1.3790    0.0000 C.2     1  LIG1        0.2319
      6 O           0.9670   -2.2130    0.0000 O.2     1  LIG1       -0.2745
      7 C          -1.8170   -0.0080    0.0000 C.3     1  LIG1        0.0359
      8 C          -2.6420   -0.5920    0.0000 C.ar    1  LIG1       -0.0216
      9 C          -2.5330   -1.5920    0.0000 C.ar    1  LIG1       -0.0034
     10 C          -3.3540   -2.1630    0.0000 C.ar    1  LIG1        0.0111
     11 C          -4.2540   -1.7630    0.0000 C.ar    1  LIG1        0.0577
     12 CL         -5.0420   -2.3500    0.0000 Cl      1  LIG1       -0.0822
     13 C          -4.3580   -0.7670    0.0000 C.ar    1  LIG1        0.0111
     14 C          -3.5420   -0.1670    0.0000 C.ar    1  LIG1       -0.0034
     15 O          -0.0920    1.1420    0.0000 O.2     1  LIG1       -0.2745
     16 C           1.6500   -0.1580    0.0000 C.3     1  LIG1        0.1328
     17 C           2.3750   -0.8790    0.0000 C.3     1  LIG1        0.1638
     18 O           3.3290   -0.6040    0.0000 O.3     1  LIG1       -0.3567
     19 C           3.5630    0.3460    0.0000 C.3     1  LIG1        0.0928
     20 C           2.4920    0.6580    0.0000 C.3     1  LIG1        0.0272
     21 C           2.3540    1.5580    0.0000 C.3     1  LIG1        0.0023
     22 C           3.1250    1.7670    0.0000 C.3     1  LIG1        0.0002
     23 C           4.4170    1.3670    0.0000 C.3     1  LIG1        0.0023
     24 C           4.3420    0.3290    0.0000 C.3     1  LIG1        0.0272
     25 C           5.0380    2.3540    0.0000 C.3     1  LIG1        0.0002
     26 C           4.0370    1.9210    0.0000 C.3     1  LIG1        0.0023
     27 C           4.1290    1.0920    0.0000 C.3     1  LIG1        0.0272
     28 C           3.0040    2.2460    0.0000 C.3     1  LIG1        0.0002
@<TRIPOS>BOND
     1     1     2   am
     2     1     5   am
     3     1    16    1
     4     2     3    1
     5     2    15    2
     6     3     4    1
     7     3     7    1
     8     4     5    1
     9     5     6    2
    10     7     8    1
    11     8     9   ar
    12     8    14   ar
    13     9    10   ar
    14    10    11   ar
    15    11    12    1
    16    11    13   ar
    17    13    14   ar
    18    16    17    1
    19    17    18    1
    20    18    19    1
    21    19    20    1
    22    19    24    1
    23    19    27    1
    24    20    21    1
    25    21    22    1
    26    21    28    1
    27    22    23    1
    28    23    24    1
    29    23    25    1
    30    25    26    1
    31    26    27    1
    32    26    28    1
