@<TRIPOS>MOLECULE
34951_ChemDiv_8016-4411
 28 31 0 0 0
SMALL
GASTEIGER
Energy = 0

@<TRIPOS>ATOM
      1 C          -2.6170    0.0000    0.0000 C.3     1  LIG1        0.0017
      2 C          -3.1710   -0.7380    0.0000 C.3     1  LIG1        0.0001
      3 C          -3.9960   -0.4670    0.0000 C.3     1  LIG1        0.0000
      4 C          -4.9540   -0.7380    0.0000 C.3     1  LIG1        0.0000
      5 C          -4.3670   -0.0670    0.0000 C.3     1  LIG1        0.0000
      6 C          -3.2040   -0.4040    0.0000 C.3     1  LIG1        0.0001
      7 C          -4.3670    1.0040    0.0000 C.3     1  LIG1        0.0000
      8 C          -3.4920    1.5170    0.0000 C.3     1  LIG1        0.0000
      9 C          -2.6170    1.0040    0.0000 C.3     1  LIG1        0.0001
     10 C          -3.9960    0.6460    0.0000 C.3     1  LIG1        0.0000
     11 C          -1.6080    0.0000    0.0000 C.3     1  LIG1        0.0234
     12 C          -1.1040   -0.8750    0.0000 C.3     1  LIG1        0.1151
     13 N          -0.1040   -0.8750    0.0000 N.am    1  LIG1       -0.2054
     14 C           0.4080    0.0000    0.0000 C.2     1  LIG1        0.2417
     15 C           1.4130    0.0000    0.0000 C.3     1  LIG1        0.0927
     16 C           1.9170    0.8710    0.0000 C.3     1  LIG1        0.0500
     17 C           1.4130    1.7460    0.0000 C.2     1  LIG1        0.0508
     18 O           1.9170    2.6210    0.0000 O.co2   1  LIG1       -0.5492
     19 O           0.4080    1.7460    0.0000 O.co2   1  LIG1       -0.5492
     20 C           2.9290    0.8710    0.0000 C.3     1  LIG1        0.0324
     21 C           3.4290    0.0000    0.0000 C.ar    1  LIG1       -0.0218
     22 C           2.9290   -0.8750    0.0000 C.ar    1  LIG1       -0.0034
     23 C           3.4290   -1.7420    0.0000 C.ar    1  LIG1        0.0111
     24 C           4.4420   -1.7420    0.0000 C.ar    1  LIG1        0.0577
     25 CL          4.9500   -2.6170    0.0000 Cl      1  LIG1       -0.0822
     26 C           4.9420   -0.8750    0.0000 C.ar    1  LIG1        0.0111
     27 C           4.4420    0.0000    0.0000 C.ar    1  LIG1       -0.0034
     28 O          -0.1040    0.8710    0.0000 O.2     1  LIG1       -0.2733
@<TRIPOS>BOND
     1     1     2    1
     2     1     6    1
     3     1     9    1
     4     1    11    1
     5     2     3    1
     6     3     4    1
     7     3    10    1
     8     4     5    1
     9     5     6    1
    10     5     7    1
    11     7     8    1
    12     8     9    1
    13     8    10    1
    14    11    12    1
    15    12    13    1
    16    13    14   am
    17    14    15    1
    18    14    28    2
    19    15    16    1
    20    16    17    1
    21    16    20    1
    22    17    18   ar
    23    17    19   ar
    24    20    21    1
    25    21    22   ar
    26    21    27   ar
    27    22    23   ar
    28    23    24   ar
    29    24    25    1
    30    24    26   ar
    31    26    27   ar
