@<TRIPOS>MOLECULE
34952_ChemDiv_8017-2334
 21 24 0 0 0
SMALL
GASTEIGER
Energy = 0

@<TRIPOS>ATOM
      1 C           0.4290   -0.2040    0.0000 C.ar    1  LIG1        0.2016
      2 C           0.4290    0.7960    0.0000 C.ar    1  LIG1        0.2240
      3 N          -0.4210    1.2960    0.0000 N.ar    1  LIG1       -0.1872
      4 N          -0.2210    2.2710    0.0000 N.ar    1  LIG1       -0.0384
      5 N           0.7670    2.3710    0.0000 N.ar    1  LIG1       -0.0222
      6 N           1.1790    1.4580    0.0000 N.ar    1  LIG1       -0.1045
      7 C          -1.2960    0.7960    0.0000 C.ar    1  LIG1        0.1038
      8 C          -1.2960   -0.2040    0.0000 C.ar    1  LIG1        0.1005
      9 N          -0.4210   -0.7040    0.0000 N.ar    1  LIG1       -0.2224
     10 C          -2.1710   -0.7040    0.0000 C.ar    1  LIG1        0.0164
     11 C          -3.0210   -0.2040    0.0000 C.ar    1  LIG1       -0.0203
     12 C          -3.0210    0.7960    0.0000 C.ar    1  LIG1       -0.0026
     13 C          -2.1710    1.2960    0.0000 C.ar    1  LIG1        0.0205
     14 C          -3.8960   -0.7000    0.0000 C.3     1  LIG1        0.0311
     15 N           1.3040   -0.7000    0.0000 N.ar    1  LIG1       -0.2138
     16 N           2.2170   -0.2920    0.0000 N.ar    1  LIG1       -0.1684
     17 C           2.8880   -1.0290    0.0000 C.ar    1  LIG1        0.0805
     18 C           2.4000   -1.9000    0.0000 C.ar    1  LIG1        0.0312
     19 C           1.4130   -1.7000    0.0000 C.ar    1  LIG1        0.0638
     20 C           0.6670   -2.3670    0.0000 C.3     1  LIG1        0.0522
     21 C           3.8920   -0.9290    0.0000 C.3     1  LIG1        0.0540
@<TRIPOS>BOND
     1     1     2   ar
     2     1     9   ar
     3     1    15    1
     4     2     3   ar
     5     2     6   ar
     6     3     4   ar
     7     3     7   ar
     8     4     5   ar
     9     5     6   ar
    10     7     8   ar
    11     7    13   ar
    12     8     9   ar
    13     8    10   ar
    14    10    11   ar
    15    11    12   ar
    16    11    14    1
    17    12    13   ar
    18    15    16   ar
    19    15    19   ar
    20    16    17   ar
    21    17    18   ar
    22    17    21    1
    23    18    19   ar
    24    19    20    1
