@<TRIPOS>MOLECULE
34953_ChemDiv_8016-4884
 28 31 0 0 0
SMALL
GASTEIGER
Energy = 0

@<TRIPOS>ATOM
      1 C           2.8670    0.5080    0.0000 C.3     1  LIG1        0.0201
      2 C           3.4460   -0.2290    0.0000 C.3     1  LIG1        0.0017
      3 C           4.2580   -0.3670    0.0000 C.3     1  LIG1        0.0001
      4 C           4.8670    0.5330    0.0000 C.3     1  LIG1        0.0000
      5 C           4.3790    1.3330    0.0000 C.3     1  LIG1        0.0001
      6 C           3.4790    1.4580    0.0000 C.3     1  LIG1        0.0017
      7 C           4.3710    0.5710    0.0000 C.3     1  LIG1        0.0000
      8 C           3.6040   -0.5920    0.0000 C.3     1  LIG1        0.0001
      9 C           2.6210   -0.2170    0.0000 C.3     1  LIG1        0.0017
     10 C           4.3960   -1.4540    0.0000 C.3     1  LIG1        0.0000
     11 C           2.0080    1.0130    0.0000 C.3     1  LIG1        0.1150
     12 N           1.1580    0.5210    0.0000 N.am    1  LIG1       -0.2054
     13 C           0.2960    1.0330    0.0000 C.2     1  LIG1        0.2416
     14 C          -0.5830    0.5080    0.0000 C.3     1  LIG1        0.0880
     15 C          -1.4500    0.9830    0.0000 C.3     1  LIG1        0.0358
     16 C          -2.3080    0.4630    0.0000 C.ar    1  LIG1       -0.0223
     17 C          -2.3080   -0.6040    0.0000 C.ar    1  LIG1       -0.0085
     18 C          -3.1210   -1.0630    0.0000 C.ar    1  LIG1       -0.0225
     19 C          -4.0210   -0.6130    0.0000 C.ar    1  LIG1       -0.0085
     20 C          -4.0170    0.3960    0.0000 C.ar    1  LIG1       -0.0225
     21 C          -3.1960    0.9250    0.0000 C.ar    1  LIG1       -0.0085
     22 C          -4.8710    0.8960    0.0000 C.3     1  LIG1        0.0310
     23 C          -3.1080   -2.0290    0.0000 C.3     1  LIG1        0.0310
     24 C          -0.5830   -0.4880    0.0000 C.3     1  LIG1        0.0512
     25 C           0.2960   -0.9670    0.0000 C.2     1  LIG1        0.0508
     26 O           0.2960   -1.9630    0.0000 O.co2   1  LIG1       -0.5492
     27 O           1.1580   -0.4750    0.0000 O.co2   1  LIG1       -0.5492
     28 O           0.2960    2.0330    0.0000 O.2     1  LIG1       -0.2733
@<TRIPOS>BOND
     1     1     2    1
     2     1     6    1
     3     1     9    1
     4     1    11    1
     5     2     3    1
     6     3     4    1
     7     3    10    1
     8     4     5    1
     9     5     6    1
    10     5     7    1
    11     7     8    1
    12     8     9    1
    13     8    10    1
    14    11    12    1
    15    12    13   am
    16    13    14    1
    17    13    28    2
    18    14    15    1
    19    14    24    1
    20    15    16    1
    21    16    17   ar
    22    16    21   ar
    23    17    18   ar
    24    18    19   ar
    25    18    23    1
    26    19    20   ar
    27    20    21   ar
    28    20    22    1
    29    24    25    1
    30    25    26   ar
    31    25    27   ar
