@<TRIPOS>MOLECULE
34950_ChemDiv_8017-2258
 25 29 0 0 0
SMALL
GASTEIGER
Energy = 0

@<TRIPOS>ATOM
      1 C          -1.6670   -0.1750    0.0000 C.ar    1  LIG1        0.1577
      2 C          -1.6790   -1.1540    0.0000 C.ar    1  LIG1        0.1713
      3 N          -0.7210   -1.4670    0.0000 N.ar    1  LIG1       -0.1930
      4 C          -0.1290   -0.6670    0.0000 C.ar    1  LIG1        0.2235
      5 N          -0.7170    0.1460    0.0000 N.ar    1  LIG1       -0.2678
      6 C          -0.1290    0.9580    0.0000 C.ar    1  LIG1        0.1006
      7 C           0.8170    0.6460    0.0000 C.ar    1  LIG1        0.0843
      8 N           0.8130   -0.3630    0.0000 N.ar    1  LIG1       -0.2747
      9 C           1.6790   -0.8540    0.0000 C.ar    1  LIG1        0.0828
     10 C           2.5420   -0.3540    0.0000 C.ar    1  LIG1        0.0192
     11 C           2.5420    0.6460    0.0000 C.ar    1  LIG1        0.0038
     12 C           1.6790    1.1460    0.0000 C.ar    1  LIG1        0.0178
     13 C           1.6790    2.1500    0.0000 C.ar    1  LIG1        0.0024
     14 C           2.5420    2.6500    0.0000 C.ar    1  LIG1        0.0114
     15 C           3.4170    2.1460    0.0000 C.ar    1  LIG1        0.0577
     16 C           3.4170    1.1500    0.0000 C.ar    1  LIG1        0.0115
     17 CL          4.2880    2.6580    0.0000 Cl      1  LIG1       -0.0822
     18 N          -2.5330   -1.6540    0.0000 N.ar    1  LIG1       -0.2628
     19 C          -3.4080   -1.1540    0.0000 C.ar    1  LIG1        0.3350
     20 N          -3.4040   -0.1750    0.0000 N.ar    1  LIG1       -0.2454
     21 C          -2.5290    0.3330    0.0000 C.ar    1  LIG1        0.2835
     22 O          -2.5330    1.3250    0.0000 O.2     1  LIG1       -0.2651
     23 C          -4.2830    0.3210    0.0000 C.3     1  LIG1        0.1383
     24 O          -4.2920   -1.6420    0.0000 O.2     1  LIG1       -0.2461
     25 C          -2.5330   -2.6540    0.0000 C.3     1  LIG1        0.1366
@<TRIPOS>BOND
     1     1     2   ar
     2     1     5   ar
     3     1    21   ar
     4     2     3   ar
     5     2    18   ar
     6     3     4   ar
     7     4     5   ar
     8     4     8   ar
     9     5     6   ar
    10     6     7   ar
    11     7     8   ar
    12     7    12   ar
    13     8     9   ar
    14     9    10   ar
    15    10    11   ar
    16    11    12   ar
    17    11    16   ar
    18    12    13   ar
    19    13    14   ar
    20    14    15   ar
    21    15    16   ar
    22    15    17    1
    23    18    19   ar
    24    18    25    1
    25    19    20   ar
    26    19    24    2
    27    20    21   ar
    28    20    23    1
    29    21    22    2
