@<TRIPOS>MOLECULE
34964_ChemDiv_8016-8271
 21 22 0 0 0
SMALL
GASTEIGER
Energy = 0

@<TRIPOS>ATOM
      1 C           0.4460   -1.4830    0.0000 C.ar    1  LIG1        0.1258
      2 C          -0.4210   -0.9830    0.0000 C.ar    1  LIG1        0.0823
      3 C          -1.2830   -1.4830    0.0000 C.ar    1  LIG1        0.0499
      4 C          -1.2830   -2.4920    0.0000 C.ar    1  LIG1        0.1280
      5 O          -0.4210   -2.9830    0.0000 O.2     1  LIG1       -0.4253
      6 C           0.4460   -2.4920    0.0000 C.ar    1  LIG1        0.3495
      7 O           1.3080   -2.9920    0.0000 O.2     1  LIG1       -0.2443
      8 C          -2.1580   -2.9830    0.0000 C.3     1  LIG1        0.0726
      9 N          -0.4330    0.0170    0.0000 N.pl3   1  LIG1       -0.2090
     10 C          -1.3000    0.5130    0.0000 C.ar    1  LIG1        0.1043
     11 C          -1.3080    1.5130    0.0000 C.ar    1  LIG1        0.1538
     12 O          -0.4460    2.0210    0.0000 O.3     1  LIG1       -0.4701
     13 C          -0.1880    2.9960    0.0000 C.3     1  LIG1        0.2525
     14 C          -2.1830    2.0000    0.0000 C.ar    1  LIG1        0.0382
     15 C          -3.0380    1.4960    0.0000 C.ar    1  LIG1        0.0032
     16 C          -3.0250    0.4880    0.0000 C.ar    1  LIG1        0.0015
     17 C          -2.1580   -0.0040    0.0000 C.ar    1  LIG1        0.0196
     18 C           1.3080   -0.9830    0.0000 C.2     1  LIG1        0.1806
     19 O           1.3040    0.0170    0.0000 O.2     1  LIG1       -0.2911
     20 C           2.1710   -1.4830    0.0000 C.3     1  LIG1        0.0694
     21 C           3.0330   -0.9790    0.0000 C.3     1  LIG1        0.0086
@<TRIPOS>BOND
     1     1     2   ar
     2     1     6   ar
     3     1    18    1
     4     2     3   ar
     5     2     9    1
     6     3     4   ar
     7     4     5   ar
     8     4     8    1
     9     5     6   ar
    10     6     7    2
    11     9    10    1
    12    10    11   ar
    13    10    17   ar
    14    11    12    1
    15    11    14   ar
    16    12    13    1
    17    14    15   ar
    18    15    16   ar
    19    16    17   ar
    20    18    19    2
    21    18    20    1
    22    20    21    1
