@<TRIPOS>MOLECULE
34967_ChemDiv_8016-4807
 15 17 0 0 0
SMALL
GASTEIGER
Energy = 0

@<TRIPOS>ATOM
      1 C           0.5540   -0.5170    0.0000 C.ar    1  LIG1        0.2402
      2 N          -0.1500    0.1960    0.0000 N.ar    1  LIG1       -0.2631
      3 C           0.1170    1.1500    0.0000 C.ar    1  LIG1        0.1298
      4 N           1.0920    1.4080    0.0000 N.ar    1  LIG1       -0.1974
      5 C           1.7790    0.7210    0.0000 C.ar    1  LIG1        0.2602
      6 N           1.5170   -0.2630    0.0000 N.ar    1  LIG1       -0.1756
      7 N           2.7540    1.0080    0.0000 N.pl3   1  LIG1       -0.0859
      8 C          -0.5960    1.8580    0.0000 C.3     1  LIG1        0.0724
      9 C          -1.0330   -0.2670    0.0000 C.ar    1  LIG1        0.0855
     10 C          -0.8960   -1.2420    0.0000 C.ar    1  LIG1        0.1005
     11 N           0.0920   -1.4040    0.0000 N.ar    1  LIG1       -0.2096
     12 C          -1.6880   -1.8540    0.0000 C.ar    1  LIG1        0.0207
     13 C          -2.6210   -1.4790    0.0000 C.ar    1  LIG1        0.0016
     14 C          -2.7580   -0.5000    0.0000 C.ar    1  LIG1        0.0016
     15 C          -1.9670    0.1210    0.0000 C.ar    1  LIG1        0.0192
@<TRIPOS>BOND
     1     1     2   ar
     2     1     6   ar
     3     1    11   ar
     4     2     3   ar
     5     2     9   ar
     6     3     4   ar
     7     3     8    1
     8     4     5   ar
     9     5     6   ar
    10     5     7    1
    11     9    10   ar
    12     9    15   ar
    13    10    11   ar
    14    10    12   ar
    15    12    13   ar
    16    13    14   ar
    17    14    15   ar
