@<TRIPOS>MOLECULE
34969_ChemDiv_8016-4891
 33 37 0 0 0
SMALL
GASTEIGER
Energy = 0

@<TRIPOS>ATOM
      1 N          -3.4080    0.4960    0.0000 N.ar    1  LIG1       -0.2074
      2 N          -3.4080   -0.4920    0.0000 N.ar    1  LIG1       -0.1708
      3 C          -4.2670   -0.9790    0.0000 C.ar    1  LIG1        0.0792
      4 C          -5.1170   -0.4920    0.0000 C.ar    1  LIG1        0.0199
      5 C          -5.1170    0.4960    0.0000 C.ar    1  LIG1        0.0588
      6 C          -4.2670    0.9880    0.0000 C.ar    1  LIG1        0.2768
      7 O          -4.2670    1.9580    0.0000 O.2     1  LIG1       -0.2655
      8 C          -5.9540    0.9880    0.0000 C.ar    1  LIG1        0.0048
      9 C          -6.7920    0.4960    0.0000 C.ar    1  LIG1        0.0002
     10 C          -6.7920   -0.4920    0.0000 C.ar    1  LIG1        0.0000
     11 C          -5.9540   -0.9790    0.0000 C.ar    1  LIG1        0.0014
     12 C          -4.2670   -1.9540    0.0000 C.3     1  LIG1        0.0539
     13 C          -2.5580    0.9880    0.0000 C.3     1  LIG1        0.2172
     14 C          -1.7040    0.4960    0.0000 C.2     1  LIG1        0.2705
     15 N          -0.8500    0.9880    0.0000 N.am    1  LIG1       -0.1775
     16 C          -0.0130    0.4960    0.0000 C.ar    1  LIG1        0.0750
     17 C           0.8380    0.9880    0.0000 C.ar    1  LIG1        0.0372
     18 C           1.6880    0.4960    0.0000 C.ar    1  LIG1        0.0998
     19 N           3.3790    0.4960    0.0000 N.ar    1  LIG1       -0.2252
     20 C           3.3790   -0.4920    0.0000 C.ar    1  LIG1        0.1786
     21 N           2.5420   -0.9670    0.0000 N.ar    1  LIG1       -0.3082
     22 C           1.6880   -0.4920    0.0000 C.ar    1  LIG1        0.0789
     23 C           0.8380   -0.9670    0.0000 C.ar    1  LIG1        0.0201
     24 C          -0.0130   -0.4920    0.0000 C.ar    1  LIG1        0.0182
     25 C           2.5420   -1.9540    0.0000 C.3     1  LIG1        0.1318
     26 C           4.2290   -0.9670    0.0000 C.3     1  LIG1        0.2035
     27 N           5.0880   -0.4920    0.0000 N.4     1  LIG1        0.3831
     28 C           5.0880    0.4960    0.0000 C.3     1  LIG1        0.1392
     29 C           5.9380    0.9880    0.0000 C.3     1  LIG1        0.0629
     30 C           6.7920    0.4960    0.0000 C.3     1  LIG1        0.0123
     31 C           6.7920   -0.4920    0.0000 C.3     1  LIG1        0.0629
     32 C           5.9380   -0.9670    0.0000 C.3     1  LIG1        0.1392
     33 O          -1.7040   -0.4920    0.0000 O.2     1  LIG1       -0.2708
@<TRIPOS>BOND
     1     1     2   ar
     2     1     6   ar
     3     1    13    1
     4     2     3   ar
     5     3     4   ar
     6     3    12    1
     7     4     5   ar
     8     4    11   ar
     9     5     6   ar
    10     5     8   ar
    11     6     7    2
    12     8     9   ar
    13     9    10   ar
    14    10    11   ar
    15    13    14    1
    16    14    15   am
    17    14    33    2
    18    15    16    1
    19    16    17   ar
    20    16    24   ar
    21    17    18   ar
    22    18    19   ar
    23    18    22   ar
    24    19    20   ar
    25    20    21   ar
    26    20    26    1
    27    21    22   ar
    28    21    25    1
    29    22    23   ar
    30    23    24   ar
    31    26    27    1
    32    27    28    1
    33    27    32    1
    34    28    29    1
    35    29    30    1
    36    30    31    1
    37    31    32    1
