@<TRIPOS>MOLECULE
34968_ChemDiv_8016-8487
 22 23 0 0 0
SMALL
GASTEIGER
Energy = 0

@<TRIPOS>ATOM
      1 C           0.9330   -0.9920    0.0000 C.ar    1  LIG1        0.1258
      2 C           0.9330   -1.9920    0.0000 C.ar    1  LIG1        0.3495
      3 O           0.0710   -2.4880    0.0000 O.2     1  LIG1       -0.4253
      4 C          -0.7960   -1.9920    0.0000 C.ar    1  LIG1        0.1280
      5 C          -0.7960   -0.9920    0.0000 C.ar    1  LIG1        0.0499
      6 C           0.0710   -0.4790    0.0000 C.ar    1  LIG1        0.0822
      7 N           0.0580    0.5210    0.0000 N.pl3   1  LIG1       -0.2121
      8 C          -0.8130    1.0080    0.0000 C.ar    1  LIG1        0.0707
      9 C          -0.8210    2.0080    0.0000 C.ar    1  LIG1        0.0196
     10 C          -1.6880    2.4960    0.0000 C.ar    1  LIG1        0.0382
     11 C          -2.5500    1.9880    0.0000 C.ar    1  LIG1        0.1388
     12 C          -2.5330    0.9830    0.0000 C.ar    1  LIG1        0.0382
     13 C          -1.6630    0.4960    0.0000 C.ar    1  LIG1        0.0196
     14 O          -3.4210    2.4880    0.0000 O.3     1  LIG1       -0.4714
     15 C          -4.3960    2.2330    0.0000 C.3     1  LIG1        0.2525
     16 C          -1.6710   -2.4880    0.0000 C.3     1  LIG1        0.0726
     17 O           1.7960   -2.4920    0.0000 O.2     1  LIG1       -0.2443
     18 C           1.7960   -0.4790    0.0000 C.2     1  LIG1        0.1806
     19 O           1.7920    0.5210    0.0000 O.2     1  LIG1       -0.2911
     20 C           2.6580   -0.9790    0.0000 C.3     1  LIG1        0.0694
     21 C           3.5210   -0.4790    0.0000 C.3     1  LIG1        0.0081
     22 C           4.3920   -0.9790    0.0000 C.3     1  LIG1        0.0005
@<TRIPOS>BOND
     1     1     2   ar
     2     1     6   ar
     3     1    18    1
     4     2     3   ar
     5     2    17    2
     6     3     4   ar
     7     4     5   ar
     8     4    16    1
     9     5     6   ar
    10     6     7    1
    11     7     8    1
    12     8     9   ar
    13     8    13   ar
    14     9    10   ar
    15    10    11   ar
    16    11    12   ar
    17    11    14    1
    18    12    13   ar
    19    14    15    1
    20    18    19    2
    21    18    20    1
    22    20    21    1
    23    21    22    1
