@<TRIPOS>MOLECULE
34966_ChemDiv_8016-8272
 21 22 0 0 0
SMALL
GASTEIGER
Energy = 0

@<TRIPOS>ATOM
      1 C           0.4500   -1.7420    0.0000 C.ar    1  LIG1        0.1258
      2 C           0.4500   -2.7420    0.0000 C.ar    1  LIG1        0.3495
      3 O          -0.4130   -3.2420    0.0000 O.2     1  LIG1       -0.4253
      4 C          -1.2750   -2.7420    0.0000 C.ar    1  LIG1        0.1280
      5 C          -1.2750   -1.7420    0.0000 C.ar    1  LIG1        0.0499
      6 C          -0.4130   -1.2380    0.0000 C.ar    1  LIG1        0.0822
      7 N          -0.4210   -0.2380    0.0000 N.pl3   1  LIG1       -0.2120
      8 C          -1.2960    0.2540    0.0000 C.ar    1  LIG1        0.0735
      9 C          -1.3000    1.2540    0.0000 C.ar    1  LIG1        0.0534
     10 C          -2.1710    1.7420    0.0000 C.ar    1  LIG1        0.1400
     11 O          -2.1750    2.7460    0.0000 O.3     1  LIG1       -0.4714
     12 C          -3.0460    3.2460    0.0000 C.3     1  LIG1        0.2525
     13 C          -3.0330    1.2290    0.0000 C.ar    1  LIG1        0.0370
     14 C          -3.0210    0.2290    0.0000 C.ar    1  LIG1        0.0044
     15 C          -2.1460   -0.2540    0.0000 C.ar    1  LIG1        0.0167
     16 C          -2.1460   -3.2420    0.0000 C.3     1  LIG1        0.0726
     17 O           1.3130   -3.2420    0.0000 O.2     1  LIG1       -0.2443
     18 C           1.3130   -1.2380    0.0000 C.2     1  LIG1        0.1806
     19 O           1.3040   -0.2380    0.0000 O.2     1  LIG1       -0.2911
     20 C           2.1790   -1.7380    0.0000 C.3     1  LIG1        0.0694
     21 C           3.0420   -1.2290    0.0000 C.3     1  LIG1        0.0086
@<TRIPOS>BOND
     1     1     2   ar
     2     1     6   ar
     3     1    18    1
     4     2     3   ar
     5     2    17    2
     6     3     4   ar
     7     4     5   ar
     8     4    16    1
     9     5     6   ar
    10     6     7    1
    11     7     8    1
    12     8     9   ar
    13     8    15   ar
    14     9    10   ar
    15    10    11    1
    16    10    13   ar
    17    11    12    1
    18    13    14   ar
    19    14    15   ar
    20    18    19    2
    21    18    20    1
    22    20    21    1
