@<TRIPOS>MOLECULE
34962_ChemDiv_8016-8237
 21 22 0 0 0
SMALL
GASTEIGER
Energy = 0

@<TRIPOS>ATOM
      1 C           1.3630   -0.9920    0.0000 C.ar    1  LIG1        0.1258
      2 C           1.3630   -1.9920    0.0000 C.ar    1  LIG1        0.3495
      3 O           0.5000   -2.4880    0.0000 O.2     1  LIG1       -0.4253
      4 C          -0.3630   -1.9920    0.0000 C.ar    1  LIG1        0.1280
      5 C          -0.3630   -0.9920    0.0000 C.ar    1  LIG1        0.0499
      6 C           0.5000   -0.4790    0.0000 C.ar    1  LIG1        0.0822
      7 N           0.4920    0.5210    0.0000 N.pl3   1  LIG1       -0.2121
      8 C          -0.3830    1.0080    0.0000 C.ar    1  LIG1        0.0707
      9 C          -0.3880    2.0080    0.0000 C.ar    1  LIG1        0.0196
     10 C          -1.2580    2.4960    0.0000 C.ar    1  LIG1        0.0382
     11 C          -2.1210    1.9880    0.0000 C.ar    1  LIG1        0.1388
     12 C          -2.1080    0.9830    0.0000 C.ar    1  LIG1        0.0382
     13 C          -1.2330    0.4960    0.0000 C.ar    1  LIG1        0.0196
     14 O          -2.9880    2.4880    0.0000 O.3     1  LIG1       -0.4714
     15 C          -3.9580    2.2330    0.0000 C.3     1  LIG1        0.2525
     16 C          -1.2330   -2.4880    0.0000 C.3     1  LIG1        0.0726
     17 O           2.2250   -2.4920    0.0000 O.2     1  LIG1       -0.2443
     18 C           2.2250   -0.4790    0.0000 C.2     1  LIG1        0.1806
     19 O           2.2170    0.5210    0.0000 O.2     1  LIG1       -0.2911
     20 C           3.0920   -0.9790    0.0000 C.3     1  LIG1        0.0694
     21 C           3.9540   -0.4790    0.0000 C.3     1  LIG1        0.0086
@<TRIPOS>BOND
     1     1     2   ar
     2     1     6   ar
     3     1    18    1
     4     2     3   ar
     5     2    17    2
     6     3     4   ar
     7     4     5   ar
     8     4    16    1
     9     5     6   ar
    10     6     7    1
    11     7     8    1
    12     8     9   ar
    13     8    13   ar
    14     9    10   ar
    15    10    11   ar
    16    11    12   ar
    17    11    14    1
    18    12    13   ar
    19    14    15    1
    20    18    19    2
    21    18    20    1
    22    20    21    1
