@<TRIPOS>MOLECULE
34960_ChemDiv_8017-2454
 24 27 0 0 0
SMALL
GASTEIGER
Energy = 0

@<TRIPOS>ATOM
      1 C          -0.0630   -2.2080    0.0000 C.ar    1  LIG1        0.1420
      2 C          -0.0630   -1.2080    0.0000 C.ar    1  LIG1        0.0719
      3 C          -0.9250   -0.7040    0.0000 C.ar    1  LIG1        0.2799
      4 N          -1.7880   -1.2080    0.0000 N.ar    1  LIG1       -0.1840
      5 C          -1.7960   -2.2080    0.0000 C.ar    1  LIG1        0.1833
      6 N          -0.9250   -2.7040    0.0000 N.ar    1  LIG1       -0.2714
      7 C          -1.1250   -3.6830    0.0000 C.ar    1  LIG1        0.0901
      8 C          -2.1210   -3.7960    0.0000 C.ar    1  LIG1        0.0574
      9 S          -2.5380   -2.8830    0.0000 S.2     1  LIG1       -0.0478
     10 O          -0.9250    0.2960    0.0000 O.2     1  LIG1       -0.2654
     11 C           0.8040   -0.7080    0.0000 C.3     1  LIG1        0.0612
     12 C           1.6670   -1.2040    0.0000 C.3     1  LIG1        0.0962
     13 C           1.6670   -2.2080    0.0000 C.2     1  LIG1        0.2475
     14 N           0.8040   -2.7080    0.0000 N.am    1  LIG1       -0.1618
     15 O           2.5330   -2.7080    0.0000 O.2     1  LIG1       -0.2729
     16 C           0.7920    0.2960    0.0000 C.ar    1  LIG1       -0.0175
     17 C          -0.0710    0.7830    0.0000 C.ar    1  LIG1       -0.0008
     18 C          -0.0750    1.7830    0.0000 C.ar    1  LIG1        0.0366
     19 C           0.7920    2.2960    0.0000 C.ar    1  LIG1        0.1385
     20 C           1.6670    1.7960    0.0000 C.ar    1  LIG1        0.0366
     21 C           1.6670    0.7920    0.0000 C.ar    1  LIG1       -0.0008
     22 O           0.7830    3.2960    0.0000 O.3     1  LIG1       -0.4755
     23 C           1.6540    3.8000    0.0000 C.3     1  LIG1        0.2055
     24 C           2.5130    3.3000    0.0000 C.3     1  LIG1        0.0512
@<TRIPOS>BOND
     1     1     2   ar
     2     1     6   ar
     3     1    14    1
     4     2     3   ar
     5     2    11    1
     6     3     4   ar
     7     3    10    2
     8     4     5   ar
     9     5     6   ar
    10     5     9   ar
    11     6     7   ar
    12     7     8   ar
    13     8     9   ar
    14    11    12    1
    15    11    16    1
    16    12    13    1
    17    13    14   am
    18    13    15    2
    19    16    17   ar
    20    16    21   ar
    21    17    18   ar
    22    18    19   ar
    23    19    20   ar
    24    19    22    1
    25    20    21   ar
    26    22    23    1
    27    23    24    1
