@<TRIPOS>MOLECULE
34971_ChemDiv_8016-4980
 23 26 0 0 0
SMALL
GASTEIGER
Energy = 0

@<TRIPOS>ATOM
      1 C          -0.0080   -0.2420    0.0000 C.ar    1  LIG1        0.0728
      2 C          -0.8670    0.2540    0.0000 C.ar    1  LIG1        0.2601
      3 N          -1.7330   -0.2460    0.0000 N.ar    1  LIG1       -0.2936
      4 C          -1.7330   -1.2420    0.0000 C.ar    1  LIG1        0.0654
      5 C          -0.8670   -1.7420    0.0000 C.ar    1  LIG1        0.0504
      6 C          -0.0080   -1.2420    0.0000 C.ar    1  LIG1        0.1506
      7 O           0.8540   -1.7420    0.0000 O.3     1  LIG1       -0.4242
      8 C           1.7290   -1.2420    0.0000 C.2     1  LIG1        0.3221
      9 C           1.7290   -0.2460    0.0000 C.3     1  LIG1        0.1189
     10 C           0.8630    0.2580    0.0000 C.3     1  LIG1        0.0634
     11 C           0.8630    1.2580    0.0000 C.ar    1  LIG1       -0.0176
     12 C           0.0040    1.7540    0.0000 C.ar    1  LIG1       -0.0039
     13 C          -0.0080    2.7460    0.0000 C.ar    1  LIG1       -0.0003
     14 C           0.8630    3.2540    0.0000 C.ar    1  LIG1       -0.0000
     15 C           1.7290    2.7540    0.0000 C.ar    1  LIG1       -0.0003
     16 C           1.7290    1.7540    0.0000 C.ar    1  LIG1       -0.0039
     17 O           2.5920   -1.7500    0.0000 O.2     1  LIG1       -0.2497
     18 C          -0.8670   -2.7420    0.0000 C.ar    1  LIG1        0.0045
     19 C          -1.7290   -3.2500    0.0000 C.ar    1  LIG1        0.0002
     20 C          -2.5920   -2.7500    0.0000 C.ar    1  LIG1        0.0015
     21 C          -2.5960   -1.7420    0.0000 C.ar    1  LIG1        0.0174
     22 C          -2.5960    0.2540    0.0000 C.3     1  LIG1        0.1335
     23 O          -0.8710    1.2540    0.0000 O.2     1  LIG1       -0.2672
@<TRIPOS>BOND
     1     1     2   ar
     2     1     6   ar
     3     1    10    1
     4     2     3   ar
     5     2    23    2
     6     3     4   ar
     7     3    22    1
     8     4     5   ar
     9     4    21   ar
    10     5     6   ar
    11     5    18   ar
    12     6     7    1
    13     7     8    1
    14     8     9    1
    15     8    17    2
    16     9    10    1
    17    10    11    1
    18    11    12   ar
    19    11    16   ar
    20    12    13   ar
    21    13    14   ar
    22    14    15   ar
    23    15    16   ar
    24    18    19   ar
    25    19    20   ar
    26    20    21   ar
