@<TRIPOS>MOLECULE
34979_ChemDiv_8016-2462
 22 26 0 0 0
SMALL
GASTEIGER
Energy = 0

@<TRIPOS>ATOM
      1 C           2.3500   -0.0210    0.0000 C.ar    1  LIG1        0.2442
      2 N           1.6790   -0.7540    0.0000 N.ar    1  LIG1       -0.2574
      3 C           0.7040   -0.5500    0.0000 C.ar    1  LIG1        0.1001
      4 C           0.3920    0.4040    0.0000 C.ar    1  LIG1        0.0550
      5 C           1.0540    1.1420    0.0000 C.ar    1  LIG1        0.1738
      6 N           2.0380    0.9330    0.0000 N.ar    1  LIG1       -0.2459
      7 C           2.5420    1.8040    0.0000 C.ar    1  LIG1        0.1497
      8 N           1.8670    2.5420    0.0000 N.ar    1  LIG1       -0.1329
      9 N           0.9540    2.1420    0.0000 N.ar    1  LIG1       -0.1286
     10 C           3.5380    1.9040    0.0000 C.3     1  LIG1        0.0743
     11 C          -0.6040    0.4040    0.0000 C.ar    1  LIG1       -0.0153
     12 C          -0.9170   -0.5500    0.0000 C.ar    1  LIG1        0.0048
     13 S          -0.1040   -1.1380    0.0000 S.2     1  LIG1       -0.0739
     14 C          -1.8920   -0.7540    0.0000 C.3     1  LIG1        0.0327
     15 C          -2.5670   -0.0210    0.0000 C.3     1  LIG1        0.0052
     16 C          -2.2540    0.9330    0.0000 C.3     1  LIG1        0.0050
     17 C          -1.2710    1.1420    0.0000 C.3     1  LIG1        0.0267
     18 C          -3.5420   -0.2210    0.0000 C.3     1  LIG1        0.0004
     19 C           2.1790   -1.6250    0.0000 C.ar    1  LIG1        0.1490
     20 N           3.1540   -1.4130    0.0000 N.ar    1  LIG1       -0.1315
     21 N           3.2630   -0.4250    0.0000 N.ar    1  LIG1       -0.1097
     22 C           1.7750   -2.5380    0.0000 C.3     1  LIG1        0.0743
@<TRIPOS>BOND
     1     1     2   ar
     2     1     6   ar
     3     1    21   ar
     4     2     3   ar
     5     2    19   ar
     6     3     4   ar
     7     3    13   ar
     8     4     5   ar
     9     4    11   ar
    10     5     6   ar
    11     5     9   ar
    12     6     7   ar
    13     7     8   ar
    14     7    10    1
    15     8     9   ar
    16    11    12   ar
    17    11    17    1
    18    12    13   ar
    19    12    14    1
    20    14    15    1
    21    15    16    1
    22    15    18    1
    23    16    17    1
    24    19    20   ar
    25    19    22    1
    26    20    21   ar
