@<TRIPOS>MOLECULE
34970_ChemDiv_8016-8488
 21 22 0 0 0
SMALL
GASTEIGER
Energy = 0

@<TRIPOS>ATOM
      1 C           0.0130   -0.9920    0.0000 C.ar    1  LIG1        0.1258
      2 C          -0.8580   -0.4790    0.0000 C.ar    1  LIG1        0.0823
      3 C          -1.7210   -0.9920    0.0000 C.ar    1  LIG1        0.0499
      4 C          -1.7210   -1.9920    0.0000 C.ar    1  LIG1        0.1280
      5 O          -0.8580   -2.4880    0.0000 O.2     1  LIG1       -0.4253
      6 C           0.0130   -1.9920    0.0000 C.ar    1  LIG1        0.3495
      7 O           0.8750   -2.4920    0.0000 O.2     1  LIG1       -0.2443
      8 C          -2.5880   -2.4880    0.0000 C.3     1  LIG1        0.0726
      9 N          -0.8630    0.5210    0.0000 N.pl3   1  LIG1       -0.2089
     10 C          -1.7330    1.0080    0.0000 C.ar    1  LIG1        0.1093
     11 C          -1.7460    2.0080    0.0000 C.ar    1  LIG1        0.2108
     12 O          -0.7750    2.2750    0.0000 O.3     1  LIG1       -0.2852
     13 C          -2.6130    2.4960    0.0000 C.ar    1  LIG1        0.0434
     14 C          -3.4710    1.9880    0.0000 C.ar    1  LIG1        0.0034
     15 C          -3.4580    0.9830    0.0000 C.ar    1  LIG1        0.0015
     16 C          -2.5880    0.4960    0.0000 C.ar    1  LIG1        0.0198
     17 C           0.8750   -0.4790    0.0000 C.2     1  LIG1        0.1806
     18 O           0.8670    0.5210    0.0000 O.2     1  LIG1       -0.2911
     19 C           1.7380   -0.9880    0.0000 C.3     1  LIG1        0.0694
     20 C           2.6040   -0.4790    0.0000 C.3     1  LIG1        0.0081
     21 C           3.4670   -0.9790    0.0000 C.3     1  LIG1        0.0005
@<TRIPOS>BOND
     1     1     2   ar
     2     1     6   ar
     3     1    17    1
     4     2     3   ar
     5     2     9    1
     6     3     4   ar
     7     4     5   ar
     8     4     8    1
     9     5     6   ar
    10     6     7    2
    11     9    10    1
    12    10    11   ar
    13    10    16   ar
    14    11    12    1
    15    11    13   ar
    16    13    14   ar
    17    14    15   ar
    18    15    16   ar
    19    17    18    2
    20    17    19    1
    21    19    20    1
    22    20    21    1
