@<TRIPOS>MOLECULE
34975_ChemDiv_8016-5047
 26 29 0 0 0
SMALL
GASTEIGER
Energy = 0

@<TRIPOS>ATOM
      1 C          -0.4330   -0.5040    0.0000 C.ar    1  LIG1        0.0729
      2 C          -1.2960   -0.0080    0.0000 C.ar    1  LIG1        0.2601
      3 N          -2.1580   -0.5080    0.0000 N.ar    1  LIG1       -0.2936
      4 C          -2.1580   -1.5080    0.0000 C.ar    1  LIG1        0.0654
      5 C          -1.2960   -2.0080    0.0000 C.ar    1  LIG1        0.0504
      6 C          -0.4330   -1.5080    0.0000 C.ar    1  LIG1        0.1506
      7 O           0.4290   -2.0080    0.0000 O.3     1  LIG1       -0.4242
      8 C           1.3040   -1.5080    0.0000 C.2     1  LIG1        0.3221
      9 C           1.3040   -0.5040    0.0000 C.3     1  LIG1        0.1190
     10 C           0.4380   -0.0040    0.0000 C.3     1  LIG1        0.0664
     11 C           0.4380    1.0040    0.0000 C.ar    1  LIG1        0.0163
     12 C           1.3040    1.4960    0.0000 C.ar    1  LIG1        0.1348
     13 O           2.1670    2.0040    0.0000 O.3     1  LIG1       -0.4758
     14 C           2.1540    2.9960    0.0000 C.3     1  LIG1        0.2055
     15 C           3.0170    3.5130    0.0000 C.3     1  LIG1        0.0512
     16 C           1.3040    2.4920    0.0000 C.ar    1  LIG1        0.0366
     17 C           0.4380    2.9920    0.0000 C.ar    1  LIG1        0.0031
     18 C          -0.4330    2.4920    0.0000 C.ar    1  LIG1       -0.0001
     19 C          -0.4250    1.4920    0.0000 C.ar    1  LIG1       -0.0009
     20 O           2.1670   -2.0170    0.0000 O.2     1  LIG1       -0.2497
     21 C          -1.2880   -3.0080    0.0000 C.ar    1  LIG1        0.0045
     22 C          -2.1500   -3.5080    0.0000 C.ar    1  LIG1        0.0002
     23 C          -3.0210   -3.0080    0.0000 C.ar    1  LIG1        0.0015
     24 C          -3.0210   -2.0080    0.0000 C.ar    1  LIG1        0.0174
     25 C          -3.0210   -0.0080    0.0000 C.3     1  LIG1        0.1335
     26 O          -1.3000    0.9920    0.0000 O.2     1  LIG1       -0.2672
@<TRIPOS>BOND
     1     1     2   ar
     2     1     6   ar
     3     1    10    1
     4     2     3   ar
     5     2    26    2
     6     3     4   ar
     7     3    25    1
     8     4     5   ar
     9     4    24   ar
    10     5     6   ar
    11     5    21   ar
    12     6     7    1
    13     7     8    1
    14     8     9    1
    15     8    20    2
    16     9    10    1
    17    10    11    1
    18    11    12   ar
    19    11    19   ar
    20    12    13    1
    21    12    16   ar
    22    13    14    1
    23    14    15    1
    24    16    17   ar
    25    17    18   ar
    26    18    19   ar
    27    21    22   ar
    28    22    23   ar
    29    23    24   ar
