@<TRIPOS>MOLECULE
34978_ChemDiv_8017-2463
 26 30 0 0 0
SMALL
GASTEIGER
Energy = 0

@<TRIPOS>ATOM
      1 C          -1.2500   -0.2830    0.0000 C.ar    1  LIG1        0.1416
      2 C          -0.3830    0.2210    0.0000 C.ar    1  LIG1        0.0719
      3 C          -0.3750    1.2210    0.0000 C.ar    1  LIG1        0.2795
      4 N          -1.2460    1.7250    0.0000 N.ar    1  LIG1       -0.1906
      5 C          -2.1080    1.2250    0.0000 C.ar    1  LIG1        0.1478
      6 N          -2.1080    0.2210    0.0000 N.ar    1  LIG1       -0.2774
      7 C          -2.9710   -0.2710    0.0000 C.ar    1  LIG1        0.0826
      8 C          -3.8330    0.2210    0.0000 C.ar    1  LIG1        0.0189
      9 C          -3.8330    1.2250    0.0000 C.ar    1  LIG1        0.0003
     10 C          -2.9710    1.7330    0.0000 C.ar    1  LIG1        0.0128
     11 C          -2.9710    2.7330    0.0000 C.3     1  LIG1        0.0342
     12 O           0.4920    1.7130    0.0000 O.2     1  LIG1       -0.2654
     13 C           0.4790   -0.2830    0.0000 C.3     1  LIG1        0.0613
     14 C           1.3500    0.2080    0.0000 C.ar    1  LIG1       -0.0145
     15 C           1.3540    1.2080    0.0000 C.ar    1  LIG1        0.0362
     16 C           2.2170    1.7080    0.0000 C.ar    1  LIG1        0.1761
     17 C           3.0880    1.2000    0.0000 C.ar    1  LIG1        0.1764
     18 O           3.8290    1.8710    0.0000 O.3     1  LIG1       -0.4346
     19 C           3.4250    2.7880    0.0000 C.3     1  LIG1        0.4294
     20 O           2.4290    2.6830    0.0000 O.3     1  LIG1       -0.4346
     21 C           3.0790    0.1960    0.0000 C.ar    1  LIG1        0.0399
     22 C           2.2130   -0.3040    0.0000 C.ar    1  LIG1       -0.0006
     23 C           0.4750   -1.2920    0.0000 C.3     1  LIG1        0.0962
     24 C          -0.3960   -1.7830    0.0000 C.2     1  LIG1        0.2475
     25 N          -1.2580   -1.2710    0.0000 N.am    1  LIG1       -0.1618
     26 O          -0.4080   -2.7830    0.0000 O.2     1  LIG1       -0.2729
@<TRIPOS>BOND
     1     1     2   ar
     2     1     6   ar
     3     1    25    1
     4     2     3   ar
     5     2    13    1
     6     3     4   ar
     7     3    12    2
     8     4     5   ar
     9     5     6   ar
    10     5    10   ar
    11     6     7   ar
    12     7     8   ar
    13     8     9   ar
    14     9    10   ar
    15    10    11    1
    16    13    14    1
    17    13    23    1
    18    14    15   ar
    19    14    22   ar
    20    15    16   ar
    21    16    17   ar
    22    16    20    1
    23    17    18    1
    24    17    21   ar
    25    18    19    1
    26    19    20    1
    27    21    22   ar
    28    23    24    1
    29    24    25   am
    30    24    26    2
