@<TRIPOS>MOLECULE
34974_ChemDiv_8017-6796
 20 21 0 0 0
SMALL
GASTEIGER
Energy = 0

@<TRIPOS>ATOM
      1 C           0.4460   -1.0000    0.0000 C.ar    1  LIG1        0.1258
      2 C          -0.4210   -0.4920    0.0000 C.ar    1  LIG1        0.0823
      3 C          -1.2830   -1.0000    0.0000 C.ar    1  LIG1        0.0499
      4 C          -1.2830   -2.0000    0.0000 C.ar    1  LIG1        0.1280
      5 O          -0.4210   -2.4920    0.0000 O.2     1  LIG1       -0.4253
      6 C           0.4460   -2.0000    0.0000 C.ar    1  LIG1        0.3495
      7 O           1.3080   -2.5040    0.0000 O.2     1  LIG1       -0.2443
      8 C          -2.1580   -2.4920    0.0000 C.3     1  LIG1        0.0726
      9 N          -0.4330    0.5080    0.0000 N.pl3   1  LIG1       -0.2089
     10 C          -1.3000    0.9960    0.0000 C.ar    1  LIG1        0.1093
     11 C          -1.3080    2.0000    0.0000 C.ar    1  LIG1        0.2108
     12 O          -0.4460    2.5080    0.0000 O.3     1  LIG1       -0.2852
     13 C          -2.1830    2.4880    0.0000 C.ar    1  LIG1        0.0434
     14 C          -3.0460    1.9830    0.0000 C.ar    1  LIG1        0.0034
     15 C          -3.0250    0.9710    0.0000 C.ar    1  LIG1        0.0015
     16 C          -2.1580    0.4880    0.0000 C.ar    1  LIG1        0.0198
     17 C           1.3080   -0.4920    0.0000 C.2     1  LIG1        0.1806
     18 O           1.3040    0.5080    0.0000 O.2     1  LIG1       -0.2911
     19 C           2.1710   -0.9920    0.0000 C.3     1  LIG1        0.0694
     20 C           3.0420   -0.4880    0.0000 C.3     1  LIG1        0.0086
@<TRIPOS>BOND
     1     1     2   ar
     2     1     6   ar
     3     1    17    1
     4     2     3   ar
     5     2     9    1
     6     3     4   ar
     7     4     5   ar
     8     4     8    1
     9     5     6   ar
    10     6     7    2
    11     9    10    1
    12    10    11   ar
    13    10    16   ar
    14    11    12    1
    15    11    13   ar
    16    13    14   ar
    17    14    15   ar
    18    15    16   ar
    19    17    18    2
    20    17    19    1
    21    19    20    1
