@<TRIPOS>MOLECULE
34972_ChemDiv_8016-8489
 21 22 0 0 0
SMALL
GASTEIGER
Energy = 0

@<TRIPOS>ATOM
      1 C           0.4420   -0.9920    0.0000 C.ar    1  LIG1        0.1258
      2 C           0.4420   -1.9920    0.0000 C.ar    1  LIG1        0.3495
      3 O          -0.4210   -2.4880    0.0000 O.2     1  LIG1       -0.4253
      4 C          -1.2830   -1.9920    0.0000 C.ar    1  LIG1        0.1280
      5 C          -1.2830   -0.9920    0.0000 C.ar    1  LIG1        0.0499
      6 C          -0.4210   -0.4790    0.0000 C.ar    1  LIG1        0.0822
      7 N          -0.4250    0.5210    0.0000 N.pl3   1  LIG1       -0.2121
      8 C          -1.3000    1.0080    0.0000 C.ar    1  LIG1        0.0705
      9 C          -2.1500    0.4960    0.0000 C.ar    1  LIG1        0.0170
     10 C          -3.0210    0.9830    0.0000 C.ar    1  LIG1        0.0080
     11 C          -3.0380    1.9880    0.0000 C.ar    1  LIG1        0.0347
     12 BR         -3.9080    2.4960    0.0000 Br      1  LIG1       -0.0490
     13 C          -2.1750    2.4960    0.0000 C.ar    1  LIG1        0.0080
     14 C          -1.3080    2.0080    0.0000 C.ar    1  LIG1        0.0170
     15 C          -2.1500   -2.4880    0.0000 C.3     1  LIG1        0.0726
     16 O           1.3040   -2.4920    0.0000 O.2     1  LIG1       -0.2443
     17 C           1.3040   -0.4790    0.0000 C.2     1  LIG1        0.1806
     18 O           1.3040    0.5210    0.0000 O.2     1  LIG1       -0.2911
     19 C           2.1750   -0.9790    0.0000 C.3     1  LIG1        0.0694
     20 C           3.0380   -0.4790    0.0000 C.3     1  LIG1        0.0081
     21 C           3.9040   -0.9790    0.0000 C.3     1  LIG1        0.0005
@<TRIPOS>BOND
     1     1     2   ar
     2     1     6   ar
     3     1    17    1
     4     2     3   ar
     5     2    16    2
     6     3     4   ar
     7     4     5   ar
     8     4    15    1
     9     5     6   ar
    10     6     7    1
    11     7     8    1
    12     8     9   ar
    13     8    14   ar
    14     9    10   ar
    15    10    11   ar
    16    11    12    1
    17    11    13   ar
    18    13    14   ar
    19    17    18    2
    20    17    19    1
    21    19    20    1
    22    20    21    1
