@<TRIPOS>MOLECULE
34973_ChemDiv_8016-5038
 25 28 0 0 0
SMALL
GASTEIGER
Energy = 0

@<TRIPOS>ATOM
      1 C          -0.0040   -0.9920    0.0000 C.ar    1  LIG1        0.0728
      2 C          -0.8670   -0.4920    0.0000 C.ar    1  LIG1        0.2601
      3 N          -1.7330   -0.9920    0.0000 N.ar    1  LIG1       -0.2936
      4 C          -1.7330   -1.9920    0.0000 C.ar    1  LIG1        0.0654
      5 C          -0.8670   -2.4960    0.0000 C.ar    1  LIG1        0.0504
      6 C          -0.0040   -1.9920    0.0000 C.ar    1  LIG1        0.1506
      7 O           0.8540   -2.4960    0.0000 O.3     1  LIG1       -0.4242
      8 C           1.7290   -1.9920    0.0000 C.2     1  LIG1        0.3221
      9 C           1.7290   -0.9920    0.0000 C.3     1  LIG1        0.1189
     10 C           0.8630   -0.4880    0.0000 C.3     1  LIG1        0.0634
     11 C           0.8630    0.5130    0.0000 C.ar    1  LIG1       -0.0176
     12 C           1.7290    1.0080    0.0000 C.ar    1  LIG1       -0.0043
     13 C           1.7290    2.0000    0.0000 C.ar    1  LIG1       -0.0046
     14 C           0.8630    2.5080    0.0000 C.ar    1  LIG1       -0.0222
     15 C          -0.0040    2.0000    0.0000 C.ar    1  LIG1       -0.0046
     16 C           0.0000    1.0080    0.0000 C.ar    1  LIG1       -0.0043
     17 C           0.8630    3.5080    0.0000 C.3     1  LIG1        0.0264
     18 C           1.7290    4.0000    0.0000 C.3     1  LIG1        0.0050
     19 O           2.5920   -2.4960    0.0000 O.2     1  LIG1       -0.2497
     20 C          -0.8670   -3.4880    0.0000 C.ar    1  LIG1        0.0045
     21 C          -1.7290   -3.9960    0.0000 C.ar    1  LIG1        0.0002
     22 C          -2.5920   -3.4960    0.0000 C.ar    1  LIG1        0.0015
     23 C          -2.5960   -2.4960    0.0000 C.ar    1  LIG1        0.0174
     24 C          -2.5960   -0.4920    0.0000 C.3     1  LIG1        0.1335
     25 O          -0.8710    0.5080    0.0000 O.2     1  LIG1       -0.2672
@<TRIPOS>BOND
     1     1     2   ar
     2     1     6   ar
     3     1    10    1
     4     2     3   ar
     5     2    25    2
     6     3     4   ar
     7     3    24    1
     8     4     5   ar
     9     4    23   ar
    10     5     6   ar
    11     5    20   ar
    12     6     7    1
    13     7     8    1
    14     8     9    1
    15     8    19    2
    16     9    10    1
    17    10    11    1
    18    11    12   ar
    19    11    16   ar
    20    12    13   ar
    21    13    14   ar
    22    14    15   ar
    23    14    17    1
    24    15    16   ar
    25    17    18    1
    26    20    21   ar
    27    21    22   ar
    28    22    23   ar
