@<TRIPOS>MOLECULE
34982_ChemDiv_8017-5308
 28 33 0 0 0
SMALL
GASTEIGER
Energy = 0

@<TRIPOS>ATOM
      1 N          -1.6130    0.7460    0.0000 N.ar    1  LIG1       -0.2617
      2 C          -0.7830    0.2460    0.0000 C.ar    1  LIG1        0.1427
      3 C           0.0790    0.7250    0.0000 C.ar    1  LIG1        0.0720
      4 C           0.0880    1.7080    0.0000 C.ar    1  LIG1        0.2807
      5 N          -0.7580    2.2080    0.0000 N.ar    1  LIG1       -0.1725
      6 C          -1.6080    1.7210    0.0000 C.ar    1  LIG1        0.2405
      7 N          -2.4500    2.2210    0.0000 N.ar    1  LIG1       -0.2095
      8 C          -3.2960    1.7330    0.0000 C.ar    1  LIG1        0.1005
      9 C          -3.3000    0.7500    0.0000 C.ar    1  LIG1        0.0856
     10 C          -4.1420    0.2710    0.0000 C.ar    1  LIG1        0.0192
     11 C          -4.9830    0.7500    0.0000 C.ar    1  LIG1        0.0016
     12 C          -4.9830    1.7330    0.0000 C.ar    1  LIG1        0.0016
     13 C          -4.1420    2.2210    0.0000 C.ar    1  LIG1        0.0207
     14 O           0.9420    2.1880    0.0000 O.2     1  LIG1       -0.2653
     15 C           0.9290    0.2330    0.0000 C.3     1  LIG1        0.0613
     16 C           1.7790    0.7080    0.0000 C.ar    1  LIG1       -0.0145
     17 C           2.6170    0.2080    0.0000 C.ar    1  LIG1        0.0362
     18 C           3.4670    0.6880    0.0000 C.ar    1  LIG1        0.1761
     19 C           3.4790    1.6710    0.0000 C.ar    1  LIG1        0.1764
     20 O           4.4170    1.9580    0.0000 O.3     1  LIG1       -0.4346
     21 C           4.9790    1.1580    0.0000 C.3     1  LIG1        0.4294
     22 O           4.3920    0.3750    0.0000 O.3     1  LIG1       -0.4346
     23 C           2.6290    2.1630    0.0000 C.ar    1  LIG1        0.0399
     24 C           1.7880    1.6830    0.0000 C.ar    1  LIG1       -0.0006
     25 C           0.9130   -0.7540    0.0000 C.3     1  LIG1        0.0962
     26 C           0.0540   -1.2420    0.0000 C.2     1  LIG1        0.2475
     27 N          -0.7880   -0.7380    0.0000 N.am    1  LIG1       -0.1618
     28 O           0.0420   -2.2170    0.0000 O.2     1  LIG1       -0.2729
@<TRIPOS>BOND
     1     1     2   ar
     2     1     6   ar
     3     1     9   ar
     4     2     3   ar
     5     2    27    1
     6     3     4   ar
     7     3    15    1
     8     4     5   ar
     9     4    14    2
    10     5     6   ar
    11     6     7   ar
    12     7     8   ar
    13     8     9   ar
    14     8    13   ar
    15     9    10   ar
    16    10    11   ar
    17    11    12   ar
    18    12    13   ar
    19    15    16    1
    20    15    25    1
    21    16    17   ar
    22    16    24   ar
    23    17    18   ar
    24    18    19   ar
    25    18    22    1
    26    19    20    1
    27    19    23   ar
    28    20    21    1
    29    21    22    1
    30    23    24   ar
    31    25    26    1
    32    26    27   am
    33    26    28    2
