@<TRIPOS>MOLECULE
34989_ChemDiv_C684-0107
 36 40 0 0 0
SMALL
GASTEIGER
Energy = 0

@<TRIPOS>ATOM
      1 N           3.6080    1.4330    0.0000 N.ar    1  LIG1       -0.1771
      2 C           3.6080    0.4330    0.0000 C.ar    1  LIG1        0.2591
      3 N           2.7460   -0.0670    0.0000 N.ar    1  LIG1       -0.2619
      4 C           1.8750    0.4330    0.0000 C.ar    1  LIG1        0.0708
      5 C           1.8790    1.4330    0.0000 C.ar    1  LIG1        0.0522
      6 C           2.7460    1.9420    0.0000 C.ar    1  LIG1        0.1699
      7 N           2.9580    2.9210    0.0000 N.ar    1  LIG1       -0.2059
      8 C           3.9580    3.0250    0.0000 C.ar    1  LIG1        0.1836
      9 N           4.3500    2.1000    0.0000 N.ar    1  LIG1       -0.1417
     10 C           4.4580    3.8790    0.0000 C.ar    1  LIG1        0.0375
     11 C           5.4580    3.8750    0.0000 C.ar    1  LIG1        0.0031
     12 C           5.9580    4.7250    0.0000 C.ar    1  LIG1        0.0001
     13 C           5.4750    5.6000    0.0000 C.ar    1  LIG1        0.0000
     14 C           4.4670    5.6000    0.0000 C.ar    1  LIG1        0.0001
     15 C           3.9670    4.7420    0.0000 C.ar    1  LIG1        0.0031
     16 C           1.0130    1.9330    0.0000 C.ar    1  LIG1        0.0045
     17 C           0.1460    1.4330    0.0000 C.ar    1  LIG1        0.0002
     18 C           0.1460    0.4330    0.0000 C.ar    1  LIG1        0.0015
     19 C           1.0130   -0.0670    0.0000 C.ar    1  LIG1        0.0177
     20 C           2.9420   -1.0500    0.0000 C.ar    1  LIG1        0.1482
     21 N           3.9420   -1.1580    0.0000 N.ar    1  LIG1       -0.1315
     22 N           4.3500   -0.2420    0.0000 N.ar    1  LIG1       -0.1083
     23 C           2.2750   -1.7960    0.0000 C.3     1  LIG1        0.0668
     24 C           1.3000   -1.5830    0.0000 C.3     1  LIG1        0.0176
     25 C           0.6210   -2.3210    0.0000 C.3     1  LIG1        0.0873
     26 C          -0.3540   -2.1080    0.0000 C.2     1  LIG1        0.2414
     27 O          -0.6670   -1.1580    0.0000 O.2     1  LIG1       -0.2733
     28 N          -1.0290   -2.8420    0.0000 N.am    1  LIG1       -0.2052
     29 C          -2.0040   -2.6380    0.0000 C.3     1  LIG1        0.1213
     30 C          -2.6710   -3.3790    0.0000 C.3     1  LIG1        0.0861
     31 C          -3.6540   -3.1710    0.0000 C.3     1  LIG1        0.1404
     32 N          -4.3210   -3.9130    0.0000 N.4     1  LIG1        0.3773
     33 C          -5.2920   -3.6880    0.0000 C.3     1  LIG1        0.1388
     34 C          -5.9630   -4.4330    0.0000 C.3     1  LIG1        0.0688
     35 C          -4.0000   -4.8580    0.0000 C.3     1  LIG1        0.1388
     36 C          -4.6830   -5.6000    0.0000 C.3     1  LIG1        0.0688
@<TRIPOS>BOND
     1     1     2   ar
     2     1     6   ar
     3     1     9   ar
     4     2     3   ar
     5     2    22   ar
     6     3     4   ar
     7     3    20   ar
     8     4     5   ar
     9     4    19   ar
    10     5     6   ar
    11     5    16   ar
    12     6     7   ar
    13     7     8   ar
    14     8     9   ar
    15     8    10    1
    16    10    11   ar
    17    10    15   ar
    18    11    12   ar
    19    12    13   ar
    20    13    14   ar
    21    14    15   ar
    22    16    17   ar
    23    17    18   ar
    24    18    19   ar
    25    20    21   ar
    26    20    23    1
    27    21    22   ar
    28    23    24    1
    29    24    25    1
    30    25    26    1
    31    26    27    2
    32    26    28   am
    33    28    29    1
    34    29    30    1
    35    30    31    1
    36    31    32    1
    37    32    33    1
    38    32    35    1
    39    33    34    1
    40    35    36    1
