@<TRIPOS>MOLECULE
34981_ChemDiv_8016-2466
 20 24 0 0 0
SMALL
GASTEIGER
Energy = 0

@<TRIPOS>ATOM
      1 C           0.5330   -0.0540    0.0000 C.ar    1  LIG1        0.0550
      2 C           0.8460   -1.0040    0.0000 C.ar    1  LIG1        0.1004
      3 N           1.8210   -1.2130    0.0000 N.ar    1  LIG1       -0.2515
      4 C           2.4830   -0.4670    0.0000 C.ar    1  LIG1        0.2448
      5 N           2.1790    0.4750    0.0000 N.ar    1  LIG1       -0.2399
      6 C           1.2040    0.6880    0.0000 C.ar    1  LIG1        0.1742
      7 N           1.0960    1.6830    0.0000 N.ar    1  LIG1       -0.1282
      8 N           2.0080    2.0830    0.0000 N.ar    1  LIG1       -0.1251
      9 C           2.6830    1.3460    0.0000 C.ar    1  LIG1        0.2091
     10 N           3.4040   -0.8790    0.0000 N.ar    1  LIG1       -0.1093
     11 N           3.2960   -1.8670    0.0000 N.ar    1  LIG1       -0.1237
     12 C           2.3210   -2.0790    0.0000 C.ar    1  LIG1        0.2084
     13 S           0.0330   -1.5920    0.0000 S.2     1  LIG1       -0.0739
     14 C          -0.7830   -1.0040    0.0000 C.ar    1  LIG1        0.0048
     15 C          -0.4710   -0.0540    0.0000 C.ar    1  LIG1       -0.0153
     16 C          -1.1460    0.6880    0.0000 C.3     1  LIG1        0.0267
     17 C          -2.1210    0.4750    0.0000 C.3     1  LIG1        0.0050
     18 C          -2.4250   -0.4670    0.0000 C.3     1  LIG1        0.0052
     19 C          -1.7580   -1.2130    0.0000 C.3     1  LIG1        0.0327
     20 C          -3.4080   -0.6790    0.0000 C.3     1  LIG1        0.0004
@<TRIPOS>BOND
     1     1     2   ar
     2     1     6   ar
     3     1    15   ar
     4     2     3   ar
     5     2    13   ar
     6     3     4   ar
     7     3    12   ar
     8     4     5   ar
     9     4    10   ar
    10     5     6   ar
    11     5     9   ar
    12     6     7   ar
    13     7     8   ar
    14     8     9   ar
    15    10    11   ar
    16    11    12   ar
    17    13    14   ar
    18    14    15   ar
    19    14    19    1
    20    15    16    1
    21    16    17    1
    22    17    18    1
    23    18    19    1
    24    18    20    1
