@<TRIPOS>MOLECULE
34983_ChemDiv_C684-0011
 31 35 0 0 0
SMALL
GASTEIGER
Energy = 0

@<TRIPOS>ATOM
      1 C           3.3830    1.5000    0.0000 C.ar    1  LIG1        0.2591
      2 N           3.3750    2.5040    0.0000 N.ar    1  LIG1       -0.1774
      3 C           2.5130    3.0130    0.0000 C.ar    1  LIG1        0.1696
      4 C           1.6500    2.5040    0.0000 C.ar    1  LIG1        0.0522
      5 C           1.6500    1.5040    0.0000 C.ar    1  LIG1        0.0708
      6 N           2.5130    1.0000    0.0000 N.ar    1  LIG1       -0.2619
      7 C           2.7170    0.0210    0.0000 C.ar    1  LIG1        0.1482
      8 N           3.7170   -0.0880    0.0000 N.ar    1  LIG1       -0.1315
      9 N           4.1250    0.8330    0.0000 N.ar    1  LIG1       -0.1083
     10 C           2.0420   -0.7210    0.0000 C.3     1  LIG1        0.0668
     11 C           1.0750   -0.5080    0.0000 C.3     1  LIG1        0.0175
     12 C           0.4040   -1.2380    0.0000 C.3     1  LIG1        0.0857
     13 C          -0.5750   -1.0380    0.0000 C.2     1  LIG1        0.2256
     14 N          -1.2460   -1.7670    0.0000 N.am    1  LIG1       -0.2795
     15 C          -0.9290   -2.7170    0.0000 C.3     1  LIG1        0.0939
     16 C          -1.6040   -3.4630    0.0000 C.3     1  LIG1        0.0307
     17 C          -2.5830   -3.2500    0.0000 C.3     1  LIG1        0.0833
     18 C          -3.2500   -3.9920    0.0000 C.2     1  LIG1        0.2604
     19 O          -2.9500   -4.9420    0.0000 O.2     1  LIG1       -0.2717
     20 N          -4.2330   -3.7880    0.0000 N.am    1  LIG1       -0.0878
     21 C          -2.8920   -2.2960    0.0000 C.3     1  LIG1        0.0307
     22 C          -2.2210   -1.5540    0.0000 C.3     1  LIG1        0.0939
     23 O          -0.8830   -0.0830    0.0000 O.2     1  LIG1       -0.2749
     24 C           0.7880    1.0000    0.0000 C.ar    1  LIG1        0.0177
     25 C          -0.0750    1.5000    0.0000 C.ar    1  LIG1        0.0015
     26 C          -0.0750    2.5040    0.0000 C.ar    1  LIG1        0.0002
     27 C           0.7880    3.0000    0.0000 C.ar    1  LIG1        0.0045
     28 N           2.7210    3.9830    0.0000 N.ar    1  LIG1       -0.2100
     29 C           3.7210    4.0790    0.0000 C.ar    1  LIG1        0.1613
     30 N           4.1250    3.1670    0.0000 N.ar    1  LIG1       -0.1463
     31 C           4.2290    4.9420    0.0000 C.3     1  LIG1        0.0756
@<TRIPOS>BOND
     1     1     2   ar
     2     1     6   ar
     3     1     9   ar
     4     2     3   ar
     5     2    30   ar
     6     3     4   ar
     7     3    28   ar
     8     4     5   ar
     9     4    27   ar
    10     5     6   ar
    11     5    24   ar
    12     6     7   ar
    13     7     8   ar
    14     7    10    1
    15     8     9   ar
    16    10    11    1
    17    11    12    1
    18    12    13    1
    19    13    14   am
    20    13    23    2
    21    14    15    1
    22    14    22    1
    23    15    16    1
    24    16    17    1
    25    17    18    1
    26    17    21    1
    27    18    19    2
    28    18    20   am
    29    21    22    1
    30    24    25   ar
    31    25    26   ar
    32    26    27   ar
    33    28    29   ar
    34    29    30   ar
    35    29    31    1
