@<TRIPOS>MOLECULE
34984_ChemDiv_8017-5850
 29 34 0 0 0
SMALL
GASTEIGER
Energy = 0

@<TRIPOS>ATOM
      1 N          -1.6080    0.2460    0.0000 N.ar    1  LIG1       -0.2631
      2 C          -1.6000    1.2250    0.0000 C.ar    1  LIG1        0.2211
      3 N          -0.7540    1.7210    0.0000 N.ar    1  LIG1       -0.2645
      4 C           0.0920    1.2210    0.0000 C.ar    1  LIG1        0.2621
      5 C           0.0920    0.2460    0.0000 C.ar    1  LIG1        0.0703
      6 C          -0.7630   -0.2420    0.0000 C.ar    1  LIG1        0.1426
      7 N          -0.7670   -1.2170    0.0000 N.am    1  LIG1       -0.1618
      8 C           0.0670   -1.7130    0.0000 C.2     1  LIG1        0.2475
      9 C           0.9290   -1.2290    0.0000 C.3     1  LIG1        0.0962
     10 C           0.9330   -0.2500    0.0000 C.3     1  LIG1        0.0613
     11 C           1.7790    0.2330    0.0000 C.ar    1  LIG1       -0.0145
     12 C           2.6330   -0.2630    0.0000 C.ar    1  LIG1        0.0362
     13 C           3.4830    0.2210    0.0000 C.ar    1  LIG1        0.1761
     14 C           3.4830    1.2000    0.0000 C.ar    1  LIG1        0.1764
     15 O           4.4210    1.4960    0.0000 O.3     1  LIG1       -0.4346
     16 C           4.9920    0.7000    0.0000 C.3     1  LIG1        0.4294
     17 O           4.4080   -0.0880    0.0000 O.3     1  LIG1       -0.4346
     18 C           2.6420    1.6960    0.0000 C.ar    1  LIG1        0.0399
     19 C           1.7920    1.2080    0.0000 C.ar    1  LIG1       -0.0006
     20 O           0.0630   -2.6920    0.0000 O.2     1  LIG1       -0.2729
     21 O           0.9460    1.7080    0.0000 O.2     1  LIG1       -0.2671
     22 C          -0.7540    2.6960    0.0000 C.3     1  LIG1        0.1365
     23 N          -2.4500    1.7250    0.0000 N.ar    1  LIG1       -0.2109
     24 C          -3.3000    1.2330    0.0000 C.ar    1  LIG1        0.1005
     25 C          -3.3000    0.2460    0.0000 C.ar    1  LIG1        0.0855
     26 C          -4.1460   -0.2420    0.0000 C.ar    1  LIG1        0.0192
     27 C          -4.9960    0.2460    0.0000 C.ar    1  LIG1        0.0016
     28 C          -4.9960    1.2250    0.0000 C.ar    1  LIG1        0.0016
     29 C          -4.1460    1.7130    0.0000 C.ar    1  LIG1        0.0207
@<TRIPOS>BOND
     1     1     2   ar
     2     1     6   ar
     3     1    25   ar
     4     2     3   ar
     5     2    23   ar
     6     3     4   ar
     7     3    22    1
     8     4     5   ar
     9     4    21    2
    10     5     6   ar
    11     5    10    1
    12     6     7    1
    13     7     8   am
    14     8     9    1
    15     8    20    2
    16     9    10    1
    17    10    11    1
    18    11    12   ar
    19    11    19   ar
    20    12    13   ar
    21    13    14   ar
    22    13    17    1
    23    14    15    1
    24    14    18   ar
    25    15    16    1
    26    16    17    1
    27    18    19   ar
    28    23    24   ar
    29    24    25   ar
    30    24    29   ar
    31    25    26   ar
    32    26    27   ar
    33    27    28   ar
    34    28    29   ar
