@<TRIPOS>MOLECULE
34985_ChemDiv_C684-0031
 34 39 0 0 0
SMALL
GASTEIGER
Energy = 0

@<TRIPOS>ATOM
      1 C           3.7130    1.8790    0.0000 C.ar    1  LIG1        0.2591
      2 N           3.7040    2.8790    0.0000 N.ar    1  LIG1       -0.1774
      3 C           2.8460    3.3830    0.0000 C.ar    1  LIG1        0.1696
      4 C           1.9830    2.8790    0.0000 C.ar    1  LIG1        0.0522
      5 C           1.9710    1.8790    0.0000 C.ar    1  LIG1        0.0708
      6 N           2.8460    1.3790    0.0000 N.ar    1  LIG1       -0.2619
      7 C           3.0460    0.3960    0.0000 C.ar    1  LIG1        0.1482
      8 N           4.0460    0.2920    0.0000 N.ar    1  LIG1       -0.1315
      9 N           4.4540    1.2040    0.0000 N.ar    1  LIG1       -0.1083
     10 C           2.3750   -0.3420    0.0000 C.3     1  LIG1        0.0668
     11 C           1.3960   -0.1330    0.0000 C.3     1  LIG1        0.0175
     12 C           0.7250   -0.8670    0.0000 C.3     1  LIG1        0.0857
     13 C          -0.2500   -0.6540    0.0000 C.2     1  LIG1        0.2257
     14 N          -0.9170   -1.3880    0.0000 N.am    1  LIG1       -0.2760
     15 C          -1.9000   -1.1830    0.0000 C.3     1  LIG1        0.1149
     16 C          -2.5670   -1.9330    0.0000 C.3     1  LIG1        0.1137
     17 N          -2.2500   -2.8830    0.0000 N.pl3   1  LIG1       -0.2897
     18 C          -2.9130   -3.6250    0.0000 C.ar    1  LIG1        0.1318
     19 N          -2.6000   -4.5750    0.0000 N.ar    1  LIG1       -0.2292
     20 C          -3.2630   -5.3170    0.0000 C.ar    1  LIG1        0.1003
     21 C          -4.2460   -5.1080    0.0000 C.ar    1  LIG1        0.0208
     22 C          -4.5630   -4.1670    0.0000 C.ar    1  LIG1        0.0045
     23 C          -3.8960   -3.4130    0.0000 C.ar    1  LIG1        0.0343
     24 C          -1.2670   -3.0920    0.0000 C.3     1  LIG1        0.1137
     25 C          -0.6000   -2.3420    0.0000 C.3     1  LIG1        0.1149
     26 O          -0.5540    0.2920    0.0000 O.2     1  LIG1       -0.2749
     27 C           1.1080    1.3790    0.0000 C.ar    1  LIG1        0.0177
     28 C           0.2460    1.8790    0.0000 C.ar    1  LIG1        0.0015
     29 C           0.2460    2.8790    0.0000 C.ar    1  LIG1        0.0002
     30 C           1.1080    3.3790    0.0000 C.ar    1  LIG1        0.0045
     31 N           3.0540    4.3580    0.0000 N.ar    1  LIG1       -0.2100
     32 C           4.0540    4.4630    0.0000 C.ar    1  LIG1        0.1613
     33 N           4.4540    3.5460    0.0000 N.ar    1  LIG1       -0.1463
     34 C           4.5580    5.3170    0.0000 C.3     1  LIG1        0.0756
@<TRIPOS>BOND
     1     1     2   ar
     2     1     6   ar
     3     1     9   ar
     4     2     3   ar
     5     2    33   ar
     6     3     4   ar
     7     3    31   ar
     8     4     5   ar
     9     4    30   ar
    10     5     6   ar
    11     5    27   ar
    12     6     7   ar
    13     7     8   ar
    14     7    10    1
    15     8     9   ar
    16    10    11    1
    17    11    12    1
    18    12    13    1
    19    13    14   am
    20    13    26    2
    21    14    15    1
    22    14    25    1
    23    15    16    1
    24    16    17    1
    25    17    18    1
    26    17    24    1
    27    18    19   ar
    28    18    23   ar
    29    19    20   ar
    30    20    21   ar
    31    21    22   ar
    32    22    23   ar
    33    24    25    1
    34    27    28   ar
    35    28    29   ar
    36    29    30   ar
    37    31    32   ar
    38    32    33   ar
    39    32    34    1
