@<TRIPOS>MOLECULE
34987_ChemDiv_C684-0057
 36 40 0 0 0
SMALL
GASTEIGER
Energy = 0

@<TRIPOS>ATOM
      1 C           5.0000    1.2880    0.0000 C.ar    1  LIG1        0.2591
      2 N           4.9960    2.3000    0.0000 N.ar    1  LIG1       -0.1774
      3 C           4.1250    2.8040    0.0000 C.ar    1  LIG1        0.1696
      4 C           3.2630    2.3000    0.0000 C.ar    1  LIG1        0.0522
      5 C           3.2580    1.2960    0.0000 C.ar    1  LIG1        0.0708
      6 N           4.1250    0.7920    0.0000 N.ar    1  LIG1       -0.2619
      7 C           4.3290   -0.1880    0.0000 C.ar    1  LIG1        0.1482
      8 N           5.3330   -0.2960    0.0000 N.ar    1  LIG1       -0.1315
      9 N           5.7380    0.6250    0.0000 N.ar    1  LIG1       -0.1083
     10 C           3.6580   -0.9290    0.0000 C.3     1  LIG1        0.0668
     11 C           2.6880   -0.7170    0.0000 C.3     1  LIG1        0.0176
     12 C           2.0080   -1.4580    0.0000 C.3     1  LIG1        0.0873
     13 C           1.0330   -1.2460    0.0000 C.2     1  LIG1        0.2414
     14 O           0.7250   -0.2960    0.0000 O.2     1  LIG1       -0.2733
     15 N           0.3540   -1.9830    0.0000 N.am    1  LIG1       -0.2054
     16 C          -0.6290   -1.7750    0.0000 C.3     1  LIG1        0.1169
     17 C          -1.2920   -2.5210    0.0000 C.3     1  LIG1        0.0448
     18 C          -2.2630   -2.3000    0.0000 C.3     1  LIG1        0.0926
     19 N          -2.9380   -3.0500    0.0000 N.pl3   1  LIG1       -0.3074
     20 C          -3.9080   -2.8380    0.0000 C.ar    1  LIG1        0.0475
     21 C          -4.2040   -1.8960    0.0000 C.ar    1  LIG1        0.0103
     22 C          -5.1750   -1.6830    0.0000 C.ar    1  LIG1       -0.0206
     23 C          -5.8500   -2.4170    0.0000 C.ar    1  LIG1       -0.0042
     24 C          -5.5460   -3.3580    0.0000 C.ar    1  LIG1        0.0009
     25 C          -4.5790   -3.5670    0.0000 C.ar    1  LIG1        0.0145
     26 C          -5.4750   -0.7330    0.0000 C.3     1  LIG1        0.0311
     27 C          -2.6210   -4.0000    0.0000 C.3     1  LIG1        0.0908
     28 C          -3.3000   -4.7420    0.0000 C.3     1  LIG1        0.0232
     29 C           2.3880    0.7920    0.0000 C.ar    1  LIG1        0.0177
     30 C           1.5290    1.2880    0.0000 C.ar    1  LIG1        0.0015
     31 C           1.5290    2.2920    0.0000 C.ar    1  LIG1        0.0002
     32 C           2.3880    2.8000    0.0000 C.ar    1  LIG1        0.0045
     33 N           4.3380    3.7830    0.0000 N.ar    1  LIG1       -0.2100
     34 C           5.3420    3.8830    0.0000 C.ar    1  LIG1        0.1613
     35 N           5.7380    2.9630    0.0000 N.ar    1  LIG1       -0.1463
     36 C           5.8460    4.7420    0.0000 C.3     1  LIG1        0.0756
@<TRIPOS>BOND
     1     1     2   ar
     2     1     6   ar
     3     1     9   ar
     4     2     3   ar
     5     2    35   ar
     6     3     4   ar
     7     3    33   ar
     8     4     5   ar
     9     4    32   ar
    10     5     6   ar
    11     5    29   ar
    12     6     7   ar
    13     7     8   ar
    14     7    10    1
    15     8     9   ar
    16    10    11    1
    17    11    12    1
    18    12    13    1
    19    13    14    2
    20    13    15   am
    21    15    16    1
    22    16    17    1
    23    17    18    1
    24    18    19    1
    25    19    20    1
    26    19    27    1
    27    20    21   ar
    28    20    25   ar
    29    21    22   ar
    30    22    23   ar
    31    22    26    1
    32    23    24   ar
    33    24    25   ar
    34    27    28    1
    35    29    30   ar
    36    30    31   ar
    37    31    32   ar
    38    33    34   ar
    39    34    35   ar
    40    34    36    1
