@<TRIPOS>MOLECULE
34988_ChemDiv_8017-7686
 26 30 0 0 0
SMALL
GASTEIGER
Energy = 0

@<TRIPOS>ATOM
      1 N          -0.8460    0.2420    0.0000 N.ar    1  LIG1       -0.2631
      2 C          -0.8420    1.2210    0.0000 C.ar    1  LIG1        0.2211
      3 N          -0.0080    1.7080    0.0000 N.ar    1  LIG1       -0.2645
      4 C           0.8420    1.2170    0.0000 C.ar    1  LIG1        0.2621
      5 C           0.8380    0.2420    0.0000 C.ar    1  LIG1        0.0703
      6 C          -0.0080   -0.2420    0.0000 C.ar    1  LIG1        0.1426
      7 N          -0.0170   -1.2130    0.0000 N.am    1  LIG1       -0.1618
      8 C           0.8170   -1.7040    0.0000 C.2     1  LIG1        0.2475
      9 C           1.6670   -1.2290    0.0000 C.3     1  LIG1        0.0962
     10 C           1.6790   -0.2500    0.0000 C.3     1  LIG1        0.0612
     11 C           2.5290    0.2290    0.0000 C.ar    1  LIG1       -0.0177
     12 C           2.5290    1.2040    0.0000 C.ar    1  LIG1       -0.0039
     13 C           3.3750    1.6920    0.0000 C.ar    1  LIG1       -0.0003
     14 C           4.2250    1.1920    0.0000 C.ar    1  LIG1       -0.0000
     15 C           4.2170    0.2170    0.0000 C.ar    1  LIG1       -0.0003
     16 C           3.3670   -0.2630    0.0000 C.ar    1  LIG1       -0.0039
     17 O           0.8130   -2.6790    0.0000 O.2     1  LIG1       -0.2729
     18 O           1.6880    1.7040    0.0000 O.2     1  LIG1       -0.2671
     19 C          -0.0080    2.6830    0.0000 C.3     1  LIG1        0.1365
     20 N          -1.6920    1.7170    0.0000 N.ar    1  LIG1       -0.2109
     21 C          -2.5330    1.2210    0.0000 C.ar    1  LIG1        0.1005
     22 C          -2.5420    0.2420    0.0000 C.ar    1  LIG1        0.0855
     23 C          -3.3790   -0.2420    0.0000 C.ar    1  LIG1        0.0192
     24 C          -4.2290    0.2420    0.0000 C.ar    1  LIG1        0.0016
     25 C          -4.2290    1.2170    0.0000 C.ar    1  LIG1        0.0016
     26 C          -3.3830    1.7040    0.0000 C.ar    1  LIG1        0.0207
@<TRIPOS>BOND
     1     1     2   ar
     2     1     6   ar
     3     1    22   ar
     4     2     3   ar
     5     2    20   ar
     6     3     4   ar
     7     3    19    1
     8     4     5   ar
     9     4    18    2
    10     5     6   ar
    11     5    10    1
    12     6     7    1
    13     7     8   am
    14     8     9    1
    15     8    17    2
    16     9    10    1
    17    10    11    1
    18    11    12   ar
    19    11    16   ar
    20    12    13   ar
    21    13    14   ar
    22    14    15   ar
    23    15    16   ar
    24    20    21   ar
    25    21    22   ar
    26    21    26   ar
    27    22    23   ar
    28    23    24   ar
    29    24    25   ar
    30    25    26   ar
