@<TRIPOS>MOLECULE
34990_ChemDiv_8017-8713
 34 39 0 0 0
SMALL
GASTEIGER
Energy = 0

@<TRIPOS>ATOM
      1 N          -2.9880    0.0330    0.0000 N.ar    1  LIG1       -0.2631
      2 C          -2.9880    1.0130    0.0000 C.ar    1  LIG1        0.2211
      3 N          -2.1380    1.5080    0.0000 N.ar    1  LIG1       -0.2645
      4 C          -1.2880    1.0080    0.0000 C.ar    1  LIG1        0.2621
      5 C          -1.2880    0.0210    0.0000 C.ar    1  LIG1        0.0703
      6 C          -2.1420   -0.4670    0.0000 C.ar    1  LIG1        0.1426
      7 N          -2.1500   -1.4420    0.0000 N.am    1  LIG1       -0.1618
      8 C          -1.3040   -1.9420    0.0000 C.2     1  LIG1        0.2475
      9 C          -0.4500   -1.4580    0.0000 C.3     1  LIG1        0.0962
     10 C          -0.4380   -0.4710    0.0000 C.3     1  LIG1        0.0612
     11 C           0.4170    0.0170    0.0000 C.ar    1  LIG1       -0.0175
     12 C           0.4170    0.9960    0.0000 C.ar    1  LIG1       -0.0008
     13 C           1.2670    1.4830    0.0000 C.ar    1  LIG1        0.0366
     14 C           2.1250    0.9830    0.0000 C.ar    1  LIG1        0.1390
     15 O           2.9750    1.4710    0.0000 O.3     1  LIG1       -0.4706
     16 C           3.8250    0.9750    0.0000 C.3     1  LIG1        0.2320
     17 C           4.6750    1.4580    0.0000 C.ar    1  LIG1        0.0212
     18 C           5.5170    0.9630    0.0000 C.ar    1  LIG1       -0.0007
     19 C           6.3670    1.4460    0.0000 C.ar    1  LIG1       -0.0002
     20 C           6.3750    2.4330    0.0000 C.ar    1  LIG1       -0.0000
     21 C           5.5170    2.9250    0.0000 C.ar    1  LIG1       -0.0002
     22 C           4.6750    2.4380    0.0000 C.ar    1  LIG1       -0.0007
     23 C           2.1170    0.0000    0.0000 C.ar    1  LIG1        0.0366
     24 C           1.2630   -0.4830    0.0000 C.ar    1  LIG1       -0.0008
     25 O          -1.3130   -2.9210    0.0000 O.2     1  LIG1       -0.2729
     26 O          -0.4380    1.4960    0.0000 O.2     1  LIG1       -0.2671
     27 C          -2.1380    2.4830    0.0000 C.3     1  LIG1        0.1365
     28 N          -3.8380    1.5080    0.0000 N.ar    1  LIG1       -0.2109
     29 C          -4.6880    1.0130    0.0000 C.ar    1  LIG1        0.1005
     30 C          -4.6880    0.0330    0.0000 C.ar    1  LIG1        0.0855
     31 C          -5.5380   -0.4710    0.0000 C.ar    1  LIG1        0.0192
     32 C          -6.3750    0.0210    0.0000 C.ar    1  LIG1        0.0016
     33 C          -6.3750    1.0080    0.0000 C.ar    1  LIG1        0.0016
     34 C          -5.5380    1.5000    0.0000 C.ar    1  LIG1        0.0207
@<TRIPOS>BOND
     1     1     2   ar
     2     1     6   ar
     3     1    30   ar
     4     2     3   ar
     5     2    28   ar
     6     3     4   ar
     7     3    27    1
     8     4     5   ar
     9     4    26    2
    10     5     6   ar
    11     5    10    1
    12     6     7    1
    13     7     8   am
    14     8     9    1
    15     8    25    2
    16     9    10    1
    17    10    11    1
    18    11    12   ar
    19    11    24   ar
    20    12    13   ar
    21    13    14   ar
    22    14    15    1
    23    14    23   ar
    24    15    16    1
    25    16    17    1
    26    17    18   ar
    27    17    22   ar
    28    18    19   ar
    29    19    20   ar
    30    20    21   ar
    31    21    22   ar
    32    23    24   ar
    33    28    29   ar
    34    29    30   ar
    35    29    34   ar
    36    30    31   ar
    37    31    32   ar
    38    32    33   ar
    39    33    34   ar
