@<TRIPOS>MOLECULE
34997_ChemDiv_8016-5058
 26 29 0 0 0
SMALL
GASTEIGER
Energy = 0

@<TRIPOS>ATOM
      1 C          -0.0040   -1.4920    0.0000 C.ar    1  LIG1        0.0728
      2 C          -0.8710   -0.9920    0.0000 C.ar    1  LIG1        0.2601
      3 N          -1.7380   -1.4920    0.0000 N.ar    1  LIG1       -0.2936
      4 C          -1.7380   -2.5000    0.0000 C.ar    1  LIG1        0.0654
      5 C          -0.8710   -3.0000    0.0000 C.ar    1  LIG1        0.0504
      6 C          -0.0040   -2.4920    0.0000 C.ar    1  LIG1        0.1506
      7 O           0.8580   -3.0000    0.0000 O.3     1  LIG1       -0.4242
      8 C           1.7330   -2.5000    0.0000 C.2     1  LIG1        0.3221
      9 C           1.7330   -1.4920    0.0000 C.3     1  LIG1        0.1189
     10 C           0.8670   -0.9920    0.0000 C.3     1  LIG1        0.0634
     11 C           0.8670    0.0130    0.0000 C.ar    1  LIG1       -0.0174
     12 C           1.7330    0.5130    0.0000 C.ar    1  LIG1       -0.0008
     13 C           1.7330    1.5040    0.0000 C.ar    1  LIG1        0.0366
     14 C           0.8670    2.0040    0.0000 C.ar    1  LIG1        0.1385
     15 C          -0.0040    1.5000    0.0000 C.ar    1  LIG1        0.0366
     16 C           0.0000    0.5130    0.0000 C.ar    1  LIG1       -0.0008
     17 O           0.8670    3.0130    0.0000 O.3     1  LIG1       -0.4755
     18 C           1.7330    3.5130    0.0000 C.3     1  LIG1        0.2055
     19 C           1.7290    4.5000    0.0000 C.3     1  LIG1        0.0512
     20 O           2.5960   -3.0000    0.0000 O.2     1  LIG1       -0.2497
     21 C          -0.8710   -3.9920    0.0000 C.ar    1  LIG1        0.0045
     22 C          -1.7330   -4.5000    0.0000 C.ar    1  LIG1        0.0002
     23 C          -2.5960   -4.0000    0.0000 C.ar    1  LIG1        0.0015
     24 C          -2.6000   -3.0000    0.0000 C.ar    1  LIG1        0.0174
     25 C          -2.6000   -0.9920    0.0000 C.3     1  LIG1        0.1335
     26 O          -0.8750    0.0080    0.0000 O.2     1  LIG1       -0.2672
@<TRIPOS>BOND
     1     1     2   ar
     2     1     6   ar
     3     1    10    1
     4     2     3   ar
     5     2    26    2
     6     3     4   ar
     7     3    25    1
     8     4     5   ar
     9     4    24   ar
    10     5     6   ar
    11     5    21   ar
    12     6     7    1
    13     7     8    1
    14     8     9    1
    15     8    20    2
    16     9    10    1
    17    10    11    1
    18    11    12   ar
    19    11    16   ar
    20    12    13   ar
    21    13    14   ar
    22    14    15   ar
    23    14    17    1
    24    15    16   ar
    25    17    18    1
    26    18    19    1
    27    21    22   ar
    28    22    23   ar
    29    23    24   ar
