@<TRIPOS>MOLECULE
34993_ChemDiv_8016-5048
 33 37 0 0 0
SMALL
GASTEIGER
Energy = 0

@<TRIPOS>ATOM
      1 C          -0.4460   -2.4920    0.0000 C.ar    1  LIG1        0.0728
      2 C          -1.3080   -1.9920    0.0000 C.ar    1  LIG1        0.2601
      3 N          -2.1710   -2.4920    0.0000 N.ar    1  LIG1       -0.2936
      4 C          -2.1710   -3.4920    0.0000 C.ar    1  LIG1        0.0654
      5 C          -1.3080   -3.9920    0.0000 C.ar    1  LIG1        0.0504
      6 C          -0.4460   -3.4920    0.0000 C.ar    1  LIG1        0.1506
      7 O           0.4250   -3.9920    0.0000 O.3     1  LIG1       -0.4242
      8 C           1.2920   -3.4920    0.0000 C.2     1  LIG1        0.3221
      9 C           1.2920   -2.4920    0.0000 C.3     1  LIG1        0.1189
     10 C           0.4250   -1.9790    0.0000 C.3     1  LIG1        0.0635
     11 C           0.4250   -0.9790    0.0000 C.ar    1  LIG1       -0.0144
     12 C           1.2920   -0.4920    0.0000 C.ar    1  LIG1        0.0361
     13 C           1.2920    0.5130    0.0000 C.ar    1  LIG1        0.1721
     14 C           0.4290    1.0170    0.0000 C.ar    1  LIG1        0.1727
     15 O           0.4250    2.0210    0.0000 O.3     1  LIG1       -0.4676
     16 C           1.2920    2.5130    0.0000 C.3     1  LIG1        0.2321
     17 C           1.2920    3.5130    0.0000 C.ar    1  LIG1        0.0212
     18 C           2.1630    4.0040    0.0000 C.ar    1  LIG1       -0.0007
     19 C           2.1630    5.0000    0.0000 C.ar    1  LIG1       -0.0002
     20 C           1.2920    5.4920    0.0000 C.ar    1  LIG1       -0.0000
     21 C           0.4250    4.9920    0.0000 C.ar    1  LIG1       -0.0002
     22 C           0.4290    4.0000    0.0000 C.ar    1  LIG1       -0.0007
     23 C          -0.4460    0.5130    0.0000 C.ar    1  LIG1        0.0397
     24 C          -0.4330   -0.4920    0.0000 C.ar    1  LIG1       -0.0006
     25 O           2.1630    1.0170    0.0000 O.3     1  LIG1       -0.4684
     26 C           3.0290    0.5130    0.0000 C.3     1  LIG1        0.2526
     27 O           2.1630   -3.9920    0.0000 O.2     1  LIG1       -0.2497
     28 C          -1.3000   -4.9920    0.0000 C.ar    1  LIG1        0.0045
     29 C          -2.1580   -5.4920    0.0000 C.ar    1  LIG1        0.0002
     30 C          -3.0330   -5.0000    0.0000 C.ar    1  LIG1        0.0015
     31 C          -3.0330   -3.9920    0.0000 C.ar    1  LIG1        0.0174
     32 C          -3.0330   -1.9920    0.0000 C.3     1  LIG1        0.1335
     33 O          -1.3080   -0.9920    0.0000 O.2     1  LIG1       -0.2672
@<TRIPOS>BOND
     1     1     2   ar
     2     1     6   ar
     3     1    10    1
     4     2     3   ar
     5     2    33    2
     6     3     4   ar
     7     3    32    1
     8     4     5   ar
     9     4    31   ar
    10     5     6   ar
    11     5    28   ar
    12     6     7    1
    13     7     8    1
    14     8     9    1
    15     8    27    2
    16     9    10    1
    17    10    11    1
    18    11    12   ar
    19    11    24   ar
    20    12    13   ar
    21    13    14   ar
    22    13    25    1
    23    14    15    1
    24    14    23   ar
    25    15    16    1
    26    16    17    1
    27    17    18   ar
    28    17    22   ar
    29    18    19   ar
    30    19    20   ar
    31    20    21   ar
    32    21    22   ar
    33    23    24   ar
    34    25    26    1
    35    28    29   ar
    36    29    30   ar
    37    30    31   ar
