@<TRIPOS>MOLECULE
34995_ChemDiv_8016-5055
 27 30 0 0 0
SMALL
GASTEIGER
Energy = 0

@<TRIPOS>ATOM
      1 C          -0.4380   -0.9880    0.0000 C.ar    1  LIG1        0.0728
      2 C          -1.3080   -0.4880    0.0000 C.ar    1  LIG1        0.2601
      3 N          -2.1710   -0.9880    0.0000 N.ar    1  LIG1       -0.2936
      4 C          -2.1710   -1.9880    0.0000 C.ar    1  LIG1        0.0654
      5 C          -1.3080   -2.4960    0.0000 C.ar    1  LIG1        0.0504
      6 C          -0.4380   -1.9880    0.0000 C.ar    1  LIG1        0.1506
      7 O           0.4250   -2.4960    0.0000 O.3     1  LIG1       -0.4242
      8 C           1.2920   -1.9880    0.0000 C.2     1  LIG1        0.3221
      9 C           1.3000   -0.9880    0.0000 C.3     1  LIG1        0.1189
     10 C           0.4290   -0.4830    0.0000 C.3     1  LIG1        0.0635
     11 C           0.4290    0.5130    0.0000 C.ar    1  LIG1       -0.0144
     12 C           1.2920    1.0080    0.0000 C.ar    1  LIG1        0.0361
     13 C           1.2920    2.0000    0.0000 C.ar    1  LIG1        0.1721
     14 C           0.4290    2.5080    0.0000 C.ar    1  LIG1        0.1724
     15 C          -0.4380    2.0000    0.0000 C.ar    1  LIG1        0.0397
     16 C          -0.4380    1.0080    0.0000 C.ar    1  LIG1       -0.0006
     17 O           0.4290    3.5080    0.0000 O.3     1  LIG1       -0.4684
     18 C           1.2920    4.0000    0.0000 C.3     1  LIG1        0.2526
     19 O           2.1540    2.5080    0.0000 O.3     1  LIG1       -0.4684
     20 C           3.0290    2.0210    0.0000 C.3     1  LIG1        0.2526
     21 O           2.1630   -2.4960    0.0000 O.2     1  LIG1       -0.2497
     22 C          -1.3000   -3.4880    0.0000 C.ar    1  LIG1        0.0045
     23 C          -2.1630   -3.9960    0.0000 C.ar    1  LIG1        0.0002
     24 C          -3.0330   -3.4960    0.0000 C.ar    1  LIG1        0.0015
     25 C          -3.0330   -2.4960    0.0000 C.ar    1  LIG1        0.0174
     26 C          -3.0330   -0.4880    0.0000 C.3     1  LIG1        0.1335
     27 O          -1.3080    0.5080    0.0000 O.2     1  LIG1       -0.2672
@<TRIPOS>BOND
     1     1     2   ar
     2     1     6   ar
     3     1    10    1
     4     2     3   ar
     5     2    27    2
     6     3     4   ar
     7     3    26    1
     8     4     5   ar
     9     4    25   ar
    10     5     6   ar
    11     5    22   ar
    12     6     7    1
    13     7     8    1
    14     8     9    1
    15     8    21    2
    16     9    10    1
    17    10    11    1
    18    11    12   ar
    19    11    16   ar
    20    12    13   ar
    21    13    14   ar
    22    13    19    1
    23    14    15   ar
    24    14    17    1
    25    15    16   ar
    26    17    18    1
    27    19    20    1
    28    22    23   ar
    29    23    24   ar
    30    24    25   ar
