@<TRIPOS>MOLECULE
34999_ChemDiv_8016-5060
 26 30 0 0 0
SMALL
GASTEIGER
Energy = 0

@<TRIPOS>ATOM
      1 C          -0.0080   -0.7830    0.0000 C.ar    1  LIG1        0.0728
      2 C          -0.8710   -0.2830    0.0000 C.ar    1  LIG1        0.2601
      3 N          -1.7380   -0.7920    0.0000 N.ar    1  LIG1       -0.2936
      4 C          -1.7380   -1.7920    0.0000 C.ar    1  LIG1        0.0654
      5 C          -0.8710   -2.2920    0.0000 C.ar    1  LIG1        0.0504
      6 C          -0.0080   -1.7830    0.0000 C.ar    1  LIG1        0.1506
      7 O           0.8580   -2.2920    0.0000 O.3     1  LIG1       -0.4242
      8 C           1.7330   -1.7920    0.0000 C.2     1  LIG1        0.3221
      9 C           1.7330   -0.7830    0.0000 C.3     1  LIG1        0.1189
     10 C           0.8670   -0.2830    0.0000 C.3     1  LIG1        0.0635
     11 C           0.8670    0.7250    0.0000 C.ar    1  LIG1       -0.0144
     12 C           1.7330    1.2210    0.0000 C.ar    1  LIG1        0.0362
     13 C           1.7290    2.2130    0.0000 C.ar    1  LIG1        0.1761
     14 C           0.8670    2.7210    0.0000 C.ar    1  LIG1        0.1764
     15 O           1.0790    3.6960    0.0000 O.3     1  LIG1       -0.4346
     16 C           2.0710    3.7960    0.0000 C.3     1  LIG1        0.4294
     17 O           2.4710    2.8830    0.0000 O.3     1  LIG1       -0.4346
     18 C          -0.0080    2.2130    0.0000 C.ar    1  LIG1        0.0399
     19 C           0.0040    1.2210    0.0000 C.ar    1  LIG1       -0.0006
     20 O           2.5960   -2.2960    0.0000 O.2     1  LIG1       -0.2497
     21 C          -0.8710   -3.2830    0.0000 C.ar    1  LIG1        0.0045
     22 C          -1.7330   -3.7920    0.0000 C.ar    1  LIG1        0.0002
     23 C          -2.5960   -3.2920    0.0000 C.ar    1  LIG1        0.0015
     24 C          -2.6000   -2.2920    0.0000 C.ar    1  LIG1        0.0174
     25 C          -2.6000   -0.2830    0.0000 C.3     1  LIG1        0.1335
     26 O          -0.8750    0.7210    0.0000 O.2     1  LIG1       -0.2672
@<TRIPOS>BOND
     1     1     2   ar
     2     1     6   ar
     3     1    10    1
     4     2     3   ar
     5     2    26    2
     6     3     4   ar
     7     3    25    1
     8     4     5   ar
     9     4    24   ar
    10     5     6   ar
    11     5    21   ar
    12     6     7    1
    13     7     8    1
    14     8     9    1
    15     8    20    2
    16     9    10    1
    17    10    11    1
    18    11    12   ar
    19    11    19   ar
    20    12    13   ar
    21    13    14   ar
    22    13    17    1
    23    14    15    1
    24    14    18   ar
    25    15    16    1
    26    16    17    1
    27    18    19   ar
    28    21    22   ar
    29    22    23   ar
    30    23    24   ar
