@<TRIPOS>MOLECULE
34996_ChemDiv_8016-8337
 19 21 0 0 0
SMALL
GASTEIGER
Energy = 0

@<TRIPOS>ATOM
      1 C          -1.3040   -0.7210    0.0000 C.ar    1  LIG1        0.1584
      2 C          -1.3040    0.2710    0.0000 C.ar    1  LIG1        0.0961
      3 N          -0.4290    0.7830    0.0000 N.am    1  LIG1       -0.1737
      4 C           0.4250    0.2710    0.0000 C.2     1  LIG1        0.2712
      5 C           1.3000    0.7670    0.0000 C.ar    1  LIG1        0.0828
      6 C           2.1580    0.2880    0.0000 C.ar    1  LIG1        0.1445
      7 F           2.1580   -0.7290    0.0000 F       1  LIG1       -0.2040
      8 C           3.0330    0.7960    0.0000 C.ar    1  LIG1        0.0298
      9 C           3.0420    1.7830    0.0000 C.ar    1  LIG1        0.0023
     10 C           2.1500    2.2920    0.0000 C.ar    1  LIG1        0.0003
     11 C           1.2920    1.7750    0.0000 C.ar    1  LIG1        0.0068
     12 O           0.4250   -0.7080    0.0000 O.2     1  LIG1       -0.2679
     13 C          -2.1710    0.7830    0.0000 C.ar    1  LIG1        0.0183
     14 C          -3.0460    0.2710    0.0000 C.ar    1  LIG1        0.0031
     15 C          -3.0460   -0.7210    0.0000 C.ar    1  LIG1        0.0242
     16 C          -2.1710   -1.2250    0.0000 C.ar    1  LIG1        0.1445
     17 N          -1.9710   -2.1960    0.0000 N.ar    1  LIG1       -0.0482
     18 O          -0.9750   -2.2880    0.0000 O.2     1  LIG1       -0.2415
     19 N          -0.5710   -1.3960    0.0000 N.ar    1  LIG1       -0.0469
@<TRIPOS>BOND
     1     1     2   ar
     2     1    16   ar
     3     1    19   ar
     4     2     3    1
     5     2    13   ar
     6     3     4   am
     7     4     5    1
     8     4    12    2
     9     5     6   ar
    10     5    11   ar
    11     6     7    1
    12     6     8   ar
    13     8     9   ar
    14     9    10   ar
    15    10    11   ar
    16    13    14   ar
    17    14    15   ar
    18    15    16   ar
    19    16    17   ar
    20    17    18   ar
    21    18    19   ar
