@<TRIPOS>MOLECULE
34998_ChemDiv_8017-0397
 20 22 0 0 0
SMALL
GASTEIGER
Energy = 0

@<TRIPOS>ATOM
      1 C           2.2460    0.1000    0.0000 C.ar    1  LIG1        0.1584
      2 C           1.7460   -0.7710    0.0000 C.ar    1  LIG1        0.0961
      3 N           0.7460   -0.7710    0.0000 N.am    1  LIG1       -0.1738
      4 C           0.2460    0.1000    0.0000 C.2     1  LIG1        0.2691
      5 C          -0.7580    0.1000    0.0000 C.ar    1  LIG1        0.0584
      6 C          -1.2580   -0.7710    0.0000 C.ar    1  LIG1        0.0415
      7 C          -2.2580   -0.7710    0.0000 C.ar    1  LIG1        0.1389
      8 O          -2.7580   -1.6330    0.0000 O.3     1  LIG1       -0.4714
      9 C          -3.7580   -1.6330    0.0000 C.3     1  LIG1        0.2525
     10 C          -2.7500    0.1000    0.0000 C.ar    1  LIG1        0.0369
     11 C          -2.2580    0.9630    0.0000 C.ar    1  LIG1        0.0033
     12 C          -1.2580    0.9630    0.0000 C.ar    1  LIG1        0.0048
     13 O           0.7460    0.9710    0.0000 O.2     1  LIG1       -0.2680
     14 C           2.2460   -1.6330    0.0000 C.ar    1  LIG1        0.0183
     15 C           3.2540   -1.6330    0.0000 C.ar    1  LIG1        0.0031
     16 C           3.7540   -0.7710    0.0000 C.ar    1  LIG1        0.0242
     17 C           3.2460    0.1000    0.0000 C.ar    1  LIG1        0.1445
     18 N           3.5580    1.0500    0.0000 N.ar    1  LIG1       -0.0482
     19 O           2.7460    1.6380    0.0000 O.2     1  LIG1       -0.2415
     20 N           1.9420    1.0500    0.0000 N.ar    1  LIG1       -0.0469
@<TRIPOS>BOND
     1     1     2   ar
     2     1    17   ar
     3     1    20   ar
     4     2     3    1
     5     2    14   ar
     6     3     4   am
     7     4     5    1
     8     4    13    2
     9     5     6   ar
    10     5    12   ar
    11     6     7   ar
    12     7     8    1
    13     7    10   ar
    14     8     9    1
    15    10    11   ar
    16    11    12   ar
    17    14    15   ar
    18    15    16   ar
    19    16    17   ar
    20    17    18   ar
    21    18    19   ar
    22    19    20   ar
