@<TRIPOS>MOLECULE
35006_ChemDiv_8017-1555
 19 21 0 0 0
SMALL
GASTEIGER
Energy = 0

@<TRIPOS>ATOM
      1 C           1.7420    0.5330    0.0000 C.ar    1  LIG1        0.1583
      2 C           1.2420   -0.3380    0.0000 C.ar    1  LIG1        0.0958
      3 N           0.2460   -0.3380    0.0000 N.am    1  LIG1       -0.1772
      4 C          -0.2540    0.5330    0.0000 C.2     1  LIG1        0.2500
      5 O           0.2460    1.3960    0.0000 O.2     1  LIG1       -0.2726
      6 C          -1.2540    0.5330    0.0000 C.3     1  LIG1        0.1135
      7 C          -1.7540   -0.3290    0.0000 C.ar    1  LIG1       -0.0130
      8 C          -2.7540   -0.3290    0.0000 C.ar    1  LIG1       -0.0038
      9 C          -3.2460   -1.2000    0.0000 C.ar    1  LIG1       -0.0003
     10 C          -2.7540   -2.0670    0.0000 C.ar    1  LIG1       -0.0000
     11 C          -1.7540   -2.0670    0.0000 C.ar    1  LIG1       -0.0003
     12 C          -1.2540   -1.2000    0.0000 C.ar    1  LIG1       -0.0038
     13 C           1.7420   -1.2000    0.0000 C.ar    1  LIG1        0.0183
     14 C           2.7500   -1.2000    0.0000 C.ar    1  LIG1        0.0031
     15 C           3.2420   -0.3380    0.0000 C.ar    1  LIG1        0.0242
     16 C           2.7420    0.5330    0.0000 C.ar    1  LIG1        0.1445
     17 N           3.0540    1.4830    0.0000 N.ar    1  LIG1       -0.0482
     18 O           2.2420    2.0710    0.0000 O.2     1  LIG1       -0.2415
     19 N           1.4380    1.4830    0.0000 N.ar    1  LIG1       -0.0469
@<TRIPOS>BOND
     1     1     2   ar
     2     1    16   ar
     3     1    19   ar
     4     2     3    1
     5     2    13   ar
     6     3     4   am
     7     4     5    2
     8     4     6    1
     9     6     7    1
    10     7     8   ar
    11     7    12   ar
    12     8     9   ar
    13     9    10   ar
    14    10    11   ar
    15    11    12   ar
    16    13    14   ar
    17    14    15   ar
    18    15    16   ar
    19    16    17   ar
    20    17    18   ar
    21    18    19   ar
