@<TRIPOS>MOLECULE
35001_ChemDiv_8016-5187
 27 30 0 0 0
SMALL
GASTEIGER
Energy = 0

@<TRIPOS>ATOM
      1 C          -0.0040   -0.9920    0.0000 C.ar    1  LIG1        0.0728
      2 C          -0.8710   -0.4920    0.0000 C.ar    1  LIG1        0.2601
      3 N          -1.7380   -0.9920    0.0000 N.ar    1  LIG1       -0.2936
      4 C          -1.7380   -1.9920    0.0000 C.ar    1  LIG1        0.0654
      5 C          -0.8710   -2.5000    0.0000 C.ar    1  LIG1        0.0504
      6 C          -0.0040   -1.9920    0.0000 C.ar    1  LIG1        0.1506
      7 O           0.8580   -2.5000    0.0000 O.3     1  LIG1       -0.4242
      8 C           1.7330   -1.9920    0.0000 C.2     1  LIG1        0.3221
      9 C           1.7330   -0.9920    0.0000 C.3     1  LIG1        0.1189
     10 C           0.8670   -0.4880    0.0000 C.3     1  LIG1        0.0634
     11 C           0.8670    0.5130    0.0000 C.ar    1  LIG1       -0.0176
     12 C           0.0000    1.0080    0.0000 C.ar    1  LIG1       -0.0043
     13 C          -0.0040    2.0040    0.0000 C.ar    1  LIG1       -0.0046
     14 C           0.8670    2.5130    0.0000 C.ar    1  LIG1       -0.0228
     15 C           0.8670    3.5130    0.0000 C.3     1  LIG1        0.0189
     16 C           1.7330    4.0000    0.0000 C.3     1  LIG1        0.0044
     17 C          -0.0040    4.0000    0.0000 C.3     1  LIG1        0.0044
     18 C           1.8290    3.2500    0.0000 C.3     1  LIG1        0.0044
     19 C           1.7330    2.0040    0.0000 C.ar    1  LIG1       -0.0046
     20 C           1.7330    1.0080    0.0000 C.ar    1  LIG1       -0.0043
     21 O           2.5960   -2.5000    0.0000 O.2     1  LIG1       -0.2497
     22 C          -0.8710   -3.4920    0.0000 C.ar    1  LIG1        0.0045
     23 C          -1.7330   -4.0000    0.0000 C.ar    1  LIG1        0.0002
     24 C          -2.5960   -3.5000    0.0000 C.ar    1  LIG1        0.0015
     25 C          -2.6000   -2.5000    0.0000 C.ar    1  LIG1        0.0174
     26 C          -2.6000   -0.4920    0.0000 C.3     1  LIG1        0.1335
     27 O          -0.8750    0.5080    0.0000 O.2     1  LIG1       -0.2672
@<TRIPOS>BOND
     1     1     2   ar
     2     1     6   ar
     3     1    10    1
     4     2     3   ar
     5     2    27    2
     6     3     4   ar
     7     3    26    1
     8     4     5   ar
     9     4    25   ar
    10     5     6   ar
    11     5    22   ar
    12     6     7    1
    13     7     8    1
    14     8     9    1
    15     8    21    2
    16     9    10    1
    17    10    11    1
    18    11    12   ar
    19    11    20   ar
    20    12    13   ar
    21    13    14   ar
    22    14    15    1
    23    14    19   ar
    24    15    16    1
    25    15    17    1
    26    15    18    1
    27    19    20   ar
    28    22    23   ar
    29    23    24   ar
    30    24    25   ar
