@<TRIPOS>MOLECULE
35003_ChemDiv_8017-1205
 32 36 0 0 0
SMALL
GASTEIGER
Energy = 0

@<TRIPOS>ATOM
      1 C          -0.4330   -2.4880    0.0000 C.ar    1  LIG1        0.0728
      2 C          -1.2960   -1.9920    0.0000 C.ar    1  LIG1        0.2601
      3 N          -2.1580   -2.4880    0.0000 N.ar    1  LIG1       -0.2936
      4 C          -2.1670   -3.4960    0.0000 C.ar    1  LIG1        0.0654
      5 C          -1.2960   -3.9960    0.0000 C.ar    1  LIG1        0.0504
      6 C          -0.4330   -3.4880    0.0000 C.ar    1  LIG1        0.1506
      7 O           0.4290   -3.9880    0.0000 O.3     1  LIG1       -0.4242
      8 C           1.3000   -3.4880    0.0000 C.2     1  LIG1        0.3221
      9 C           1.3080   -2.4880    0.0000 C.3     1  LIG1        0.1189
     10 C           0.4290   -1.9830    0.0000 C.3     1  LIG1        0.0634
     11 C           0.4290   -0.9830    0.0000 C.ar    1  LIG1       -0.0174
     12 C          -0.4330   -0.4920    0.0000 C.ar    1  LIG1       -0.0008
     13 C          -0.4330    0.5080    0.0000 C.ar    1  LIG1        0.0366
     14 C           0.4380    1.0080    0.0000 C.ar    1  LIG1        0.1390
     15 O           0.4290    2.0080    0.0000 O.3     1  LIG1       -0.4706
     16 C           1.3000    2.5080    0.0000 C.3     1  LIG1        0.2342
     17 C           1.3000    3.5080    0.0000 C.ar    1  LIG1        0.0486
     18 C           2.1670    4.0000    0.0000 C.ar    1  LIG1        0.1396
     19 F           3.0250    3.5080    0.0000 F       1  LIG1       -0.2044
     20 C           2.1670    4.9880    0.0000 C.ar    1  LIG1        0.0294
     21 C           1.3000    5.4880    0.0000 C.ar    1  LIG1        0.0023
     22 C           0.4290    4.9880    0.0000 C.ar    1  LIG1       -0.0001
     23 C           0.4290    3.9960    0.0000 C.ar    1  LIG1        0.0016
     24 C           1.3000    0.5080    0.0000 C.ar    1  LIG1        0.0366
     25 C           1.3000   -0.4920    0.0000 C.ar    1  LIG1       -0.0008
     26 O           2.1670   -3.9960    0.0000 O.2     1  LIG1       -0.2497
     27 C          -1.2960   -4.9880    0.0000 C.ar    1  LIG1        0.0045
     28 C          -2.1540   -5.4880    0.0000 C.ar    1  LIG1        0.0002
     29 C          -3.0290   -4.9960    0.0000 C.ar    1  LIG1        0.0015
     30 C          -3.0290   -3.9960    0.0000 C.ar    1  LIG1        0.0174
     31 C          -3.0290   -1.9920    0.0000 C.3     1  LIG1        0.1335
     32 O          -1.3040   -0.9920    0.0000 O.2     1  LIG1       -0.2672
@<TRIPOS>BOND
     1     1     2   ar
     2     1     6   ar
     3     1    10    1
     4     2     3   ar
     5     2    32    2
     6     3     4   ar
     7     3    31    1
     8     4     5   ar
     9     4    30   ar
    10     5     6   ar
    11     5    27   ar
    12     6     7    1
    13     7     8    1
    14     8     9    1
    15     8    26    2
    16     9    10    1
    17    10    11    1
    18    11    12   ar
    19    11    25   ar
    20    12    13   ar
    21    13    14   ar
    22    14    15    1
    23    14    24   ar
    24    15    16    1
    25    16    17    1
    26    17    18   ar
    27    17    23   ar
    28    18    19    1
    29    18    20   ar
    30    20    21   ar
    31    21    22   ar
    32    22    23   ar
    33    24    25   ar
    34    27    28   ar
    35    28    29   ar
    36    29    30   ar
