@<TRIPOS>MOLECULE
35004_ChemDiv_8017-1553
 19 21 0 0 0
SMALL
GASTEIGER
Energy = 0

@<TRIPOS>ATOM
      1 C           2.2460    0.1000    0.0000 C.ar    1  LIG1        0.1584
      2 C           1.7460   -0.7710    0.0000 C.ar    1  LIG1        0.0961
      3 N           0.7460   -0.7710    0.0000 N.am    1  LIG1       -0.1738
      4 C           0.2460    0.1000    0.0000 C.2     1  LIG1        0.2690
      5 C          -0.7580    0.1000    0.0000 C.ar    1  LIG1        0.0554
      6 C          -1.2580    0.9630    0.0000 C.ar    1  LIG1        0.0051
      7 C          -2.2580    0.9630    0.0000 C.ar    1  LIG1        0.0068
      8 C          -2.7580    0.1000    0.0000 C.ar    1  LIG1        0.0346
      9 C          -2.2580   -0.7710    0.0000 C.ar    1  LIG1        0.0068
     10 C          -1.2580   -0.7710    0.0000 C.ar    1  LIG1        0.0051
     11 BR         -3.7500    0.1000    0.0000 Br      1  LIG1       -0.0490
     12 O           0.7460    0.9710    0.0000 O.2     1  LIG1       -0.2680
     13 C           2.2460   -1.6330    0.0000 C.ar    1  LIG1        0.0183
     14 C           3.2460   -1.6330    0.0000 C.ar    1  LIG1        0.0031
     15 C           3.7460   -0.7710    0.0000 C.ar    1  LIG1        0.0242
     16 C           3.2460    0.1000    0.0000 C.ar    1  LIG1        0.1445
     17 N           3.5580    1.0500    0.0000 N.ar    1  LIG1       -0.0482
     18 O           2.7460    1.6380    0.0000 O.2     1  LIG1       -0.2415
     19 N           1.9420    1.0500    0.0000 N.ar    1  LIG1       -0.0469
@<TRIPOS>BOND
     1     1     2   ar
     2     1    16   ar
     3     1    19   ar
     4     2     3    1
     5     2    13   ar
     6     3     4   am
     7     4     5    1
     8     4    12    2
     9     5     6   ar
    10     5    10   ar
    11     6     7   ar
    12     7     8   ar
    13     8     9   ar
    14     8    11    1
    15     9    10   ar
    16    13    14   ar
    17    14    15   ar
    18    15    16   ar
    19    16    17   ar
    20    17    18   ar
    21    18    19   ar
