@<TRIPOS>MOLECULE
35000_ChemDiv_8017-1285
 17 19 0 0 0
SMALL
GASTEIGER
Energy = 0

@<TRIPOS>ATOM
      1 C           1.5170    0.1000    0.0000 C.ar    1  LIG1        0.1584
      2 C           1.0170   -0.7710    0.0000 C.ar    1  LIG1        0.0962
      3 N           0.0170   -0.7710    0.0000 N.am    1  LIG1       -0.1712
      4 C          -0.4830    0.1000    0.0000 C.2     1  LIG1        0.3037
      5 C          -1.4830    0.1000    0.0000 C.ar    1  LIG1        0.2005
      6 O          -2.0710   -0.7080    0.0000 O.2     1  LIG1       -0.4457
      7 C          -3.0210   -0.4040    0.0000 C.ar    1  LIG1        0.1798
      8 C          -3.0210    0.6000    0.0000 C.ar    1  LIG1        0.0440
      9 C          -2.0710    0.9080    0.0000 C.ar    1  LIG1        0.0455
     10 O           0.0170    0.9710    0.0000 O.2     1  LIG1       -0.2646
     11 C           1.5170   -1.6330    0.0000 C.ar    1  LIG1        0.0184
     12 C           2.5170   -1.6330    0.0000 C.ar    1  LIG1        0.0031
     13 C           3.0170   -0.7710    0.0000 C.ar    1  LIG1        0.0242
     14 C           2.5170    0.1000    0.0000 C.ar    1  LIG1        0.1445
     15 N           2.8250    1.0500    0.0000 N.ar    1  LIG1       -0.0482
     16 O           2.0170    1.6380    0.0000 O.2     1  LIG1       -0.2415
     17 N           1.2040    1.0500    0.0000 N.ar    1  LIG1       -0.0469
@<TRIPOS>BOND
     1     1     2   ar
     2     1    14   ar
     3     1    17   ar
     4     2     3    1
     5     2    11   ar
     6     3     4   am
     7     4     5    1
     8     4    10    2
     9     5     6   ar
    10     5     9   ar
    11     6     7   ar
    12     7     8   ar
    13     8     9   ar
    14    11    12   ar
    15    12    13   ar
    16    13    14   ar
    17    14    15   ar
    18    15    16   ar
    19    16    17   ar
