@<TRIPOS>MOLECULE
35008_ChemDiv_8017-5223
 19 21 0 0 0
SMALL
GASTEIGER
Energy = 0

@<TRIPOS>ATOM
      1 C           1.7420    0.0960    0.0000 C.ar    1  LIG1        0.1584
      2 C           1.2460   -0.7710    0.0000 C.ar    1  LIG1        0.0961
      3 N           0.2460   -0.7710    0.0000 N.am    1  LIG1       -0.1738
      4 C          -0.2540    0.0960    0.0000 C.2     1  LIG1        0.2690
      5 C          -1.2540    0.0960    0.0000 C.ar    1  LIG1        0.0559
      6 C          -1.7540   -0.7710    0.0000 C.ar    1  LIG1        0.0113
      7 C          -2.7540   -0.7710    0.0000 C.ar    1  LIG1        0.0347
      8 BR         -3.2540   -1.6290    0.0000 Br      1  LIG1       -0.0490
      9 C          -3.2540    0.0960    0.0000 C.ar    1  LIG1        0.0067
     10 C          -2.7540    0.9580    0.0000 C.ar    1  LIG1        0.0007
     11 C          -1.7540    0.9580    0.0000 C.ar    1  LIG1        0.0046
     12 O           0.2460    0.9670    0.0000 O.2     1  LIG1       -0.2680
     13 C           1.7420   -1.6290    0.0000 C.ar    1  LIG1        0.0183
     14 C           2.7500   -1.6290    0.0000 C.ar    1  LIG1        0.0031
     15 C           3.2500   -0.7710    0.0000 C.ar    1  LIG1        0.0242
     16 C           2.7420    0.0960    0.0000 C.ar    1  LIG1        0.1445
     17 N           3.0580    1.0460    0.0000 N.ar    1  LIG1       -0.0482
     18 O           2.2420    1.6330    0.0000 O.2     1  LIG1       -0.2415
     19 N           1.4420    1.0460    0.0000 N.ar    1  LIG1       -0.0469
@<TRIPOS>BOND
     1     1     2   ar
     2     1    16   ar
     3     1    19   ar
     4     2     3    1
     5     2    13   ar
     6     3     4   am
     7     4     5    1
     8     4    12    2
     9     5     6   ar
    10     5    11   ar
    11     6     7   ar
    12     7     8    1
    13     7     9   ar
    14     9    10   ar
    15    10    11   ar
    16    13    14   ar
    17    14    15   ar
    18    15    16   ar
    19    16    17   ar
    20    17    18   ar
    21    18    19   ar
