@<TRIPOS>MOLECULE
35017_ChemDiv_8016-2644
 26 30 0 0 0
SMALL
GASTEIGER
Energy = 0

@<TRIPOS>ATOM
      1 C          -1.9040    0.2000    0.0000 C.ar    1  LIG1        0.0402
      2 C          -2.6830   -0.4290    0.0000 C.2     1  LIG1        0.1956
      3 C          -3.5210    0.1250    0.0000 C.ar    1  LIG1        0.0390
      4 C          -3.2540    1.0880    0.0000 C.ar    1  LIG1        0.0032
      5 C          -2.2540    1.1380    0.0000 C.ar    1  LIG1        0.0033
      6 C          -1.6210    1.9080    0.0000 C.ar    1  LIG1        0.0014
      7 C          -0.6420    1.7460    0.0000 C.ar    1  LIG1        0.0166
      8 C          -0.2880    0.8080    0.0000 C.ar    1  LIG1        0.0738
      9 N           0.6750    0.5580    0.0000 N.am    1  LIG1       -0.1754
     10 C           0.9290   -0.4170    0.0000 C.2     1  LIG1        0.2691
     11 C           1.8920   -0.6790    0.0000 C.ar    1  LIG1        0.0586
     12 C           2.6040    0.0330    0.0000 C.ar    1  LIG1        0.0448
     13 C           3.5670   -0.2290    0.0000 C.ar    1  LIG1        0.1766
     14 C           3.8250   -1.2000    0.0000 C.ar    1  LIG1        0.1764
     15 O           4.8290   -1.2500    0.0000 O.3     1  LIG1       -0.4346
     16 C           5.1880   -0.3130    0.0000 C.3     1  LIG1        0.4294
     17 O           4.4040    0.3130    0.0000 O.3     1  LIG1       -0.4346
     18 C           3.1170   -1.9040    0.0000 C.ar    1  LIG1        0.0403
     19 C           2.1540   -1.6420    0.0000 C.ar    1  LIG1        0.0079
     20 O           0.2290   -1.1170    0.0000 O.2     1  LIG1       -0.2680
     21 C          -0.9170    0.0380    0.0000 C.ar    1  LIG1        0.0198
     22 C          -3.9420    1.8000    0.0000 C.ar    1  LIG1        0.0001
     23 C          -4.9170    1.5500    0.0000 C.ar    1  LIG1        0.0000
     24 C          -5.1920    0.5830    0.0000 C.ar    1  LIG1        0.0001
     25 C          -4.4830   -0.1250    0.0000 C.ar    1  LIG1        0.0032
     26 O          -2.6330   -1.4290    0.0000 O.2     1  LIG1       -0.2866
@<TRIPOS>BOND
     1     1     2    1
     2     1     5   ar
     3     1    21   ar
     4     2     3    1
     5     2    26    2
     6     3     4   ar
     7     3    25   ar
     8     4     5    1
     9     4    22   ar
    10     5     6   ar
    11     6     7   ar
    12     7     8   ar
    13     8     9    1
    14     8    21   ar
    15     9    10   am
    16    10    11    1
    17    10    20    2
    18    11    12   ar
    19    11    19   ar
    20    12    13   ar
    21    13    14   ar
    22    13    17    1
    23    14    15    1
    24    14    18   ar
    25    15    16    1
    26    16    17    1
    27    18    19   ar
    28    22    23   ar
    29    23    24   ar
    30    24    25   ar
