@<TRIPOS>MOLECULE
35012_ChemDiv_8017-8718
 28 32 0 0 0
SMALL
GASTEIGER
Energy = 0

@<TRIPOS>ATOM
      1 N          -0.8460    0.2420    0.0000 N.ar    1  LIG1       -0.2631
      2 C          -0.8460    1.2210    0.0000 C.ar    1  LIG1        0.2211
      3 N          -0.0080    1.7170    0.0000 N.ar    1  LIG1       -0.2645
      4 C           0.8420    1.2170    0.0000 C.ar    1  LIG1        0.2621
      5 C           0.8420    0.2420    0.0000 C.ar    1  LIG1        0.0704
      6 C          -0.0080   -0.2420    0.0000 C.ar    1  LIG1        0.1426
      7 N          -0.0170   -1.2130    0.0000 N.am    1  LIG1       -0.1618
      8 C           0.8170   -1.7130    0.0000 C.2     1  LIG1        0.2475
      9 C           1.6750   -1.2290    0.0000 C.3     1  LIG1        0.0963
     10 C           1.6790   -0.2540    0.0000 C.3     1  LIG1        0.0641
     11 C           2.5290    0.2290    0.0000 C.ar    1  LIG1        0.0163
     12 C           3.3750   -0.2630    0.0000 C.ar    1  LIG1        0.1350
     13 O           3.3670   -1.2290    0.0000 O.3     1  LIG1       -0.4717
     14 C           2.5170   -1.7170    0.0000 C.3     1  LIG1        0.2525
     15 C           4.2250    0.2170    0.0000 C.ar    1  LIG1        0.0366
     16 C           4.2290    1.1960    0.0000 C.ar    1  LIG1        0.0031
     17 C           3.3790    1.6920    0.0000 C.ar    1  LIG1       -0.0001
     18 C           2.5380    1.2040    0.0000 C.ar    1  LIG1       -0.0009
     19 O           0.8170   -2.6880    0.0000 O.2     1  LIG1       -0.2729
     20 O           1.6920    1.7040    0.0000 O.2     1  LIG1       -0.2671
     21 C          -0.0080    2.6920    0.0000 C.3     1  LIG1        0.1365
     22 N          -1.6960    1.7210    0.0000 N.ar    1  LIG1       -0.2109
     23 C          -2.5420    1.2290    0.0000 C.ar    1  LIG1        0.1005
     24 C          -2.5420    0.2420    0.0000 C.ar    1  LIG1        0.0855
     25 C          -3.3830   -0.2420    0.0000 C.ar    1  LIG1        0.0192
     26 C          -4.2330    0.2420    0.0000 C.ar    1  LIG1        0.0016
     27 C          -4.2290    1.2210    0.0000 C.ar    1  LIG1        0.0016
     28 C          -3.3920    1.7080    0.0000 C.ar    1  LIG1        0.0207
@<TRIPOS>BOND
     1     1     2   ar
     2     1     6   ar
     3     1    24   ar
     4     2     3   ar
     5     2    22   ar
     6     3     4   ar
     7     3    21    1
     8     4     5   ar
     9     4    20    2
    10     5     6   ar
    11     5    10    1
    12     6     7    1
    13     7     8   am
    14     8     9    1
    15     8    19    2
    16     9    10    1
    17    10    11    1
    18    11    12   ar
    19    11    18   ar
    20    12    13    1
    21    12    15   ar
    22    13    14    1
    23    15    16   ar
    24    16    17   ar
    25    17    18   ar
    26    22    23   ar
    27    23    24   ar
    28    23    28   ar
    29    24    25   ar
    30    25    26   ar
    31    26    27   ar
    32    27    28   ar
