@<TRIPOS>MOLECULE
35014_ChemDiv_8018-0180
 24 27 0 0 0
SMALL
GASTEIGER
Energy = 0

@<TRIPOS>ATOM
      1 C          -0.5420   -0.3670    0.0000 C.ar    1  LIG1        0.0700
      2 C          -1.0420   -1.2380    0.0000 C.ar    1  LIG1        0.1400
      3 N          -2.0420   -1.2380    0.0000 N.ar    1  LIG1       -0.2661
      4 C          -2.5420   -0.3670    0.0000 C.ar    1  LIG1        0.3348
      5 N          -2.0420    0.4960    0.0000 N.ar    1  LIG1       -0.2469
      6 C          -1.0420    0.4960    0.0000 C.ar    1  LIG1        0.2633
      7 O          -0.5420    1.3630    0.0000 O.2     1  LIG1       -0.2671
      8 C          -2.5420    1.3630    0.0000 C.3     1  LIG1        0.1382
      9 O          -3.5420   -0.3670    0.0000 O.2     1  LIG1       -0.2462
     10 C          -2.5420   -2.1040    0.0000 C.3     1  LIG1        0.1364
     11 N          -0.5420   -2.1040    0.0000 N.am    1  LIG1       -0.1621
     12 C           0.4540   -2.1000    0.0000 C.2     1  LIG1        0.2475
     13 C           0.9540   -1.2380    0.0000 C.3     1  LIG1        0.0962
     14 C           0.4540   -0.3670    0.0000 C.3     1  LIG1        0.0613
     15 C           0.9540    0.4960    0.0000 C.ar    1  LIG1       -0.0145
     16 C           1.9540    0.4960    0.0000 C.ar    1  LIG1        0.0362
     17 C           2.4540    1.3630    0.0000 C.ar    1  LIG1        0.1761
     18 C           1.9540    2.2330    0.0000 C.ar    1  LIG1        0.1764
     19 O           2.6250    2.9710    0.0000 O.3     1  LIG1       -0.4346
     20 C           3.5380    2.5710    0.0000 C.3     1  LIG1        0.4294
     21 O           3.4290    1.5710    0.0000 O.3     1  LIG1       -0.4346
     22 C           0.9540    2.2330    0.0000 C.ar    1  LIG1        0.0399
     23 C           0.4540    1.3630    0.0000 C.ar    1  LIG1       -0.0006
     24 O           0.9540   -2.9670    0.0000 O.2     1  LIG1       -0.2729
@<TRIPOS>BOND
     1     1     2   ar
     2     1     6   ar
     3     1    14    1
     4     2     3   ar
     5     2    11    1
     6     3     4   ar
     7     3    10    1
     8     4     5   ar
     9     4     9    2
    10     5     6   ar
    11     5     8    1
    12     6     7    2
    13    11    12   am
    14    12    13    1
    15    12    24    2
    16    13    14    1
    17    14    15    1
    18    15    16   ar
    19    15    23   ar
    20    16    17   ar
    21    17    18   ar
    22    17    21    1
    23    18    19    1
    24    18    22   ar
    25    19    20    1
    26    20    21    1
    27    22    23   ar
