@<TRIPOS>MOLECULE
35018_ChemDiv_C276-1020
 23 25 0 0 0
SMALL
GASTEIGER
Energy = 0

@<TRIPOS>ATOM
      1 C          -0.4290   -0.5040    0.0000 C.ar    1  LIG1        0.0701
      2 C          -0.4290   -1.5040    0.0000 C.ar    1  LIG1        0.1400
      3 N          -1.2920   -2.0040    0.0000 N.ar    1  LIG1       -0.2661
      4 C          -2.1670   -1.5040    0.0000 C.ar    1  LIG1        0.3348
      5 N          -2.1670   -0.5040    0.0000 N.ar    1  LIG1       -0.2469
      6 C          -1.2920   -0.0040    0.0000 C.ar    1  LIG1        0.2633
      7 O          -1.2920    0.9920    0.0000 O.2     1  LIG1       -0.2671
      8 C          -3.0290    0.0000    0.0000 C.3     1  LIG1        0.1382
      9 O          -3.0290   -1.9960    0.0000 O.2     1  LIG1       -0.2462
     10 C          -1.2920   -3.0000    0.0000 C.3     1  LIG1        0.1364
     11 N           0.4330   -2.0040    0.0000 N.am    1  LIG1       -0.1621
     12 C           1.3000   -1.5040    0.0000 C.2     1  LIG1        0.2475
     13 C           1.3000   -0.5040    0.0000 C.3     1  LIG1        0.0963
     14 C           0.4330   -0.0040    0.0000 C.3     1  LIG1        0.0641
     15 C           0.4330    1.0000    0.0000 C.ar    1  LIG1        0.0163
     16 C           1.3000    1.4960    0.0000 C.ar    1  LIG1        0.1350
     17 O           2.1630    1.0000    0.0000 O.3     1  LIG1       -0.4717
     18 C           3.0250    1.5080    0.0000 C.3     1  LIG1        0.2525
     19 C           1.2960    2.5040    0.0000 C.ar    1  LIG1        0.0366
     20 C           0.4330    3.0040    0.0000 C.ar    1  LIG1        0.0031
     21 C          -0.4290    2.5040    0.0000 C.ar    1  LIG1       -0.0001
     22 C          -0.4290    1.4960    0.0000 C.ar    1  LIG1       -0.0009
     23 O           2.1710   -2.0040    0.0000 O.2     1  LIG1       -0.2729
@<TRIPOS>BOND
     1     1     2   ar
     2     1     6   ar
     3     1    14    1
     4     2     3   ar
     5     2    11    1
     6     3     4   ar
     7     3    10    1
     8     4     5   ar
     9     4     9    2
    10     5     6   ar
    11     5     8    1
    12     6     7    2
    13    11    12   am
    14    12    13    1
    15    12    23    2
    16    13    14    1
    17    14    15    1
    18    15    16   ar
    19    15    22   ar
    20    16    17    1
    21    16    19   ar
    22    17    18    1
    23    19    20   ar
    24    20    21   ar
    25    21    22   ar
