@<TRIPOS>MOLECULE
35019_ChemDiv_8016-2679
 25 28 0 0 0
SMALL
GASTEIGER
Energy = 0

@<TRIPOS>ATOM
      1 N          -0.4960    0.4000    0.0000 N.ar    1  LIG1       -0.1755
      2 C          -0.1790   -0.5420    0.0000 C.ar    1  LIG1        0.1850
      3 N          -0.9830   -1.1420    0.0000 N.ar    1  LIG1       -0.2913
      4 C          -1.8040   -0.5630    0.0000 C.ar    1  LIG1        0.1649
      5 N          -1.5040    0.3960    0.0000 N.ar    1  LIG1       -0.1452
      6 C          -2.7420   -0.8790    0.0000 C.ar    1  LIG1        0.0359
      7 C          -3.4920   -0.2170    0.0000 C.ar    1  LIG1        0.0030
      8 C          -4.4420   -0.5420    0.0000 C.ar    1  LIG1        0.0001
      9 C          -4.6420   -1.5170    0.0000 C.ar    1  LIG1        0.0000
     10 C          -3.8790   -2.1790    0.0000 C.ar    1  LIG1        0.0001
     11 C          -2.9290   -1.8540    0.0000 C.ar    1  LIG1        0.0030
     12 C          -0.9670   -2.1420    0.0000 C.3     1  LIG1        0.1095
     13 C          -1.8380   -2.6540    0.0000 C.3     1  LIG1        0.0266
     14 S           0.7250   -0.9420    0.0000 S.2     1  LIG1       -0.0110
     15 C           0.0830    1.2210    0.0000 C.3     1  LIG1        0.2775
     16 N           1.0750    1.1330    0.0000 N.4     1  LIG1        0.4004
     17 C           1.6420    1.9460    0.0000 C.3     1  LIG1        0.1688
     18 C           2.6420    1.8460    0.0000 C.ar    1  LIG1        0.0307
     19 C           3.0540    0.9330    0.0000 C.ar    1  LIG1       -0.0147
     20 C           2.4790    0.1210    0.0000 C.3     1  LIG1        0.0890
     21 C           1.4880    0.2210    0.0000 C.3     1  LIG1        0.1467
     22 C           4.0500    0.8380    0.0000 C.ar    1  LIG1       -0.0042
     23 C           4.6380    1.6580    0.0000 C.ar    1  LIG1       -0.0003
     24 C           4.2130    2.5630    0.0000 C.ar    1  LIG1       -0.0001
     25 C           3.2170    2.6580    0.0000 C.ar    1  LIG1        0.0011
@<TRIPOS>BOND
     1     1     2   ar
     2     1     5   ar
     3     1    15    1
     4     2     3   ar
     5     2    14    2
     6     3     4   ar
     7     3    12    1
     8     4     5   ar
     9     4     6    1
    10     6     7   ar
    11     6    11   ar
    12     7     8   ar
    13     8     9   ar
    14     9    10   ar
    15    10    11   ar
    16    12    13    1
    17    15    16    1
    18    16    17    1
    19    16    21    1
    20    17    18    1
    21    18    19   ar
    22    18    25   ar
    23    19    20    1
    24    19    22   ar
    25    20    21    1
    26    22    23   ar
    27    23    24   ar
    28    24    25   ar
