@<TRIPOS>MOLECULE
35015_ChemDiv_8016-2643
 25 28 0 0 0
SMALL
GASTEIGER
Energy = 0

@<TRIPOS>ATOM
      1 C           0.9420   -0.8790    0.0000 C.2     1  LIG1        0.2691
      2 N           0.6920    0.0880    0.0000 N.am    1  LIG1       -0.1754
      3 C          -0.2750    0.3420    0.0000 C.ar    1  LIG1        0.0746
      4 C          -0.6330    1.2790    0.0000 C.ar    1  LIG1        0.0292
      5 C          -1.6210    1.4420    0.0000 C.ar    1  LIG1        0.0722
      6 C          -2.2500    0.6710    0.0000 C.ar    1  LIG1        0.0587
      7 N          -3.2460    0.8290    0.0000 N.pl3   1  LIG1       -0.3021
      8 C          -3.8630    0.0540    0.0000 C.3     1  LIG1        0.1231
      9 C          -4.8500    0.2080    0.0000 C.3     1  LIG1        0.1636
     10 O          -5.2040    1.1420    0.0000 O.3     1  LIG1       -0.3501
     11 C          -4.5830    1.9170    0.0000 C.3     1  LIG1        0.1636
     12 C          -3.5960    1.7670    0.0000 C.3     1  LIG1        0.1231
     13 C          -1.8960   -0.2670    0.0000 C.ar    1  LIG1        0.0167
     14 C          -0.9130   -0.4290    0.0000 C.ar    1  LIG1        0.0179
     15 CL         -1.9670    2.3790    0.0000 Cl      1  LIG1       -0.0809
     16 C           1.9130   -1.1420    0.0000 C.ar    1  LIG1        0.0586
     17 C           2.6170   -0.4380    0.0000 C.ar    1  LIG1        0.0448
     18 C           3.5790   -0.6920    0.0000 C.ar    1  LIG1        0.1766
     19 C           3.8420   -1.6630    0.0000 C.ar    1  LIG1        0.1764
     20 O           4.8380   -1.7170    0.0000 O.3     1  LIG1       -0.4346
     21 C           5.2000   -0.7790    0.0000 C.3     1  LIG1        0.4294
     22 O           4.4170   -0.1540    0.0000 O.3     1  LIG1       -0.4346
     23 C           3.1290   -2.3750    0.0000 C.ar    1  LIG1        0.0403
     24 C           2.1670   -2.1130    0.0000 C.ar    1  LIG1        0.0079
     25 O           0.2290   -1.5790    0.0000 O.2     1  LIG1       -0.2680
@<TRIPOS>BOND
     1     1     2   am
     2     1    16    1
     3     1    25    2
     4     2     3    1
     5     3     4   ar
     6     3    14   ar
     7     4     5   ar
     8     5     6   ar
     9     5    15    1
    10     6     7    1
    11     6    13   ar
    12     7     8    1
    13     7    12    1
    14     8     9    1
    15     9    10    1
    16    10    11    1
    17    11    12    1
    18    13    14   ar
    19    16    17   ar
    20    16    24   ar
    21    17    18   ar
    22    18    19   ar
    23    18    22    1
    24    19    20    1
    25    19    23   ar
    26    20    21    1
    27    21    22    1
    28    23    24   ar
