@<TRIPOS>MOLECULE
35022_ChemDiv_D271-0095
 31 34 0 0 0
SMALL
GASTEIGER
Energy = 0

@<TRIPOS>ATOM
      1 C           0.4330   -2.4920    0.0000 C.ar    1  LIG1        0.1575
      2 C           0.4330   -1.4960    0.0000 C.ar    1  LIG1        0.0733
      3 C          -0.4380   -0.9920    0.0000 C.ar    1  LIG1        0.2800
      4 N          -1.2880   -1.4960    0.0000 N.ar    1  LIG1       -0.1829
      5 C          -1.2880   -2.4920    0.0000 C.ar    1  LIG1        0.1943
      6 N          -0.4380   -2.9880    0.0000 N.ar    1  LIG1       -0.2045
      7 S          -2.1540   -2.9960    0.0000 S.3     1  LIG1       -0.0707
      8 C          -3.0210   -2.4920    0.0000 C.3     1  LIG1        0.0922
      9 C          -3.0210   -1.4830    0.0000 C.ar    1  LIG1       -0.0003
     10 C          -3.8880   -0.9830    0.0000 C.ar    1  LIG1        0.0545
     11 CL         -4.7580   -1.4960    0.0000 Cl      1  LIG1       -0.0825
     12 C          -3.8880    0.0130    0.0000 C.ar    1  LIG1        0.0111
     13 C          -3.0080    0.5290    0.0000 C.ar    1  LIG1        0.0008
     14 C          -2.1420    0.0250    0.0000 C.ar    1  LIG1       -0.0002
     15 C          -2.1420   -0.9830    0.0000 C.ar    1  LIG1       -0.0026
     16 O          -0.4380    0.0080    0.0000 O.2     1  LIG1       -0.2654
     17 C           1.2960   -0.9920    0.0000 C.3     1  LIG1        0.0614
     18 C           1.2830   -0.0040    0.0000 C.ar    1  LIG1       -0.0145
     19 C           2.1500    0.5000    0.0000 C.ar    1  LIG1        0.0363
     20 C           2.1500    1.5000    0.0000 C.ar    1  LIG1        0.1769
     21 C           1.2830    1.9920    0.0000 C.ar    1  LIG1        0.2293
     22 C           0.4170    1.4880    0.0000 C.ar    1  LIG1        0.0449
     23 C           0.4250    0.4960    0.0000 C.ar    1  LIG1       -0.0005
     24 O           1.2830    3.0000    0.0000 O.3     1  LIG1       -0.2833
     25 O           3.0170    2.0040    0.0000 O.3     1  LIG1       -0.4722
     26 C           3.8880    1.5000    0.0000 C.3     1  LIG1        0.2057
     27 C           4.7540    2.0040    0.0000 C.3     1  LIG1        0.0512
     28 C           2.1500   -1.4830    0.0000 C.3     1  LIG1        0.0962
     29 C           2.1630   -2.4920    0.0000 C.2     1  LIG1        0.2475
     30 N           1.2960   -2.9880    0.0000 N.am    1  LIG1       -0.1604
     31 O           3.0170   -2.9880    0.0000 O.2     1  LIG1       -0.2729
@<TRIPOS>BOND
     1     1     2   ar
     2     1     6   ar
     3     1    30    1
     4     2     3   ar
     5     2    17    1
     6     3     4   ar
     7     3    16    2
     8     4     5   ar
     9     5     6   ar
    10     5     7    1
    11     7     8    1
    12     8     9    1
    13     9    10   ar
    14     9    15   ar
    15    10    11    1
    16    10    12   ar
    17    12    13   ar
    18    13    14   ar
    19    14    15   ar
    20    17    18    1
    21    17    28    1
    22    18    19   ar
    23    18    23   ar
    24    19    20   ar
    25    20    21   ar
    26    20    25    1
    27    21    22   ar
    28    21    24    1
    29    22    23   ar
    30    25    26    1
    31    26    27    1
    32    28    29    1
    33    29    30   am
    34    29    31    2
