@<TRIPOS>MOLECULE
35023_ChemDiv_8016-2700
 26 29 0 0 0
SMALL
GASTEIGER
Energy = 0

@<TRIPOS>ATOM
      1 C          -0.1500   -1.1920    0.0000 C.ar    1  LIG1        0.1986
      2 C           0.8040   -1.5000    0.0000 C.2     1  LIG1        0.2838
      3 N           1.5540   -0.8290    0.0000 N.am    1  LIG1       -0.2736
      4 C           2.5000   -1.1500    0.0000 C.3     1  LIG1        0.0941
      5 C           3.2420   -0.4920    0.0000 C.3     1  LIG1        0.0259
      6 C           3.0420    0.4880    0.0000 C.3     1  LIG1        0.0257
      7 C           2.0920    0.8080    0.0000 C.3     1  LIG1        0.0259
      8 C           1.3420    0.1330    0.0000 C.3     1  LIG1        0.0941
      9 C           3.7790    1.1580    0.0000 C.ar    1  LIG1       -0.0224
     10 C           3.5790    2.1330    0.0000 C.ar    1  LIG1       -0.0043
     11 C           4.3250    2.7960    0.0000 C.ar    1  LIG1       -0.0003
     12 C           5.2790    2.4880    0.0000 C.ar    1  LIG1       -0.0000
     13 C           5.4790    1.5080    0.0000 C.ar    1  LIG1       -0.0003
     14 C           4.7380    0.8380    0.0000 C.ar    1  LIG1       -0.0043
     15 O           1.0170   -2.4750    0.0000 O.2     1  LIG1       -0.2666
     16 O          -0.9540   -1.7750    0.0000 O.2     1  LIG1       -0.4489
     17 C          -1.7670   -1.1920    0.0000 C.ar    1  LIG1        0.1455
     18 C          -1.4580   -0.2380    0.0000 C.ar    1  LIG1        0.0408
     19 C          -0.4540   -0.2380    0.0000 C.ar    1  LIG1        0.0453
     20 C          -2.7170   -1.5000    0.0000 C.ar    1  LIG1        0.0347
     21 C          -3.4540   -0.8290    0.0000 C.ar    1  LIG1        0.0053
     22 C          -4.4080   -1.1380    0.0000 C.ar    1  LIG1        0.0297
     23 C          -4.6170   -2.1170    0.0000 C.ar    1  LIG1        0.1401
     24 C          -3.8670   -2.7920    0.0000 C.ar    1  LIG1        0.0297
     25 C          -2.9170   -2.4750    0.0000 C.ar    1  LIG1        0.0053
     26 F          -5.4830   -2.6130    0.0000 F       1  LIG1       -0.2042
@<TRIPOS>BOND
     1     1     2    1
     2     1    16   ar
     3     1    19   ar
     4     2     3   am
     5     2    15    2
     6     3     4    1
     7     3     8    1
     8     4     5    1
     9     5     6    1
    10     6     7    1
    11     6     9    1
    12     7     8    1
    13     9    10   ar
    14     9    14   ar
    15    10    11   ar
    16    11    12   ar
    17    12    13   ar
    18    13    14   ar
    19    16    17   ar
    20    17    18   ar
    21    17    20    1
    22    18    19   ar
    23    20    21   ar
    24    20    25   ar
    25    21    22   ar
    26    22    23   ar
    27    23    24   ar
    28    23    26    1
    29    24    25   ar
