@<TRIPOS>MOLECULE
35025_ChemDiv_8017-2471
 26 29 0 0 0
SMALL
GASTEIGER
Energy = 0

@<TRIPOS>ATOM
      1 C          -0.0080   -0.7540    0.0000 C.ar    1  LIG1        0.0746
      2 C          -0.0080   -1.7540    0.0000 C.ar    1  LIG1        0.1507
      3 C          -0.8750   -2.2540    0.0000 C.ar    1  LIG1        0.0522
      4 C          -1.7380   -1.7540    0.0000 C.ar    1  LIG1        0.0874
      5 N          -1.7460   -0.7540    0.0000 N.ar    1  LIG1       -0.2079
      6 C          -0.8750   -0.2500    0.0000 C.ar    1  LIG1        0.2784
      7 O          -0.8750    0.7580    0.0000 O.2     1  LIG1       -0.2654
      8 C          -2.5960   -2.2500    0.0000 C.ar    1  LIG1        0.0193
      9 C          -2.5960   -3.2380    0.0000 C.ar    1  LIG1        0.0015
     10 C          -1.7330   -3.7380    0.0000 C.ar    1  LIG1        0.0002
     11 C          -0.8710   -3.2380    0.0000 C.ar    1  LIG1        0.0045
     12 O           0.8540   -2.2540    0.0000 O.3     1  LIG1       -0.4242
     13 C           1.7250   -1.7540    0.0000 C.2     1  LIG1        0.3221
     14 C           1.7170   -0.7500    0.0000 C.3     1  LIG1        0.1190
     15 C           0.8540   -0.2500    0.0000 C.3     1  LIG1        0.0665
     16 C           0.8500    0.7580    0.0000 C.ar    1  LIG1        0.0194
     17 C           1.7170    1.2500    0.0000 C.ar    1  LIG1        0.1352
     18 C           1.7170    2.2580    0.0000 C.ar    1  LIG1        0.0397
     19 C           0.8500    2.7540    0.0000 C.ar    1  LIG1        0.0400
     20 C          -0.0210    2.2460    0.0000 C.ar    1  LIG1        0.1386
     21 C          -0.0210    1.2460    0.0000 C.ar    1  LIG1        0.0360
     22 O          -0.8960    2.7330    0.0000 O.3     1  LIG1       -0.4714
     23 C          -0.9000    3.7420    0.0000 C.3     1  LIG1        0.2525
     24 O           2.5880    0.7500    0.0000 O.3     1  LIG1       -0.4717
     25 C           2.5880   -0.2540    0.0000 C.3     1  LIG1        0.2525
     26 O           2.5920   -2.2540    0.0000 O.2     1  LIG1       -0.2497
@<TRIPOS>BOND
     1     1     2   ar
     2     1     6   ar
     3     1    15    1
     4     2     3   ar
     5     2    12    1
     6     3     4   ar
     7     3    11   ar
     8     4     5   ar
     9     4     8   ar
    10     5     6   ar
    11     6     7    2
    12     8     9   ar
    13     9    10   ar
    14    10    11   ar
    15    12    13    1
    16    13    14    1
    17    13    26    2
    18    14    15    1
    19    15    16    1
    20    16    17   ar
    21    16    21   ar
    22    17    18   ar
    23    17    24    1
    24    18    19   ar
    25    19    20   ar
    26    20    21   ar
    27    20    22    1
    28    22    23    1
    29    24    25    1
