@<TRIPOS>MOLECULE
35026_ChemDiv_8017-5585
 20 22 0 0 0
SMALL
GASTEIGER
Energy = 0

@<TRIPOS>ATOM
      1 C           2.4960    0.1000    0.0000 C.ar    1  LIG1        0.1583
      2 C           1.9960   -0.7710    0.0000 C.ar    1  LIG1        0.0958
      3 N           0.9960   -0.7710    0.0000 N.am    1  LIG1       -0.1775
      4 C           0.4960    0.1000    0.0000 C.2     1  LIG1        0.2459
      5 O           0.9960    0.9710    0.0000 O.2     1  LIG1       -0.2730
      6 C          -0.5080    0.1000    0.0000 C.3     1  LIG1        0.0918
      7 C          -1.0080   -0.7710    0.0000 C.3     1  LIG1        0.0360
      8 C          -2.0080   -0.7710    0.0000 C.ar    1  LIG1       -0.0217
      9 C          -2.5080   -1.6330    0.0000 C.ar    1  LIG1       -0.0043
     10 C          -3.5000   -1.6330    0.0000 C.ar    1  LIG1       -0.0003
     11 C          -4.0040   -0.7710    0.0000 C.ar    1  LIG1       -0.0000
     12 C          -3.5000    0.1000    0.0000 C.ar    1  LIG1       -0.0003
     13 C          -2.5080    0.1000    0.0000 C.ar    1  LIG1       -0.0043
     14 C           2.4960   -1.6330    0.0000 C.ar    1  LIG1        0.0183
     15 C           3.4960   -1.6330    0.0000 C.ar    1  LIG1        0.0031
     16 C           4.0000   -0.7710    0.0000 C.ar    1  LIG1        0.0242
     17 C           3.4960    0.1000    0.0000 C.ar    1  LIG1        0.1445
     18 N           3.8130    1.0500    0.0000 N.ar    1  LIG1       -0.0482
     19 O           2.9960    1.6380    0.0000 O.2     1  LIG1       -0.2415
     20 N           2.1920    1.0500    0.0000 N.ar    1  LIG1       -0.0469
@<TRIPOS>BOND
     1     1     2   ar
     2     1    17   ar
     3     1    20   ar
     4     2     3    1
     5     2    14   ar
     6     3     4   am
     7     4     5    2
     8     4     6    1
     9     6     7    1
    10     7     8    1
    11     8     9   ar
    12     8    13   ar
    13     9    10   ar
    14    10    11   ar
    15    11    12   ar
    16    12    13   ar
    17    14    15   ar
    18    15    16   ar
    19    16    17   ar
    20    17    18   ar
    21    18    19   ar
    22    19    20   ar
