@<TRIPOS>MOLECULE
35028_ChemDiv_8017-9503
 13 14 0 0 0
SMALL
GASTEIGER
Energy = 0

@<TRIPOS>ATOM
      1 C          -0.5330   -0.7500    0.0000 C.ar    1  LIG1        0.1583
      2 C           0.3290   -0.2500    0.0000 C.ar    1  LIG1        0.0958
      3 N           0.3290    0.7460    0.0000 N.am    1  LIG1       -0.1775
      4 C           1.2000    1.2460    0.0000 C.2     1  LIG1        0.2461
      5 O           2.0670    0.7540    0.0000 O.2     1  LIG1       -0.2730
      6 C           1.2000    2.2540    0.0000 C.3     1  LIG1        0.0968
      7 C           1.2000   -0.7500    0.0000 C.ar    1  LIG1        0.0183
      8 C           1.2000   -1.7500    0.0000 C.ar    1  LIG1        0.0031
      9 C           0.3290   -2.2500    0.0000 C.ar    1  LIG1        0.0242
     10 C          -0.5330   -1.7500    0.0000 C.ar    1  LIG1        0.1445
     11 N          -1.4830   -2.0540    0.0000 N.ar    1  LIG1       -0.0482
     12 O          -2.0710   -1.2500    0.0000 O.2     1  LIG1       -0.2415
     13 N          -1.4830   -0.4380    0.0000 N.ar    1  LIG1       -0.0469
@<TRIPOS>BOND
     1     1     2   ar
     2     1    10   ar
     3     1    13   ar
     4     2     3    1
     5     2     7   ar
     6     3     4   am
     7     4     5    2
     8     4     6    1
     9     7     8   ar
    10     8     9   ar
    11     9    10   ar
    12    10    11   ar
    13    11    12   ar
    14    12    13   ar
