@<TRIPOS>MOLECULE
35024_ChemDiv_D271-0195
 28 30 0 0 0
SMALL
GASTEIGER
Energy = 0

@<TRIPOS>ATOM
      1 C          -0.4420   -3.5040    0.0000 C.ar    1  LIG1        0.1575
      2 C          -0.4420   -2.4960    0.0000 C.ar    1  LIG1        0.0733
      3 C          -1.3130   -1.9920    0.0000 C.ar    1  LIG1        0.2800
      4 N          -2.1630   -2.4960    0.0000 N.ar    1  LIG1       -0.1829
      5 C          -2.1630   -3.5000    0.0000 C.ar    1  LIG1        0.1940
      6 N          -1.3130   -3.9920    0.0000 N.ar    1  LIG1       -0.2045
      7 S          -3.0330   -4.0040    0.0000 S.3     1  LIG1       -0.0746
      8 C          -3.9040   -3.5000    0.0000 C.3     1  LIG1        0.0772
      9 O          -1.3130   -1.0000    0.0000 O.2     1  LIG1       -0.2654
     10 C           0.4210   -1.9920    0.0000 C.3     1  LIG1        0.0614
     11 C           0.4080   -1.0000    0.0000 C.ar    1  LIG1       -0.0145
     12 C           1.2790   -0.4960    0.0000 C.ar    1  LIG1        0.0361
     13 C           1.2790    0.4960    0.0000 C.ar    1  LIG1        0.1719
     14 C           0.4080    1.0000    0.0000 C.ar    1  LIG1        0.1729
     15 O           0.4080    1.9960    0.0000 O.3     1  LIG1       -0.4624
     16 C          -0.4580    2.4960    0.0000 C.3     1  LIG1        0.2930
     17 C          -0.4580    3.5040    0.0000 C.2     1  LIG1        0.3052
     18 O           0.4080    4.0040    0.0000 O.2     1  LIG1       -0.2676
     19 N          -1.3290    3.9960    0.0000 N.am    1  LIG1       -0.0845
     20 C          -0.4580    0.4960    0.0000 C.ar    1  LIG1        0.0398
     21 C          -0.4500   -0.5080    0.0000 C.ar    1  LIG1       -0.0006
     22 O           2.1500    1.0000    0.0000 O.3     1  LIG1       -0.4724
     23 C           3.0290    0.5000    0.0000 C.3     1  LIG1        0.2057
     24 C           3.9000    1.0040    0.0000 C.3     1  LIG1        0.0512
     25 C           1.2790   -2.4960    0.0000 C.3     1  LIG1        0.0962
     26 C           1.2920   -3.5000    0.0000 C.2     1  LIG1        0.2475
     27 N           0.4210   -3.9920    0.0000 N.am    1  LIG1       -0.1604
     28 O           2.1500   -3.9920    0.0000 O.2     1  LIG1       -0.2729
@<TRIPOS>BOND
     1     1     2   ar
     2     1     6   ar
     3     1    27    1
     4     2     3   ar
     5     2    10    1
     6     3     4   ar
     7     3     9    2
     8     4     5   ar
     9     5     6   ar
    10     5     7    1
    11     7     8    1
    12    10    11    1
    13    10    25    1
    14    11    12   ar
    15    11    21   ar
    16    12    13   ar
    17    13    14   ar
    18    13    22    1
    19    14    15    1
    20    14    20   ar
    21    15    16    1
    22    16    17    1
    23    17    18    2
    24    17    19   am
    25    20    21   ar
    26    22    23    1
    27    23    24    1
    28    25    26    1
    29    26    27   am
    30    26    28    2
