@<TRIPOS>MOLECULE
35020_ChemDiv_C276-1023
 25 28 0 0 0
SMALL
GASTEIGER
Energy = 0

@<TRIPOS>ATOM
      1 C          -0.0040   -1.0460    0.0000 C.ar    1  LIG1        0.0701
      2 C          -0.0040   -2.0420    0.0000 C.ar    1  LIG1        0.1400
      3 N          -0.8670   -2.5420    0.0000 N.ar    1  LIG1       -0.2661
      4 C          -1.7380   -2.0420    0.0000 C.ar    1  LIG1        0.3348
      5 N          -1.7380   -1.0460    0.0000 N.ar    1  LIG1       -0.2469
      6 C          -0.8670   -0.5460    0.0000 C.ar    1  LIG1        0.2633
      7 O          -0.8670    0.4540    0.0000 O.2     1  LIG1       -0.2671
      8 C          -2.6000   -0.5420    0.0000 C.3     1  LIG1        0.1382
      9 O          -2.6000   -2.5380    0.0000 O.2     1  LIG1       -0.2462
     10 C          -0.8670   -3.5420    0.0000 C.3     1  LIG1        0.1364
     11 N           0.8580   -2.5420    0.0000 N.am    1  LIG1       -0.1621
     12 C           1.7250   -2.0420    0.0000 C.2     1  LIG1        0.2475
     13 C           1.7250   -1.0460    0.0000 C.3     1  LIG1        0.0962
     14 C           0.8580   -0.5460    0.0000 C.3     1  LIG1        0.0617
     15 C           0.8580    0.4580    0.0000 C.ar    1  LIG1       -0.0082
     16 C           1.7250    0.9580    0.0000 C.ar    1  LIG1        0.0341
     17 C           1.7210    1.9670    0.0000 C.ar    1  LIG1        0.0466
     18 C           0.8580    2.4670    0.0000 C.ar    1  LIG1        0.1769
     19 C          -0.0170    1.9670    0.0000 C.ar    1  LIG1        0.1761
     20 C          -0.0040    0.9580    0.0000 C.ar    1  LIG1        0.0367
     21 O          -0.7540    2.6330    0.0000 O.3     1  LIG1       -0.4346
     22 C          -0.3460    3.5460    0.0000 C.3     1  LIG1        0.4294
     23 O           0.6500    3.4380    0.0000 O.3     1  LIG1       -0.4346
     24 BR          2.5880    0.4580    0.0000 Br      1  LIG1       -0.0492
     25 O           2.5960   -2.5420    0.0000 O.2     1  LIG1       -0.2729
@<TRIPOS>BOND
     1     1     2   ar
     2     1     6   ar
     3     1    14    1
     4     2     3   ar
     5     2    11    1
     6     3     4   ar
     7     3    10    1
     8     4     5   ar
     9     4     9    2
    10     5     6   ar
    11     5     8    1
    12     6     7    2
    13    11    12   am
    14    12    13    1
    15    12    25    2
    16    13    14    1
    17    14    15    1
    18    15    16   ar
    19    15    20   ar
    20    16    17   ar
    21    16    24    1
    22    17    18   ar
    23    18    19   ar
    24    18    23    1
    25    19    20   ar
    26    19    21    1
    27    21    22    1
    28    22    23    1
