@<TRIPOS>MOLECULE
35021_ChemDiv_8016-2688
 27 30 0 0 0
SMALL
GASTEIGER
Energy = 0

@<TRIPOS>ATOM
      1 C          -1.8210    0.7960    0.0000 C.2     1  LIG1        0.2648
      2 C          -2.3000   -0.0880    0.0000 C.ar    1  LIG1        0.0511
      3 C          -1.7830   -0.9380    0.0000 C.ar    1  LIG1       -0.0174
      4 C          -0.7830   -0.9170    0.0000 C.3     1  LIG1        0.0312
      5 C          -0.2580   -1.7750    0.0000 C.3     1  LIG1        0.0310
      6 C           0.7420   -1.7500    0.0000 C.ar    1  LIG1       -0.0218
      7 C           1.2210   -0.8670    0.0000 C.ar    1  LIG1       -0.0043
      8 C           2.2210   -0.8500    0.0000 C.ar    1  LIG1       -0.0003
      9 C           2.7420   -1.7040    0.0000 C.ar    1  LIG1       -0.0000
     10 C           2.2580   -2.5790    0.0000 C.ar    1  LIG1       -0.0003
     11 C           1.2580   -2.6040    0.0000 C.ar    1  LIG1       -0.0043
     12 C          -2.2580   -1.8170    0.0000 C.ar    1  LIG1       -0.0041
     13 C          -3.2630   -1.8420    0.0000 C.ar    1  LIG1       -0.0003
     14 C          -3.7750   -0.9790    0.0000 C.ar    1  LIG1        0.0001
     15 C          -3.2960   -0.1040    0.0000 C.ar    1  LIG1        0.0042
     16 N          -0.8210    0.8130    0.0000 N.am    1  LIG1       -0.1968
     17 C          -0.3460    1.6880    0.0000 C.3     1  LIG1        0.1419
     18 C           0.6670    1.7130    0.0000 C.ar    1  LIG1        0.0027
     19 C           1.1830    0.8580    0.0000 C.ar    1  LIG1        0.0376
     20 C           2.1830    0.8830    0.0000 C.ar    1  LIG1        0.1762
     21 C           2.6670    1.7580    0.0000 C.ar    1  LIG1        0.1764
     22 O           3.6460    1.5710    0.0000 O.3     1  LIG1       -0.4346
     23 C           3.7710    0.5830    0.0000 C.3     1  LIG1        0.4294
     24 O           2.8710    0.1580    0.0000 O.3     1  LIG1       -0.4346
     25 C           2.1460    2.6080    0.0000 C.ar    1  LIG1        0.0399
     26 C           1.1460    2.5880    0.0000 C.ar    1  LIG1        0.0008
     27 O          -2.3460    1.6460    0.0000 O.2     1  LIG1       -0.2684
@<TRIPOS>BOND
     1     1     2    1
     2     1    16   am
     3     1    27    2
     4     2     3   ar
     5     2    15   ar
     6     3     4    1
     7     3    12   ar
     8     4     5    1
     9     5     6    1
    10     6     7   ar
    11     6    11   ar
    12     7     8   ar
    13     8     9   ar
    14     9    10   ar
    15    10    11   ar
    16    12    13   ar
    17    13    14   ar
    18    14    15   ar
    19    16    17    1
    20    17    18    1
    21    18    19   ar
    22    18    26   ar
    23    19    20   ar
    24    20    21   ar
    25    20    24    1
    26    21    22    1
    27    21    25   ar
    28    22    23    1
    29    23    24    1
    30    25    26   ar
