@<TRIPOS>MOLECULE
35027_ChemDiv_8017-5049
 32 36 0 0 0
SMALL
GASTEIGER
Energy = 0

@<TRIPOS>ATOM
      1 C          -0.4460   -2.5130    0.0000 C.ar    1  LIG1        0.0745
      2 C          -0.4460   -3.5130    0.0000 C.ar    1  LIG1        0.1507
      3 C          -1.3080   -4.0040    0.0000 C.ar    1  LIG1        0.0522
      4 C          -2.1710   -3.5130    0.0000 C.ar    1  LIG1        0.0874
      5 N          -2.1710   -2.5130    0.0000 N.ar    1  LIG1       -0.2079
      6 C          -1.3080   -2.0040    0.0000 C.ar    1  LIG1        0.2784
      7 O          -1.3080   -1.0040    0.0000 O.2     1  LIG1       -0.2654
      8 C          -3.0250   -4.0040    0.0000 C.ar    1  LIG1        0.0193
      9 C          -3.0250   -5.0040    0.0000 C.ar    1  LIG1        0.0015
     10 C          -2.1580   -5.5000    0.0000 C.ar    1  LIG1        0.0002
     11 C          -1.3080   -5.0000    0.0000 C.ar    1  LIG1        0.0045
     12 O           0.4290   -4.0080    0.0000 O.3     1  LIG1       -0.4242
     13 C           1.2960   -3.5130    0.0000 C.2     1  LIG1        0.3221
     14 C           1.2960   -2.5040    0.0000 C.3     1  LIG1        0.1189
     15 C           0.4210   -2.0040    0.0000 C.3     1  LIG1        0.0635
     16 C           0.4210   -1.0040    0.0000 C.ar    1  LIG1       -0.0144
     17 C           1.2920   -0.5040    0.0000 C.ar    1  LIG1        0.0361
     18 C           1.2920    0.5000    0.0000 C.ar    1  LIG1        0.1721
     19 C           0.4210    1.0000    0.0000 C.ar    1  LIG1        0.1727
     20 O           0.4170    2.0000    0.0000 O.3     1  LIG1       -0.4676
     21 C           1.2830    2.5040    0.0000 C.3     1  LIG1        0.2321
     22 C           1.2790    3.5130    0.0000 C.ar    1  LIG1        0.0212
     23 C           2.1460    4.0040    0.0000 C.ar    1  LIG1       -0.0007
     24 C           2.1460    4.9920    0.0000 C.ar    1  LIG1       -0.0002
     25 C           1.2710    5.5000    0.0000 C.ar    1  LIG1       -0.0000
     26 C           0.4040    4.9830    0.0000 C.ar    1  LIG1       -0.0002
     27 C           0.4080    4.0000    0.0000 C.ar    1  LIG1       -0.0007
     28 C          -0.4580    0.4880    0.0000 C.ar    1  LIG1        0.0397
     29 C          -0.4460   -0.5130    0.0000 C.ar    1  LIG1       -0.0006
     30 O           2.1580    1.0000    0.0000 O.3     1  LIG1       -0.4684
     31 C           3.0210    0.5000    0.0000 C.3     1  LIG1        0.2526
     32 O           2.1580   -4.0080    0.0000 O.2     1  LIG1       -0.2497
@<TRIPOS>BOND
     1     1     2   ar
     2     1     6   ar
     3     1    15    1
     4     2     3   ar
     5     2    12    1
     6     3     4   ar
     7     3    11   ar
     8     4     5   ar
     9     4     8   ar
    10     5     6   ar
    11     6     7    2
    12     8     9   ar
    13     9    10   ar
    14    10    11   ar
    15    12    13    1
    16    13    14    1
    17    13    32    2
    18    14    15    1
    19    15    16    1
    20    16    17   ar
    21    16    29   ar
    22    17    18   ar
    23    18    19   ar
    24    18    30    1
    25    19    20    1
    26    19    28   ar
    27    20    21    1
    28    21    22    1
    29    22    23   ar
    30    22    27   ar
    31    23    24   ar
    32    24    25   ar
    33    25    26   ar
    34    26    27   ar
    35    28    29   ar
    36    30    31    1
