@<TRIPOS>MOLECULE
35030_ChemDiv_8016-8404
 10 11 0 0 0
SMALL
GASTEIGER
Energy = 0

@<TRIPOS>ATOM
      1 C           0.1080   -0.0040    0.0000 C.ar    1  LIG1        0.1536
      2 C           0.1080   -0.9960    0.0000 C.ar    1  LIG1        0.1440
      3 N           1.0580   -1.3170    0.0000 N.ar    1  LIG1       -0.0482
      4 O           1.6330   -0.5040    0.0000 O.2     1  LIG1       -0.2415
      5 N           1.0580    0.3130    0.0000 N.ar    1  LIG1       -0.0474
      6 C          -0.7630   -1.4960    0.0000 C.ar    1  LIG1        0.0242
      7 C          -1.6380   -0.9960    0.0000 C.ar    1  LIG1        0.0026
      8 C          -1.6380   -0.0040    0.0000 C.ar    1  LIG1        0.0131
      9 C          -0.7630    0.5080    0.0000 C.ar    1  LIG1        0.0801
     10 CL         -0.7630    1.5000    0.0000 Cl      1  LIG1       -0.0805
@<TRIPOS>BOND
     1     1     2   ar
     2     1     5   ar
     3     1     9   ar
     4     2     3   ar
     5     2     6   ar
     6     3     4   ar
     7     4     5   ar
     8     6     7   ar
     9     7     8   ar
    10     8     9   ar
    11     9    10    1
