@<TRIPOS>MOLECULE
35035_ChemDiv_8017-6090
 25 28 0 0 0
SMALL
GASTEIGER
Energy = 0

@<TRIPOS>ATOM
      1 C          -0.4460   -0.7580    0.0000 C.ar    1  LIG1        0.0745
      2 C          -0.4460   -1.7670    0.0000 C.ar    1  LIG1        0.1507
      3 C          -1.3080   -2.2580    0.0000 C.ar    1  LIG1        0.0522
      4 C          -2.1710   -1.7580    0.0000 C.ar    1  LIG1        0.0874
      5 N          -2.1710   -0.7580    0.0000 N.ar    1  LIG1       -0.2079
      6 C          -1.3080   -0.2580    0.0000 C.ar    1  LIG1        0.2784
      7 O          -1.3080    0.7500    0.0000 O.2     1  LIG1       -0.2654
      8 C          -3.0330   -2.2580    0.0000 C.ar    1  LIG1        0.0193
      9 C          -3.0250   -3.2540    0.0000 C.ar    1  LIG1        0.0015
     10 C          -2.1580   -3.7460    0.0000 C.ar    1  LIG1        0.0002
     11 C          -1.3080   -3.2460    0.0000 C.ar    1  LIG1        0.0045
     12 O           0.4290   -2.2580    0.0000 O.3     1  LIG1       -0.4242
     13 C           1.2960   -1.7580    0.0000 C.2     1  LIG1        0.3221
     14 C           1.2960   -0.7580    0.0000 C.3     1  LIG1        0.1189
     15 C           0.4210   -0.2580    0.0000 C.3     1  LIG1        0.0635
     16 C           0.4210    0.7500    0.0000 C.ar    1  LIG1       -0.0144
     17 C           1.2920    1.2460    0.0000 C.ar    1  LIG1        0.0363
     18 C           1.2920    2.2500    0.0000 C.ar    1  LIG1        0.1771
     19 C           0.4210    2.7500    0.0000 C.ar    1  LIG1        0.2293
     20 C          -0.4580    2.2380    0.0000 C.ar    1  LIG1        0.0449
     21 C          -0.4460    1.2460    0.0000 C.ar    1  LIG1       -0.0005
     22 O           0.4170    3.7500    0.0000 O.3     1  LIG1       -0.2833
     23 O           2.1580    2.7500    0.0000 O.3     1  LIG1       -0.4682
     24 C           3.0290    2.2580    0.0000 C.3     1  LIG1        0.2526
     25 O           2.1670   -2.2580    0.0000 O.2     1  LIG1       -0.2497
@<TRIPOS>BOND
     1     1     2   ar
     2     1     6   ar
     3     1    15    1
     4     2     3   ar
     5     2    12    1
     6     3     4   ar
     7     3    11   ar
     8     4     5   ar
     9     4     8   ar
    10     5     6   ar
    11     6     7    2
    12     8     9   ar
    13     9    10   ar
    14    10    11   ar
    15    12    13    1
    16    13    14    1
    17    13    25    2
    18    14    15    1
    19    15    16    1
    20    16    17   ar
    21    16    21   ar
    22    17    18   ar
    23    18    19   ar
    24    18    23    1
    25    19    20   ar
    26    19    22    1
    27    20    21   ar
    28    23    24    1
