@<TRIPOS>MOLECULE
35039_ChemDiv_8017-8653
 31 35 0 0 0
SMALL
GASTEIGER
Energy = 0

@<TRIPOS>ATOM
      1 C          -0.4330   -2.5130    0.0000 C.ar    1  LIG1        0.0745
      2 C          -0.4330   -3.5170    0.0000 C.ar    1  LIG1        0.1507
      3 C          -1.2960   -4.0040    0.0000 C.ar    1  LIG1        0.0522
      4 C          -2.1580   -3.5130    0.0000 C.ar    1  LIG1        0.0874
      5 N          -2.1630   -2.5130    0.0000 N.ar    1  LIG1       -0.2079
      6 C          -1.2960   -2.0040    0.0000 C.ar    1  LIG1        0.2784
      7 O          -1.2960   -1.0040    0.0000 O.2     1  LIG1       -0.2654
      8 C          -3.0210   -4.0040    0.0000 C.ar    1  LIG1        0.0193
      9 C          -3.0210   -5.0040    0.0000 C.ar    1  LIG1        0.0015
     10 C          -2.1500   -5.5000    0.0000 C.ar    1  LIG1        0.0002
     11 C          -1.2960   -5.0000    0.0000 C.ar    1  LIG1        0.0045
     12 O           0.4330   -4.0080    0.0000 O.3     1  LIG1       -0.4242
     13 C           1.3080   -3.5130    0.0000 C.2     1  LIG1        0.3221
     14 C           1.3040   -2.5040    0.0000 C.3     1  LIG1        0.1189
     15 C           0.4330   -2.0040    0.0000 C.3     1  LIG1        0.0634
     16 C           0.4330   -1.0040    0.0000 C.ar    1  LIG1       -0.0174
     17 C          -0.4330   -0.5170    0.0000 C.ar    1  LIG1       -0.0008
     18 C          -0.4460    0.4880    0.0000 C.ar    1  LIG1        0.0366
     19 C           0.4330    1.0000    0.0000 C.ar    1  LIG1        0.1390
     20 O           0.4210    2.0000    0.0000 O.3     1  LIG1       -0.4706
     21 C           1.2920    2.5040    0.0000 C.3     1  LIG1        0.2342
     22 C           1.2830    3.5130    0.0000 C.ar    1  LIG1        0.0486
     23 C           2.1540    4.0000    0.0000 C.ar    1  LIG1        0.1396
     24 F           3.0170    3.5130    0.0000 F       1  LIG1       -0.2044
     25 C           2.1460    5.0000    0.0000 C.ar    1  LIG1        0.0294
     26 C           1.2790    5.5000    0.0000 C.ar    1  LIG1        0.0023
     27 C           0.4080    4.9920    0.0000 C.ar    1  LIG1       -0.0001
     28 C           0.4210    4.0000    0.0000 C.ar    1  LIG1        0.0016
     29 C           1.2960    0.5000    0.0000 C.ar    1  LIG1        0.0366
     30 C           1.3040   -0.5040    0.0000 C.ar    1  LIG1       -0.0008
     31 O           2.1710   -4.0080    0.0000 O.2     1  LIG1       -0.2497
@<TRIPOS>BOND
     1     1     2   ar
     2     1     6   ar
     3     1    15    1
     4     2     3   ar
     5     2    12    1
     6     3     4   ar
     7     3    11   ar
     8     4     5   ar
     9     4     8   ar
    10     5     6   ar
    11     6     7    2
    12     8     9   ar
    13     9    10   ar
    14    10    11   ar
    15    12    13    1
    16    13    14    1
    17    13    31    2
    18    14    15    1
    19    15    16    1
    20    16    17   ar
    21    16    30   ar
    22    17    18   ar
    23    18    19   ar
    24    19    20    1
    25    19    29   ar
    26    20    21    1
    27    21    22    1
    28    22    23   ar
    29    22    28   ar
    30    23    24    1
    31    23    25   ar
    32    25    26   ar
    33    26    27   ar
    34    27    28   ar
    35    29    30   ar
