@<TRIPOS>MOLECULE
35033_ChemDiv_8017-5291
 25 28 0 0 0
SMALL
GASTEIGER
Energy = 0

@<TRIPOS>ATOM
      1 C          -0.0080   -1.5130    0.0000 C.ar    1  LIG1        0.0745
      2 C          -0.0080   -2.5130    0.0000 C.ar    1  LIG1        0.1507
      3 C          -0.8750   -3.0130    0.0000 C.ar    1  LIG1        0.0522
      4 C          -1.7380   -2.5130    0.0000 C.ar    1  LIG1        0.0874
      5 N          -1.7460   -1.5130    0.0000 N.ar    1  LIG1       -0.2079
      6 C          -0.8750   -1.0040    0.0000 C.ar    1  LIG1        0.2784
      7 O          -0.8750   -0.0040    0.0000 O.2     1  LIG1       -0.2654
      8 C          -2.5960   -3.0040    0.0000 C.ar    1  LIG1        0.0193
      9 C          -2.5960   -4.0040    0.0000 C.ar    1  LIG1        0.0015
     10 C          -1.7330   -4.5000    0.0000 C.ar    1  LIG1        0.0002
     11 C          -0.8710   -4.0000    0.0000 C.ar    1  LIG1        0.0045
     12 O           0.8540   -3.0130    0.0000 O.3     1  LIG1       -0.4242
     13 C           1.7250   -2.5130    0.0000 C.2     1  LIG1        0.3221
     14 C           1.7170   -1.5040    0.0000 C.3     1  LIG1        0.1189
     15 C           0.8540   -1.0040    0.0000 C.3     1  LIG1        0.0634
     16 C           0.8500   -0.0040    0.0000 C.ar    1  LIG1       -0.0174
     17 C           1.7170    0.5000    0.0000 C.ar    1  LIG1       -0.0008
     18 C           1.7170    1.5000    0.0000 C.ar    1  LIG1        0.0366
     19 C           0.8500    2.0000    0.0000 C.ar    1  LIG1        0.1385
     20 C          -0.0210    1.4920    0.0000 C.ar    1  LIG1        0.0366
     21 C          -0.0210    0.4920    0.0000 C.ar    1  LIG1       -0.0008
     22 O           0.8420    3.0000    0.0000 O.3     1  LIG1       -0.4755
     23 C           1.7040    3.5130    0.0000 C.3     1  LIG1        0.2055
     24 C           1.7040    4.5000    0.0000 C.3     1  LIG1        0.0512
     25 O           2.5920   -3.0130    0.0000 O.2     1  LIG1       -0.2497
@<TRIPOS>BOND
     1     1     2   ar
     2     1     6   ar
     3     1    15    1
     4     2     3   ar
     5     2    12    1
     6     3     4   ar
     7     3    11   ar
     8     4     5   ar
     9     4     8   ar
    10     5     6   ar
    11     6     7    2
    12     8     9   ar
    13     9    10   ar
    14    10    11   ar
    15    12    13    1
    16    13    14    1
    17    13    25    2
    18    14    15    1
    19    15    16    1
    20    16    17   ar
    21    16    21   ar
    22    17    18   ar
    23    18    19   ar
    24    19    20   ar
    25    19    22    1
    26    20    21   ar
    27    22    23    1
    28    23    24    1
