@<TRIPOS>MOLECULE
35031_ChemDiv_8017-5290
 25 29 0 0 0
SMALL
GASTEIGER
Energy = 0

@<TRIPOS>ATOM
      1 C          -0.0080   -0.8040    0.0000 C.ar    1  LIG1        0.0745
      2 C          -0.0080   -1.8040    0.0000 C.ar    1  LIG1        0.1507
      3 C          -0.8710   -2.3000    0.0000 C.ar    1  LIG1        0.0522
      4 C          -1.7290   -1.8040    0.0000 C.ar    1  LIG1        0.0874
      5 N          -1.7330   -0.8040    0.0000 N.ar    1  LIG1       -0.2079
      6 C          -0.8710   -0.3000    0.0000 C.ar    1  LIG1        0.2784
      7 O          -0.8710    0.7040    0.0000 O.2     1  LIG1       -0.2654
      8 C          -2.5920   -2.3000    0.0000 C.ar    1  LIG1        0.0193
      9 C          -2.5920   -3.2920    0.0000 C.ar    1  LIG1        0.0015
     10 C          -1.7210   -3.7880    0.0000 C.ar    1  LIG1        0.0002
     11 C          -0.8670   -3.2920    0.0000 C.ar    1  LIG1        0.0045
     12 O           0.8540   -2.3000    0.0000 O.3     1  LIG1       -0.4242
     13 C           1.7170   -1.8040    0.0000 C.2     1  LIG1        0.3221
     14 C           1.7170   -0.8000    0.0000 C.3     1  LIG1        0.1189
     15 C           0.8540   -0.3000    0.0000 C.3     1  LIG1        0.0635
     16 C           0.8500    0.7040    0.0000 C.ar    1  LIG1       -0.0144
     17 C           1.7170    1.1960    0.0000 C.ar    1  LIG1        0.0362
     18 C           1.7170    2.1920    0.0000 C.ar    1  LIG1        0.1761
     19 C           0.8420    2.7000    0.0000 C.ar    1  LIG1        0.1764
     20 O           1.0540    3.6790    0.0000 O.3     1  LIG1       -0.4346
     21 C           2.0540    3.7920    0.0000 C.3     1  LIG1        0.4294
     22 O           2.4670    2.8710    0.0000 O.3     1  LIG1       -0.4346
     23 C          -0.0170    2.1920    0.0000 C.ar    1  LIG1        0.0399
     24 C          -0.0170    1.1920    0.0000 C.ar    1  LIG1       -0.0006
     25 O           2.5880   -2.3040    0.0000 O.2     1  LIG1       -0.2497
@<TRIPOS>BOND
     1     1     2   ar
     2     1     6   ar
     3     1    15    1
     4     2     3   ar
     5     2    12    1
     6     3     4   ar
     7     3    11   ar
     8     4     5   ar
     9     4     8   ar
    10     5     6   ar
    11     6     7    2
    12     8     9   ar
    13     9    10   ar
    14    10    11   ar
    15    12    13    1
    16    13    14    1
    17    13    25    2
    18    14    15    1
    19    15    16    1
    20    16    17   ar
    21    16    24   ar
    22    17    18   ar
    23    18    19   ar
    24    18    22    1
    25    19    20    1
    26    19    23   ar
    27    20    21    1
    28    21    22    1
    29    23    24   ar
