@<TRIPOS>MOLECULE
35042_ChemDiv_D271-0476
 32 35 0 0 0
SMALL
GASTEIGER
Energy = 0

@<TRIPOS>ATOM
      1 C           0.0040   -1.9960    0.0000 C.ar    1  LIG1        0.1381
      2 C          -0.0040   -1.0000    0.0000 C.ar    1  LIG1        0.0716
      3 C          -0.8630   -0.5000    0.0000 C.ar    1  LIG1        0.2799
      4 N          -1.7210   -1.0000    0.0000 N.ar    1  LIG1       -0.1846
      5 C          -1.7210   -1.9920    0.0000 C.ar    1  LIG1        0.1756
      6 N          -0.8630   -2.4960    0.0000 N.ar    1  LIG1       -0.2931
      7 C          -0.8830   -3.4920    0.0000 C.3     1  LIG1        0.1337
      8 S          -2.5880   -2.5000    0.0000 S.3     1  LIG1       -0.0724
      9 C          -3.4500   -1.9960    0.0000 C.3     1  LIG1        0.0913
     10 C          -3.4500   -0.9920    0.0000 C.ar    1  LIG1       -0.0112
     11 C          -2.5830   -0.4880    0.0000 C.ar    1  LIG1       -0.0077
     12 C          -2.5830    0.5210    0.0000 C.ar    1  LIG1       -0.0221
     13 C          -3.4500    1.0250    0.0000 C.ar    1  LIG1       -0.0043
     14 C          -4.3250    0.5080    0.0000 C.ar    1  LIG1       -0.0006
     15 C          -4.3210   -0.4880    0.0000 C.ar    1  LIG1       -0.0034
     16 C          -1.7040    1.0130    0.0000 C.3     1  LIG1        0.0310
     17 O          -0.8630    0.5040    0.0000 O.2     1  LIG1       -0.2654
     18 C           0.8540   -0.5000    0.0000 C.3     1  LIG1        0.0613
     19 C           0.8540    0.4920    0.0000 C.ar    1  LIG1       -0.0145
     20 C           1.7210    0.9960    0.0000 C.ar    1  LIG1        0.0363
     21 C           1.7210    1.9960    0.0000 C.ar    1  LIG1        0.1769
     22 C           0.8540    2.4880    0.0000 C.ar    1  LIG1        0.2293
     23 C          -0.0130    1.9830    0.0000 C.ar    1  LIG1        0.0449
     24 C          -0.0130    0.9880    0.0000 C.ar    1  LIG1       -0.0005
     25 O           0.8500    3.4960    0.0000 O.3     1  LIG1       -0.2833
     26 O           2.5830    2.5000    0.0000 O.3     1  LIG1       -0.4722
     27 C           3.4540    2.0000    0.0000 C.3     1  LIG1        0.2057
     28 C           4.3210    2.5040    0.0000 C.3     1  LIG1        0.0512
     29 C           1.7210   -0.9920    0.0000 C.3     1  LIG1        0.0962
     30 C           1.7210   -1.9960    0.0000 C.2     1  LIG1        0.2475
     31 N           0.8540   -2.4960    0.0000 N.am    1  LIG1       -0.1622
     32 O           2.5920   -2.4960    0.0000 O.2     1  LIG1       -0.2729
@<TRIPOS>BOND
     1     1     2   ar
     2     1     6   ar
     3     1    31    1
     4     2     3   ar
     5     2    18    1
     6     3     4   ar
     7     3    17    2
     8     4     5   ar
     9     5     6   ar
    10     5     8    1
    11     6     7    1
    12     8     9    1
    13     9    10    1
    14    10    11   ar
    15    10    15   ar
    16    11    12   ar
    17    12    13   ar
    18    12    16    1
    19    13    14   ar
    20    14    15   ar
    21    18    19    1
    22    18    29    1
    23    19    20   ar
    24    19    24   ar
    25    20    21   ar
    26    21    22   ar
    27    21    26    1
    28    22    23   ar
    29    22    25    1
    30    23    24   ar
    31    26    27    1
    32    27    28    1
    33    29    30    1
    34    30    31   am
    35    30    32    2
