@<TRIPOS>MOLECULE
35046_ChemDiv_8017-2556
 13 14 0 0 0
SMALL
GASTEIGER
Energy = 0

@<TRIPOS>ATOM
      1 N          -1.8330   -0.1580    0.0000 N.ar    1  LIG1        0.1121
      2 C          -0.8880   -0.4670    0.0000 C.ar    1  LIG1        0.3479
      3 N          -0.3000    0.3380    0.0000 N.ar    1  LIG1       -0.2442
      4 C          -0.8880    1.1460    0.0000 C.ar    1  LIG1        0.1822
      5 C          -1.8420    0.8460    0.0000 C.ar    1  LIG1        0.4080
      6 N          -2.7080    1.3380    0.0000 N.pl3   1  LIG1       -0.0516
      7 C           0.7040    0.3380    0.0000 C.ar    1  LIG1        0.0694
      8 C           1.1960   -0.5420    0.0000 C.ar    1  LIG1        0.0177
      9 C           2.1960   -0.5330    0.0000 C.ar    1  LIG1        0.0015
     10 C           2.7040    0.3330    0.0000 C.ar    1  LIG1        0.0001
     11 C           2.2000    1.2080    0.0000 C.ar    1  LIG1        0.0015
     12 C           1.2040    1.2080    0.0000 C.ar    1  LIG1        0.0177
     13 C          -0.3880   -1.3330    0.0000 C.3     1  LIG1        0.1377
@<TRIPOS>BOND
     1     1     2   ar
     2     1     5   ar
     3     2     3   ar
     4     2    13    1
     5     3     4   ar
     6     3     7    1
     7     4     5   ar
     8     5     6    1
     9     7     8   ar
    10     7    12   ar
    11     8     9   ar
    12     9    10   ar
    13    10    11   ar
    14    11    12   ar
