@<TRIPOS>MOLECULE
35040_ChemDiv_8016-8644
 13 14 0 0 0
SMALL
GASTEIGER
Energy = 0

@<TRIPOS>ATOM
      1 C           0.5290   -0.6170    0.0000 C.ar    1  LIG1        0.1615
      2 C           0.5290    0.3830    0.0000 C.ar    1  LIG1        0.0680
      3 C           1.4790    0.6960    0.0000 C.ar    1  LIG1        0.1917
      4 N           2.0670   -0.1170    0.0000 N.ar    1  LIG1       -0.1495
      5 N           1.4790   -0.9250    0.0000 N.ar    1  LIG1       -0.2307
      6 C           1.7880   -1.8790    0.0000 C.3     1  LIG1        0.1555
      7 N           1.7880    1.6460    0.0000 N.pl3   1  LIG1       -0.1053
      8 C          -0.3380    0.8830    0.0000 C.ar    1  LIG1       -0.0149
      9 C          -1.2080    0.3830    0.0000 C.ar    1  LIG1        0.0107
     10 C          -1.2080   -0.6170    0.0000 C.ar    1  LIG1        0.0607
     11 N          -0.3380   -1.1170    0.0000 N.ar    1  LIG1       -0.2311
     12 C          -2.0710   -1.1170    0.0000 C.3     1  LIG1        0.0521
     13 C          -0.3380    1.8830    0.0000 C.3     1  LIG1        0.0313
@<TRIPOS>BOND
     1     1     2   ar
     2     1     5   ar
     3     1    11   ar
     4     2     3   ar
     5     2     8   ar
     6     3     4   ar
     7     3     7    1
     8     4     5   ar
     9     5     6    1
    10     8     9   ar
    11     8    13    1
    12     9    10   ar
    13    10    11   ar
    14    10    12    1
