@<TRIPOS>MOLECULE
35048_ChemDiv_8017-2566
 23 24 0 0 0
SMALL
GASTEIGER
Energy = 0

@<TRIPOS>ATOM
      1 C          -2.1710    2.7540    0.0000 C.ar    1  LIG1        0.1577
      2 C          -1.3000    3.2540    0.0000 C.2     1  LIG1        0.2843
      3 O          -1.3000    4.2500    0.0000 O.2     1  LIG1       -0.2666
      4 N          -0.4330    2.7540    0.0000 N.am    1  LIG1       -0.2000
      5 C          -0.4330    1.7540    0.0000 C.3     1  LIG1        0.1202
      6 C           0.4330    1.2630    0.0000 C.3     1  LIG1        0.0499
      7 C           0.4330    0.2630    0.0000 C.ar    1  LIG1       -0.0172
      8 C           1.2960   -0.2420    0.0000 C.ar    1  LIG1        0.0358
      9 C           1.2960   -1.2420    0.0000 C.ar    1  LIG1        0.1719
     10 C           0.4330   -1.7420    0.0000 C.ar    1  LIG1        0.1722
     11 C          -0.4330   -1.2420    0.0000 C.ar    1  LIG1        0.0397
     12 C          -0.4330   -0.2420    0.0000 C.ar    1  LIG1       -0.0009
     13 O           0.4330   -2.7500    0.0000 O.3     1  LIG1       -0.4724
     14 C          -0.4330   -3.2500    0.0000 C.3     1  LIG1        0.2057
     15 C          -0.4330   -4.2500    0.0000 C.3     1  LIG1        0.0512
     16 O           2.1670   -1.7500    0.0000 O.3     1  LIG1       -0.4724
     17 C           3.0330   -1.2500    0.0000 C.3     1  LIG1        0.2057
     18 C           3.8960   -1.7500    0.0000 C.3     1  LIG1        0.0512
     19 N          -2.1710    1.7540    0.0000 N.ar    1  LIG1       -0.1433
     20 N          -3.0330    1.2630    0.0000 N.ar    1  LIG1       -0.1463
     21 C          -3.9000    1.7540    0.0000 C.ar    1  LIG1        0.1222
     22 C          -3.9000    2.7540    0.0000 C.ar    1  LIG1        0.0243
     23 C          -3.0330    3.2540    0.0000 C.ar    1  LIG1        0.0273
@<TRIPOS>BOND
     1     1     2    1
     2     1    19   ar
     3     1    23   ar
     4     2     3    2
     5     2     4   am
     6     4     5    1
     7     5     6    1
     8     6     7    1
     9     7     8   ar
    10     7    12   ar
    11     8     9   ar
    12     9    10   ar
    13     9    16    1
    14    10    11   ar
    15    10    13    1
    16    11    12   ar
    17    13    14    1
    18    14    15    1
    19    16    17    1
    20    17    18    1
    21    19    20   ar
    22    20    21   ar
    23    21    22   ar
    24    22    23   ar
