@<TRIPOS>MOLECULE
35043_ChemDiv_8016-2739
 23 26 0 0 0
SMALL
GASTEIGER
Energy = 0

@<TRIPOS>ATOM
      1 C          -2.9710   -1.5080    0.0000 C.3     1  LIG1        0.2692
      2 O          -1.9880   -1.4040    0.0000 O.3     1  LIG1       -0.4455
      3 C          -1.7830   -0.4330    0.0000 C.ar    1  LIG1        0.1772
      4 C          -2.6460    0.0580    0.0000 C.ar    1  LIG1        0.1760
      5 O          -3.3710   -0.6080    0.0000 O.3     1  LIG1       -0.4455
      6 C          -2.6460    1.0580    0.0000 C.ar    1  LIG1        0.0415
      7 C          -1.7880    1.5580    0.0000 C.ar    1  LIG1        0.0199
      8 C          -0.9330    1.0710    0.0000 C.ar    1  LIG1        0.0769
      9 N          -0.0670    1.5630    0.0000 N.am    1  LIG1       -0.1753
     10 C           0.7960    1.0710    0.0000 C.2     1  LIG1        0.2690
     11 C           1.6580    1.5710    0.0000 C.ar    1  LIG1        0.0555
     12 C           2.5080    1.0710    0.0000 C.ar    1  LIG1        0.0069
     13 C           3.3710    1.5710    0.0000 C.ar    1  LIG1        0.0298
     14 C           3.3710    2.5630    0.0000 C.ar    1  LIG1        0.1401
     15 C           2.5040    3.0580    0.0000 C.ar    1  LIG1        0.0298
     16 C           1.6460    2.5630    0.0000 C.ar    1  LIG1        0.0069
     17 F           4.2210    3.0710    0.0000 F       1  LIG1       -0.2042
     18 O           0.8040    0.0710    0.0000 O.2     1  LIG1       -0.2680
     19 C          -0.9210    0.0670    0.0000 C.ar    1  LIG1        0.0568
     20 C          -2.4830   -2.3580    0.0000 C.3     1  LIG1        0.0838
     21 C          -3.1960   -3.0670    0.0000 C.3     1  LIG1        0.0078
     22 C          -4.2250   -2.4580    0.0000 C.3     1  LIG1        0.0078
     23 C          -3.9630   -1.5080    0.0000 C.3     1  LIG1        0.0838
@<TRIPOS>BOND
     1     1     2    1
     2     1     5    1
     3     1    20    1
     4     1    23    1
     5     2     3    1
     6     3     4   ar
     7     3    19   ar
     8     4     5    1
     9     4     6   ar
    10     6     7   ar
    11     7     8   ar
    12     8     9    1
    13     8    19   ar
    14     9    10   am
    15    10    11    1
    16    10    18    2
    17    11    12   ar
    18    11    16   ar
    19    12    13   ar
    20    13    14   ar
    21    14    15   ar
    22    14    17    1
    23    15    16   ar
    24    20    21    1
    25    21    22    1
    26    22    23    1
