@<TRIPOS>MOLECULE
35044_ChemDiv_8017-2480
 24 26 0 0 0
SMALL
GASTEIGER
Energy = 0

@<TRIPOS>ATOM
      1 S           4.4630    1.1460    0.0000 S.O2    1  LIG1        0.0935
      2 C           3.5750    0.6500    0.0000 C.ar    1  LIG1        0.1250
      3 C           3.5540   -0.3290    0.0000 C.ar    1  LIG1        0.0197
      4 C           2.7040   -0.8500    0.0000 C.ar    1  LIG1       -0.0012
      5 C           1.8290   -0.3540    0.0000 C.ar    1  LIG1       -0.0005
      6 C           0.9880   -0.8670    0.0000 C.3     1  LIG1        0.1415
      7 N           0.1290   -0.3630    0.0000 N.am    1  LIG1       -0.2005
      8 C          -0.7670   -0.8540    0.0000 C.2     1  LIG1        0.2420
      9 C          -1.6080   -0.3420    0.0000 C.3     1  LIG1        0.0912
     10 C          -2.4960   -0.8420    0.0000 C.3     1  LIG1        0.0315
     11 C          -3.3920   -0.4290    0.0000 C.ar    1  LIG1       -0.0260
     12 C          -4.0670   -1.1670    0.0000 C.ar    1  LIG1       -0.0261
     13 C          -3.5670   -2.0290    0.0000 C.3     1  LIG1        0.0264
     14 C          -2.6170   -1.8420    0.0000 C.3     1  LIG1        0.0095
     15 C          -5.0460   -0.9750    0.0000 C.ar    1  LIG1       -0.0046
     16 C          -5.3580   -0.0170    0.0000 C.ar    1  LIG1       -0.0003
     17 C          -4.6670    0.7080    0.0000 C.ar    1  LIG1       -0.0003
     18 C          -3.7040    0.4960    0.0000 C.ar    1  LIG1       -0.0046
     19 O          -0.7670   -1.8540    0.0000 O.2     1  LIG1       -0.2733
     20 C           1.8290    0.6460    0.0000 C.ar    1  LIG1       -0.0012
     21 C           2.7040    1.1580    0.0000 C.ar    1  LIG1        0.0197
     22 O           4.9540    0.2580    0.0000 O.2     1  LIG1       -0.1503
     23 O           3.9750    2.0330    0.0000 O.2     1  LIG1       -0.1503
     24 N           5.3540    1.6460    0.0000 N.3     1  LIG1        0.0392
@<TRIPOS>BOND
     1     1     2    1
     2     1    22    2
     3     1    23    2
     4     1    24    1
     5     2     3   ar
     6     2    21   ar
     7     3     4   ar
     8     4     5   ar
     9     5     6    1
    10     5    20   ar
    11     6     7    1
    12     7     8   am
    13     8     9    1
    14     8    19    2
    15     9    10    1
    16    10    11    1
    17    10    14    1
    18    11    12   ar
    19    11    18   ar
    20    12    13    1
    21    12    15   ar
    22    13    14    1
    23    15    16   ar
    24    16    17   ar
    25    17    18   ar
    26    20    21   ar
