@<TRIPOS>MOLECULE
35041_ChemDiv_8016-2725
 32 34 0 0 0
SMALL
GASTEIGER
Energy = 0

@<TRIPOS>ATOM
      1 S           0.4460    2.0330    0.0000 S.O2    1  LIG1       -0.0578
      2 N          -0.0580    1.1580    0.0000 N.pl3   1  LIG1       -0.5358
      3 C           0.4460    0.2880    0.0000 C.ar    1  LIG1       -0.1123
      4 C          -0.0460   -0.5710    0.0000 C.ar    1  LIG1       -0.0237
      5 C           0.4460   -1.4250    0.0000 C.ar    1  LIG1        0.0027
      6 C           1.4500   -1.4250    0.0000 C.ar    1  LIG1        0.0549
      7 C           1.9500   -2.2880    0.0000 C.2     1  LIG1        0.2651
      8 N           2.9630   -2.2880    0.0000 N.am    1  LIG1       -0.1968
      9 C           3.4500   -3.1500    0.0000 C.3     1  LIG1        0.1418
     10 C           4.4630   -3.1500    0.0000 C.ar    1  LIG1       -0.0006
     11 C           4.9500   -4.0250    0.0000 C.ar    1  LIG1       -0.0026
     12 C           5.9580   -4.0130    0.0000 C.ar    1  LIG1       -0.0003
     13 C           6.4500   -3.1500    0.0000 C.ar    1  LIG1       -0.0000
     14 C           5.9460   -2.2750    0.0000 C.ar    1  LIG1       -0.0003
     15 C           4.9500   -2.2880    0.0000 C.ar    1  LIG1       -0.0026
     16 O           1.4630   -3.1630    0.0000 O.2     1  LIG1       -0.2684
     17 C           1.9460   -0.5580    0.0000 C.ar    1  LIG1        0.0027
     18 C           1.4380    0.3000    0.0000 C.ar    1  LIG1       -0.0237
     19 C          -0.4080    2.5250    0.0000 C.ar    1  LIG1        0.0893
     20 C          -1.2830    2.0210    0.0000 C.ar    1  LIG1        0.0166
     21 C          -2.1580    2.5250    0.0000 C.ar    1  LIG1       -0.0029
     22 C          -2.1460    3.5330    0.0000 C.ar    1  LIG1       -0.0203
     23 C          -1.2830    4.0250    0.0000 C.ar    1  LIG1       -0.0029
     24 C          -0.4210    3.5330    0.0000 C.ar    1  LIG1        0.0166
     25 C          -3.0210    4.0250    0.0000 C.3     1  LIG1        0.0498
     26 C          -3.8750    3.5330    0.0000 C.3     1  LIG1        0.1198
     27 N          -4.7380    4.0250    0.0000 N.am    1  LIG1       -0.2051
     28 C          -5.6000    3.5330    0.0000 C.2     1  LIG1        0.2419
     29 O          -6.4500    4.0250    0.0000 O.2     1  LIG1       -0.2733
     30 C          -5.5920    2.5330    0.0000 C.3     1  LIG1        0.0964
     31 O           0.9500    2.8960    0.0000 O.2     1  LIG1       -0.1842
     32 O           1.3210    1.5330    0.0000 O.2     1  LIG1       -0.1842
@<TRIPOS>BOND
     1     1     2    1
     2     1    19    1
     3     1    31    2
     4     1    32    2
     5     2     3    1
     6     3     4   ar
     7     3    18   ar
     8     4     5   ar
     9     5     6   ar
    10     6     7    1
    11     6    17   ar
    12     7     8   am
    13     7    16    2
    14     8     9    1
    15     9    10    1
    16    10    11   ar
    17    10    15   ar
    18    11    12   ar
    19    12    13   ar
    20    13    14   ar
    21    14    15   ar
    22    17    18   ar
    23    19    20   ar
    24    19    24   ar
    25    20    21   ar
    26    21    22   ar
    27    22    23   ar
    28    22    25    1
    29    23    24   ar
    30    25    26    1
    31    26    27    1
    32    27    28   am
    33    28    29    2
    34    28    30    1
