@<TRIPOS>MOLECULE
35058_ChemDiv_8016-8658
 23 26 0 0 0
SMALL
GASTEIGER
Energy = 0

@<TRIPOS>ATOM
      1 C          -0.1830   -0.1290    0.0000 C.ar    1  LIG1        0.0834
      2 C           0.8170   -0.1290    0.0000 C.ar    1  LIG1        0.1728
      3 N           1.3170   -0.9920    0.0000 N.ar    1  LIG1       -0.1882
      4 C           2.3170   -0.9920    0.0000 C.ar    1  LIG1        0.2820
      5 C           2.8170   -0.1290    0.0000 C.ar    1  LIG1        0.0756
      6 C           2.3170    0.7290    0.0000 C.ar    1  LIG1        0.0876
      7 N           1.3170    0.7290    0.0000 N.ar    1  LIG1       -0.2259
      8 C           2.8170    1.5960    0.0000 C.ar    1  LIG1        0.0193
      9 C           3.8170    1.5960    0.0000 C.ar    1  LIG1        0.0015
     10 C           4.3170    0.7290    0.0000 C.ar    1  LIG1        0.0003
     11 C           3.8170   -0.1420    0.0000 C.ar    1  LIG1        0.0063
     12 O           2.8170   -1.8630    0.0000 O.2     1  LIG1       -0.2651
     13 C          -0.7710    0.6710    0.0000 C.ar    1  LIG1        0.0996
     14 C          -1.7210    0.3670    0.0000 C.ar    1  LIG1        0.0372
     15 C          -1.7210   -0.6290    0.0000 C.ar    1  LIG1        0.1114
     16 S          -0.7710   -0.9420    0.0000 S.2     1  LIG1       -0.0635
     17 N          -2.5880   -1.1290    0.0000 N.ar    1  LIG1       -0.2431
     18 C          -3.4580   -0.6290    0.0000 C.ar    1  LIG1        0.0596
     19 C          -3.4580    0.3670    0.0000 C.ar    1  LIG1        0.0106
     20 C          -2.5880    0.8670    0.0000 C.ar    1  LIG1       -0.0174
     21 C          -2.5880    1.8670    0.0000 C.3     1  LIG1        0.0312
     22 C          -4.3210   -1.1290    0.0000 C.3     1  LIG1        0.0521
     23 N          -0.2710    1.5420    0.0000 N.pl3   1  LIG1       -0.1274
@<TRIPOS>BOND
     1     1     2    1
     2     1    13   ar
     3     1    16   ar
     4     2     3   ar
     5     2     7   ar
     6     3     4   ar
     7     4     5   ar
     8     4    12    2
     9     5     6   ar
    10     5    11   ar
    11     6     7   ar
    12     6     8   ar
    13     8     9   ar
    14     9    10   ar
    15    10    11   ar
    16    13    14   ar
    17    13    23    1
    18    14    15   ar
    19    14    20   ar
    20    15    16   ar
    21    15    17   ar
    22    17    18   ar
    23    18    19   ar
    24    18    22    1
    25    19    20   ar
    26    20    21    1
