@<TRIPOS>MOLECULE
35057_ChemDiv_8017-9145
 25 29 0 0 0
SMALL
GASTEIGER
Energy = 0

@<TRIPOS>ATOM
      1 C          -0.3670   -0.4000    0.0000 C.ar    1  LIG1        0.0745
      2 C          -0.3580   -1.4040    0.0000 C.ar    1  LIG1        0.1507
      3 C          -1.2290   -1.9000    0.0000 C.ar    1  LIG1        0.0522
      4 C          -2.0920   -1.4040    0.0000 C.ar    1  LIG1        0.0874
      5 N          -2.0920   -0.4000    0.0000 N.ar    1  LIG1       -0.2079
      6 C          -1.2290    0.1080    0.0000 C.ar    1  LIG1        0.2784
      7 O          -1.2290    1.1080    0.0000 O.2     1  LIG1       -0.2654
      8 C          -2.9540   -1.9000    0.0000 C.ar    1  LIG1        0.0193
      9 C          -2.9460   -2.8920    0.0000 C.ar    1  LIG1        0.0015
     10 C          -2.0790   -3.3920    0.0000 C.ar    1  LIG1        0.0002
     11 C          -1.2290   -2.8920    0.0000 C.ar    1  LIG1        0.0045
     12 O           0.5000   -1.9040    0.0000 O.3     1  LIG1       -0.4242
     13 C           1.3670   -1.4040    0.0000 C.2     1  LIG1        0.3221
     14 C           1.3670   -0.4000    0.0000 C.3     1  LIG1        0.1190
     15 C           0.5000    0.1080    0.0000 C.3     1  LIG1        0.0650
     16 C           0.4920    1.1080    0.0000 C.ar    1  LIG1        0.0030
     17 C          -0.3170    1.6960    0.0000 C.ar    1  LIG1        0.0949
     18 N          -0.0040    2.6500    0.0000 N.ar    1  LIG1       -0.2442
     19 C           0.9920    2.6580    0.0000 C.ar    1  LIG1        0.0810
     20 C           1.3040    1.7000    0.0000 C.ar    1  LIG1        0.0155
     21 C           2.2790    1.4960    0.0000 C.ar    1  LIG1        0.0012
     22 C           2.9500    2.2460    0.0000 C.ar    1  LIG1        0.0001
     23 C           2.6290    3.1960    0.0000 C.ar    1  LIG1        0.0015
     24 C           1.6540    3.3960    0.0000 C.ar    1  LIG1        0.0191
     25 O           2.2380   -1.9040    0.0000 O.2     1  LIG1       -0.2497
@<TRIPOS>BOND
     1     1     2   ar
     2     1     6   ar
     3     1    15    1
     4     2     3   ar
     5     2    12    1
     6     3     4   ar
     7     3    11   ar
     8     4     5   ar
     9     4     8   ar
    10     5     6   ar
    11     6     7    2
    12     8     9   ar
    13     9    10   ar
    14    10    11   ar
    15    12    13    1
    16    13    14    1
    17    13    25    2
    18    14    15    1
    19    15    16    1
    20    16    17   ar
    21    16    20   ar
    22    17    18   ar
    23    18    19   ar
    24    19    20   ar
    25    19    24   ar
    26    20    21   ar
    27    21    22   ar
    28    22    23   ar
    29    23    24   ar
