@<TRIPOS>MOLECULE
35051_ChemDiv_8016-2772
 30 34 0 0 0
SMALL
GASTEIGER
Energy = 0

@<TRIPOS>ATOM
      1 S          -3.5580   -0.9920    0.0000 S.O2    1  LIG1        0.0633
      2 N          -4.5380   -1.1500    0.0000 N.3     1  LIG1       -0.1555
      3 C          -5.2460   -0.4380    0.0000 C.3     1  LIG1        0.0958
      4 C          -6.1380   -0.8790    0.0000 C.3     1  LIG1        0.0206
      5 C          -5.9960   -1.8750    0.0000 C.3     1  LIG1        0.0206
      6 C          -5.0080   -2.0380    0.0000 C.3     1  LIG1        0.0958
      7 C          -2.5630   -0.8380    0.0000 C.ar    1  LIG1        0.1222
      8 C          -2.1960    0.0920    0.0000 C.ar    1  LIG1        0.0201
      9 C          -1.2080    0.2460    0.0000 C.ar    1  LIG1        0.0059
     10 C          -0.5750   -0.5420    0.0000 C.ar    1  LIG1        0.0555
     11 C           0.4210   -0.4040    0.0000 C.2     1  LIG1        0.2690
     12 N           0.7830    0.5290    0.0000 N.am    1  LIG1       -0.1754
     13 C           1.7500    0.7920    0.0000 C.ar    1  LIG1        0.0739
     14 C           2.4710    0.0960    0.0000 C.ar    1  LIG1        0.0194
     15 C           3.4380    0.3670    0.0000 C.ar    1  LIG1        0.0345
     16 C           4.2750   -0.1540    0.0000 C.ar    1  LIG1        0.0111
     17 C           5.0380    0.4710    0.0000 C.ar    1  LIG1        0.1188
     18 O           4.6710    1.3920    0.0000 O.2     1  LIG1       -0.4581
     19 C           3.6750    1.3290    0.0000 C.ar    1  LIG1        0.1446
     20 C           2.9630    2.0420    0.0000 C.ar    1  LIG1        0.0388
     21 C           2.0000    1.7670    0.0000 C.ar    1  LIG1        0.0197
     22 C           5.9630    0.1330    0.0000 C.3     1  LIG1        0.0642
     23 C           6.1380   -0.8420    0.0000 C.3     1  LIG1        0.0083
     24 C           5.3710   -1.4750    0.0000 C.3     1  LIG1        0.0052
     25 C           4.4380   -1.1290    0.0000 C.3     1  LIG1        0.0292
     26 O           1.0380   -1.1920    0.0000 O.2     1  LIG1       -0.2680
     27 C          -0.9500   -1.4790    0.0000 C.ar    1  LIG1        0.0059
     28 C          -1.9500   -1.6290    0.0000 C.ar    1  LIG1        0.0201
     29 O          -3.6960    0.0040    0.0000 O.2     1  LIG1       -0.1528
     30 O          -3.4130   -1.9790    0.0000 O.2     1  LIG1       -0.1528
@<TRIPOS>BOND
     1     1     2    1
     2     1     7    1
     3     1    29    2
     4     1    30    2
     5     2     3    1
     6     2     6    1
     7     3     4    1
     8     4     5    1
     9     5     6    1
    10     7     8   ar
    11     7    28   ar
    12     8     9   ar
    13     9    10   ar
    14    10    11    1
    15    10    27   ar
    16    11    12   am
    17    11    26    2
    18    12    13    1
    19    13    14   ar
    20    13    21   ar
    21    14    15   ar
    22    15    16   ar
    23    15    19   ar
    24    16    17   ar
    25    16    25    1
    26    17    18   ar
    27    17    22    1
    28    18    19   ar
    29    19    20   ar
    30    20    21   ar
    31    22    23    1
    32    23    24    1
    33    24    25    1
    34    27    28   ar
