@<TRIPOS>MOLECULE
35050_ChemDiv_8017-2657
 24 26 0 0 0
SMALL
GASTEIGER
Energy = 0

@<TRIPOS>ATOM
      1 S          -1.5250   -0.3670    0.0000 S.O2    1  LIG1        0.0771
      2 N          -0.5250   -0.3670    0.0000 N.3     1  LIG1       -0.0748
      3 C          -0.0210    0.4960    0.0000 C.3     1  LIG1        0.1199
      4 C           0.9790    0.4920    0.0000 C.ar    1  LIG1       -0.0045
      5 C           1.4790   -0.3790    0.0000 C.ar    1  LIG1       -0.0014
      6 C           2.4790   -0.3790    0.0000 C.ar    1  LIG1        0.0173
      7 C           2.9750    0.4790    0.0000 C.ar    1  LIG1        0.0655
      8 N           3.9750    0.4790    0.0000 N.ar    1  LIG1       -0.2864
      9 C           4.5540   -0.3330    0.0000 C.ar    1  LIG1        0.1828
     10 N           5.5130   -0.0330    0.0000 N.ar    1  LIG1       -0.2220
     11 C           5.5170    0.9670    0.0000 C.ar    1  LIG1        0.1196
     12 C           4.5670    1.2830    0.0000 C.ar    1  LIG1        0.1022
     13 C           2.4790    1.3540    0.0000 C.ar    1  LIG1        0.0173
     14 C           1.4790    1.3540    0.0000 C.ar    1  LIG1       -0.0014
     15 C          -0.5210    1.3670    0.0000 C.3     1  LIG1        0.0257
     16 C          -2.5250   -0.3580    0.0000 C.ar    1  LIG1        0.1237
     17 C          -3.0210    0.5040    0.0000 C.ar    1  LIG1        0.0223
     18 C          -4.0210    0.5080    0.0000 C.ar    1  LIG1        0.0310
     19 C          -4.5210   -0.3580    0.0000 C.ar    1  LIG1        0.1402
     20 C          -4.0210   -1.2250    0.0000 C.ar    1  LIG1        0.0310
     21 C          -3.0210   -1.2170    0.0000 C.ar    1  LIG1        0.0223
     22 F          -5.5210   -0.3540    0.0000 F       1  LIG1       -0.2042
     23 O          -1.5330    0.6330    0.0000 O.2     1  LIG1       -0.1516
     24 O          -1.5330   -1.3630    0.0000 O.2     1  LIG1       -0.1516
@<TRIPOS>BOND
     1     1     2    1
     2     1    16    1
     3     1    23    2
     4     1    24    2
     5     2     3    1
     6     3     4    1
     7     3    15    1
     8     4     5   ar
     9     4    14   ar
    10     5     6   ar
    11     6     7   ar
    12     7     8    1
    13     7    13   ar
    14     8     9   ar
    15     8    12   ar
    16     9    10   ar
    17    10    11   ar
    18    11    12   ar
    19    13    14   ar
    20    16    17   ar
    21    16    21   ar
    22    17    18   ar
    23    18    19   ar
    24    19    20   ar
    25    19    22    1
    26    20    21   ar
