@<TRIPOS>MOLECULE
35055_ChemDiv_8016-2818
 33 36 0 0 0
SMALL
GASTEIGER
Energy = 0

@<TRIPOS>ATOM
      1 C          -4.5250   -0.4040    0.0000 C.2     1  LIG1        0.3278
      2 N          -4.5250    0.5920    0.0000 N.am    1  LIG1       -0.2558
      3 C          -3.7170    1.1830    0.0000 C.3     1  LIG1        0.1548
      4 C          -2.7540    0.8670    0.0000 C.2     1  LIG1        0.2596
      5 O          -2.5540   -0.1040    0.0000 O.2     1  LIG1       -0.2716
      6 N          -2.0170    1.5420    0.0000 N.am    1  LIG1       -0.2000
      7 C          -1.0580    1.2420    0.0000 C.3     1  LIG1        0.1624
      8 C          -0.3210    1.9040    0.0000 C.3     1  LIG1        0.2287
      9 O           0.6290    1.5960    0.0000 O.3     1  LIG1       -0.4739
     10 C           1.3790    2.2630    0.0000 C.ar    1  LIG1        0.1349
     11 C           2.3290    1.9500    0.0000 C.ar    1  LIG1        0.0162
     12 C           2.5290    0.9710    0.0000 C.3     1  LIG1        0.0557
     13 C           3.4790    0.6580    0.0000 C.ar    1  LIG1       -0.0177
     14 C           3.6790   -0.3250    0.0000 C.ar    1  LIG1       -0.0039
     15 C           4.6290   -0.6290    0.0000 C.ar    1  LIG1       -0.0003
     16 C           5.3830    0.0290    0.0000 C.ar    1  LIG1       -0.0000
     17 C           5.1750    1.0170    0.0000 C.ar    1  LIG1       -0.0003
     18 C           4.2250    1.3210    0.0000 C.ar    1  LIG1       -0.0039
     19 C           3.0670    2.6210    0.0000 C.ar    1  LIG1       -0.0009
     20 C           2.8630    3.5920    0.0000 C.ar    1  LIG1       -0.0001
     21 C           1.9040    3.9040    0.0000 C.ar    1  LIG1        0.0031
     22 C           1.1670    3.2290    0.0000 C.ar    1  LIG1        0.0366
     23 C          -4.0170    2.1290    0.0000 C.3     1  LIG1        0.0311
     24 C          -5.0170    2.1290    0.0000 C.3     1  LIG1        0.0238
     25 C          -5.3330    1.1830    0.0000 C.3     1  LIG1        0.0955
     26 N          -3.6540   -0.9040    0.0000 N.am    1  LIG1       -0.1622
     27 C          -3.6540   -1.9040    0.0000 C.ar    1  LIG1        0.0749
     28 C          -4.5250   -2.3920    0.0000 C.ar    1  LIG1        0.0166
     29 C          -4.5250   -3.4000    0.0000 C.ar    1  LIG1        0.0013
     30 C          -3.6540   -3.9000    0.0000 C.ar    1  LIG1        0.0001
     31 C          -2.7790   -3.3920    0.0000 C.ar    1  LIG1        0.0013
     32 C          -2.7920   -2.3920    0.0000 C.ar    1  LIG1        0.0166
     33 O          -5.3880   -0.9040    0.0000 O.2     1  LIG1       -0.2504
@<TRIPOS>BOND
     1     1     2   am
     2     1    26   am
     3     1    33    2
     4     2     3    1
     5     2    25    1
     6     3     4    1
     7     3    23    1
     8     4     5    2
     9     4     6   am
    10     6     7    1
    11     7     8    1
    12     8     9    1
    13     9    10    1
    14    10    11   ar
    15    10    22   ar
    16    11    12    1
    17    11    19   ar
    18    12    13    1
    19    13    14   ar
    20    13    18   ar
    21    14    15   ar
    22    15    16   ar
    23    16    17   ar
    24    17    18   ar
    25    19    20   ar
    26    20    21   ar
    27    21    22   ar
    28    23    24    1
    29    24    25    1
    30    26    27    1
    31    27    28   ar
    32    27    32   ar
    33    28    29   ar
    34    29    30   ar
    35    30    31   ar
    36    31    32   ar
