@<TRIPOS>MOLECULE
35052_ChemDiv_8017-2714
 24 26 0 0 0
SMALL
GASTEIGER
Energy = 0

@<TRIPOS>ATOM
      1 C          -4.2330   -0.7290    0.0000 C.ar    1  LIG1        0.1240
      2 C          -3.3750   -1.2130    0.0000 C.ar    1  LIG1        0.1808
      3 N          -3.3750   -2.1880    0.0000 N.ar    1  LIG1       -0.1306
      4 N          -5.0580   -2.1880    0.0000 N.ar    1  LIG1       -0.1443
      5 C          -5.0580   -1.2130    0.0000 C.ar    1  LIG1        0.1353
      6 N          -2.5330   -0.7290    0.0000 N.pl3   1  LIG1       -0.2133
      7 C          -1.6880   -1.2130    0.0000 C.3     1  LIG1        0.1434
      8 C          -0.8460   -0.7290    0.0000 C.ar    1  LIG1        0.0386
      9 C          -0.8460    0.2420    0.0000 C.ar    1  LIG1        0.1964
     10 C           0.0000    0.7290    0.0000 C.ar    1  LIG1        0.0786
     11 C           0.8420    0.2420    0.0000 C.ar    1  LIG1        0.1422
     12 O           1.6790    0.7290    0.0000 O.3     1  LIG1       -0.4705
     13 C           2.5290    0.2420    0.0000 C.3     1  LIG1        0.2320
     14 C           3.3670    0.7290    0.0000 C.ar    1  LIG1        0.0212
     15 C           4.2130    0.2420    0.0000 C.ar    1  LIG1       -0.0007
     16 C           5.0540    0.7290    0.0000 C.ar    1  LIG1       -0.0002
     17 C           5.0540    1.7040    0.0000 C.ar    1  LIG1       -0.0000
     18 C           4.2130    2.1920    0.0000 C.ar    1  LIG1       -0.0002
     19 C           3.3670    1.7040    0.0000 C.ar    1  LIG1       -0.0007
     20 C           0.8420   -0.7290    0.0000 C.ar    1  LIG1        0.0369
     21 C           0.0000   -1.2130    0.0000 C.ar    1  LIG1        0.0037
     22 O          -1.6880    0.7290    0.0000 O.3     1  LIG1       -0.2867
     23 C          -4.2330    0.2330    0.0000 C.1     1  LIG1        0.1050
     24 N          -3.3960    0.7170    0.0000 N.1     1  LIG1       -0.1907
@<TRIPOS>BOND
     1     1     2   ar
     2     1     5   ar
     3     1    23    1
     4     2     3   ar
     5     2     6    1
     6     3     4   ar
     7     4     5   ar
     8     6     7    1
     9     7     8    1
    10     8     9   ar
    11     8    21   ar
    12     9    10   ar
    13     9    22    1
    14    10    11   ar
    15    11    12    1
    16    11    20   ar
    17    12    13    1
    18    13    14    1
    19    14    15   ar
    20    14    19   ar
    21    15    16   ar
    22    16    17   ar
    23    17    18   ar
    24    18    19   ar
    25    20    21   ar
    26    23    24    3
