@<TRIPOS>MOLECULE
35069_ChemDiv_8016-5201
 16 17 0 0 0
SMALL
GASTEIGER
Energy = 0

@<TRIPOS>ATOM
      1 C           0.1750   -0.4920    0.0000 C.3     1  LIG1        0.0623
      2 C           1.1500   -0.7500    0.0000 C.2     1  LIG1        0.0538
      3 O           1.8920   -0.0420    0.0000 O.co2   1  LIG1       -0.5489
      4 O           1.4130   -1.7420    0.0000 O.co2   1  LIG1       -0.5489
      5 C          -0.6960    0.0040    0.0000 C.3     1  LIG1        0.0722
      6 C          -1.5630   -0.4790    0.0000 C.3     1  LIG1        0.1396
      7 N          -1.5630   -1.4750    0.0000 N.4     1  LIG1        0.3820
      8 C          -0.6960   -1.9750    0.0000 C.3     1  LIG1        0.1396
      9 C           0.1630   -1.4880    0.0000 C.3     1  LIG1        0.0722
     10 C          -2.4330   -1.9750    0.0000 C.3     1  LIG1        0.2022
     11 C           0.8130    0.2830    0.0000 C.ar    1  LIG1       -0.0175
     12 C           0.4670    1.2080    0.0000 C.ar    1  LIG1       -0.0039
     13 C           1.0920    1.9790    0.0000 C.ar    1  LIG1       -0.0003
     14 C           2.0790    1.8040    0.0000 C.ar    1  LIG1       -0.0000
     15 C           2.4290    0.8830    0.0000 C.ar    1  LIG1       -0.0003
     16 C           1.7880    0.1250    0.0000 C.ar    1  LIG1       -0.0039
@<TRIPOS>BOND
     1     1     2    1
     2     1     5    1
     3     1     9    1
     4     1    11    1
     5     2     3   ar
     6     2     4   ar
     7     5     6    1
     8     6     7    1
     9     7     8    1
    10     7    10    1
    11     8     9    1
    12    11    12   ar
    13    11    16   ar
    14    12    13   ar
    15    13    14   ar
    16    14    15   ar
    17    15    16   ar
