@<TRIPOS>MOLECULE
35068_ChemDiv_8017-3875
 34 39 0 0 0
SMALL
GASTEIGER
Energy = 0

@<TRIPOS>ATOM
      1 C          -2.3790   -0.9920    0.0000 C.3     1  LIG1        0.0512
      2 C          -1.3790   -0.9500    0.0000 C.ar    1  LIG1        0.1222
      3 O          -0.7540   -1.7380    0.0000 O.2     1  LIG1       -0.4531
      4 C           0.1790   -1.3880    0.0000 C.ar    1  LIG1        0.1999
      5 C           1.0170   -1.9500    0.0000 C.2     1  LIG1        0.3037
      6 N           1.9170   -1.5040    0.0000 N.am    1  LIG1       -0.1727
      7 C           2.7420   -2.0540    0.0000 C.ar    1  LIG1        0.0782
      8 C           3.7130   -1.7920    0.0000 C.ar    1  LIG1        0.0707
      9 C           3.9670   -0.8290    0.0000 C.2     1  LIG1        0.2702
     10 N           3.2540   -0.1290    0.0000 N.am    1  LIG1       -0.1754
     11 C           3.5040    0.8330    0.0000 C.ar    1  LIG1        0.0738
     12 C           2.7920    1.5330    0.0000 C.ar    1  LIG1        0.0189
     13 C           3.0420    2.4960    0.0000 C.ar    1  LIG1        0.0310
     14 C           4.0040    2.7670    0.0000 C.ar    1  LIG1        0.1402
     15 F           4.2630    3.7290    0.0000 F       1  LIG1       -0.2042
     16 C           4.7170    2.0580    0.0000 C.ar    1  LIG1        0.0310
     17 C           4.4670    1.0960    0.0000 C.ar    1  LIG1        0.0189
     18 O           4.9250   -0.5670    0.0000 O.2     1  LIG1       -0.2680
     19 C           4.4250   -2.4920    0.0000 C.ar    1  LIG1        0.0059
     20 C           4.1750   -3.4540    0.0000 C.ar    1  LIG1        0.0002
     21 C           3.2040   -3.7250    0.0000 C.ar    1  LIG1        0.0013
     22 C           2.4920   -3.0250    0.0000 C.ar    1  LIG1        0.0168
     23 O           0.9540   -2.9500    0.0000 O.2     1  LIG1       -0.2646
     24 C           0.1420   -0.3880    0.0000 C.ar    1  LIG1        0.0450
     25 C          -0.8170   -0.1170    0.0000 C.ar    1  LIG1        0.0362
     26 C          -2.3710    0.0000    0.0000 C.3     1  LIG1        0.0071
     27 C          -3.2790    0.3830    0.0000 C.3     1  LIG1        0.0004
     28 C          -4.1540    0.0710    0.0000 C.3     1  LIG1        0.0000
     29 C          -4.1500   -0.9000    0.0000 C.3     1  LIG1        0.0004
     30 C          -3.2920   -1.2170    0.0000 C.3     1  LIG1        0.0071
     31 C          -4.9290   -1.7290    0.0000 C.3     1  LIG1        0.0000
     32 C          -3.9540   -1.4540    0.0000 C.3     1  LIG1        0.0004
     33 C          -3.0330   -1.8250    0.0000 C.3     1  LIG1        0.0071
     34 C          -3.9540   -0.4250    0.0000 C.3     1  LIG1        0.0000
@<TRIPOS>BOND
     1     1     2    1
     2     1    26    1
     3     1    30    1
     4     1    33    1
     5     2     3   ar
     6     2    25   ar
     7     3     4   ar
     8     4     5    1
     9     4    24   ar
    10     5     6   am
    11     5    23    2
    12     6     7    1
    13     7     8   ar
    14     7    22   ar
    15     8     9    1
    16     8    19   ar
    17     9    10   am
    18     9    18    2
    19    10    11    1
    20    11    12   ar
    21    11    17   ar
    22    12    13   ar
    23    13    14   ar
    24    14    15    1
    25    14    16   ar
    26    16    17   ar
    27    19    20   ar
    28    20    21   ar
    29    21    22   ar
    30    24    25   ar
    31    26    27    1
    32    27    28    1
    33    27    34    1
    34    28    29    1
    35    29    30    1
    36    29    31    1
    37    31    32    1
    38    32    33    1
    39    32    34    1
