@<TRIPOS>MOLECULE
35066_ChemDiv_8016-9090
 28 30 0 0 0
SMALL
GASTEIGER
Energy = 0

@<TRIPOS>ATOM
      1 C          -0.4210    2.5210    0.0000 C.2     1  LIG1        0.2702
      2 C          -1.2830    2.0130    0.0000 C.ar    1  LIG1        0.0707
      3 C          -1.2750    0.9880    0.0000 C.ar    1  LIG1        0.0782
      4 N          -0.4210    0.4790    0.0000 N.am    1  LIG1       -0.1727
      5 C          -0.4210   -0.5330    0.0000 C.2     1  LIG1        0.3037
      6 C           0.4380   -1.0380    0.0000 C.ar    1  LIG1        0.1999
      7 O           0.4380   -2.0500    0.0000 O.2     1  LIG1       -0.4531
      8 C           1.3750   -2.3630    0.0000 C.ar    1  LIG1        0.1231
      9 C           1.9540   -1.5500    0.0000 C.ar    1  LIG1        0.0362
     10 C           1.3790   -0.7250    0.0000 C.ar    1  LIG1        0.0450
     11 C           1.6790   -3.3250    0.0000 C.3     1  LIG1        0.0645
     12 C           1.0170   -4.0790    0.0000 C.3     1  LIG1        0.0075
     13 C           1.3170   -5.0500    0.0000 C.3     1  LIG1        0.0005
     14 C           0.0540   -3.8750    0.0000 C.3     1  LIG1        0.0005
     15 O          -1.2710   -1.0380    0.0000 O.2     1  LIG1       -0.2646
     16 C          -2.1330    0.4750    0.0000 C.ar    1  LIG1        0.0168
     17 C          -2.9830    0.9880    0.0000 C.ar    1  LIG1        0.0013
     18 C          -2.9830    2.0000    0.0000 C.ar    1  LIG1        0.0002
     19 C          -2.1380    2.5130    0.0000 C.ar    1  LIG1        0.0059
     20 N           0.4250    2.0130    0.0000 N.am    1  LIG1       -0.1754
     21 C           1.2790    2.5380    0.0000 C.ar    1  LIG1        0.0734
     22 C           1.2790    3.5460    0.0000 C.ar    1  LIG1        0.0124
     23 C           2.1250    4.0370    0.0000 C.ar    1  LIG1       -0.0206
     24 C           2.9750    3.5540    0.0000 C.ar    1  LIG1       -0.0042
     25 C           2.9790    2.5380    0.0000 C.ar    1  LIG1        0.0010
     26 C           2.1290    2.0250    0.0000 C.ar    1  LIG1        0.0166
     27 C           2.1170    5.0500    0.0000 C.3     1  LIG1        0.0311
     28 O          -0.4250    3.5330    0.0000 O.2     1  LIG1       -0.2680
@<TRIPOS>BOND
     1     1     2    1
     2     1    20   am
     3     1    28    2
     4     2     3   ar
     5     2    19   ar
     6     3     4    1
     7     3    16   ar
     8     4     5   am
     9     5     6    1
    10     5    15    2
    11     6     7   ar
    12     6    10   ar
    13     7     8   ar
    14     8     9   ar
    15     8    11    1
    16     9    10   ar
    17    11    12    1
    18    12    13    1
    19    12    14    1
    20    16    17   ar
    21    17    18   ar
    22    18    19   ar
    23    20    21    1
    24    21    22   ar
    25    21    26   ar
    26    22    23   ar
    27    23    24   ar
    28    23    27    1
    29    24    25   ar
    30    25    26   ar
