@<TRIPOS>MOLECULE
35062_ChemDiv_8016-9082
 30 33 0 0 0
SMALL
GASTEIGER
Energy = 0

@<TRIPOS>ATOM
      1 S          -2.6130   -0.5580    0.0000 S.O2    1  LIG1        0.0637
      2 N          -3.2000    0.2540    0.0000 N.3     1  LIG1       -0.1481
      3 C          -2.8880    1.2080    0.0000 C.3     1  LIG1        0.1575
      4 C          -1.9380    1.5130    0.0000 C.2     1  LIG1        0.2617
      5 N          -1.1960    0.8460    0.0000 N.am    1  LIG1       -0.1780
      6 C          -0.2460    1.1500    0.0000 C.ar    1  LIG1        0.0735
      7 C          -0.0420    2.1250    0.0000 C.ar    1  LIG1        0.0179
      8 C           0.9080    2.4460    0.0000 C.ar    1  LIG1        0.0159
      9 C           1.6580    1.7750    0.0000 C.ar    1  LIG1        0.0481
     10 N           2.6080    2.0880    0.0000 N.pl3   1  LIG1       -0.3028
     11 C           3.3580    1.4210    0.0000 C.3     1  LIG1        0.1231
     12 C           4.2960    1.7380    0.0000 C.3     1  LIG1        0.1636
     13 O           4.5040    2.7130    0.0000 O.3     1  LIG1       -0.3501
     14 C           3.7580    3.3830    0.0000 C.3     1  LIG1        0.1636
     15 C           2.8080    3.0630    0.0000 C.3     1  LIG1        0.1231
     16 C           1.4540    0.7960    0.0000 C.ar    1  LIG1        0.0159
     17 C           0.5040    0.4830    0.0000 C.ar    1  LIG1        0.0179
     18 O          -1.7250    2.4960    0.0000 O.2     1  LIG1       -0.2715
     19 C          -3.7000    1.7960    0.0000 C.3     1  LIG1        0.0286
     20 C          -4.5080    1.2080    0.0000 C.3     1  LIG1        0.0211
     21 C          -4.2040    0.2540    0.0000 C.3     1  LIG1        0.0964
     22 C          -1.9080   -1.2670    0.0000 C.ar    1  LIG1        0.1223
     23 C          -2.1630   -2.2330    0.0000 C.ar    1  LIG1        0.0213
     24 C          -1.4580   -2.9330    0.0000 C.ar    1  LIG1        0.0194
     25 C          -0.4960   -2.6710    0.0000 C.ar    1  LIG1        0.0892
     26 N           0.2210   -3.3790    0.0000 N.pl3   1  LIG1       -0.1281
     27 C          -0.2380   -1.7040    0.0000 C.ar    1  LIG1        0.0194
     28 C          -0.9460   -1.0040    0.0000 C.ar    1  LIG1        0.0213
     29 O          -1.9080    0.1580    0.0000 O.2     1  LIG1       -0.1528
     30 O          -3.3250   -1.2670    0.0000 O.2     1  LIG1       -0.1528
@<TRIPOS>BOND
     1     1     2    1
     2     1    22    1
     3     1    29    2
     4     1    30    2
     5     2     3    1
     6     2    21    1
     7     3     4    1
     8     3    19    1
     9     4     5   am
    10     4    18    2
    11     5     6    1
    12     6     7   ar
    13     6    17   ar
    14     7     8   ar
    15     8     9   ar
    16     9    10    1
    17     9    16   ar
    18    10    11    1
    19    10    15    1
    20    11    12    1
    21    12    13    1
    22    13    14    1
    23    14    15    1
    24    16    17   ar
    25    19    20    1
    26    20    21    1
    27    22    23   ar
    28    22    28   ar
    29    23    24   ar
    30    24    25   ar
    31    25    26    1
    32    25    27   ar
    33    27    28   ar
