@<TRIPOS>MOLECULE
35060_ChemDiv_8016-8756
 25 28 0 0 0
SMALL
GASTEIGER
Energy = 0

@<TRIPOS>ATOM
      1 C          -1.4830   -0.2000    0.0000 C.ar    1  LIG1        0.1726
      2 C          -1.4750    0.8000    0.0000 C.ar    1  LIG1        0.1550
      3 C          -2.3380    1.3080    0.0000 C.ar    1  LIG1        0.2832
      4 N          -3.2000    0.8000    0.0000 N.ar    1  LIG1       -0.2454
      5 C          -3.2000   -0.2000    0.0000 C.ar    1  LIG1        0.3350
      6 N          -2.3380   -0.6920    0.0000 N.ar    1  LIG1       -0.2627
      7 C          -2.3330   -1.7000    0.0000 C.3     1  LIG1        0.1366
      8 O          -4.0710   -0.7040    0.0000 O.2     1  LIG1       -0.2461
      9 C          -4.0710    1.3000    0.0000 C.3     1  LIG1        0.1383
     10 O          -2.3330    2.3080    0.0000 O.2     1  LIG1       -0.2652
     11 N          -0.5210    1.1080    0.0000 N.ar    1  LIG1       -0.2742
     12 C           0.0630    0.2960    0.0000 C.ar    1  LIG1        0.3069
     13 N          -0.5330   -0.5170    0.0000 N.ar    1  LIG1       -0.1762
     14 O           1.0670    0.2880    0.0000 O.3     1  LIG1       -0.4219
     15 C           2.0670    0.2880    0.0000 C.ar    1  LIG1        0.1661
     16 C           2.5630   -0.5750    0.0000 C.ar    1  LIG1        0.1158
     17 N           2.0630   -1.4290    0.0000 N.ar    1  LIG1       -0.2408
     18 C           2.5540   -2.3040    0.0000 C.ar    1  LIG1        0.0989
     19 C           3.5540   -2.3040    0.0000 C.ar    1  LIG1        0.0207
     20 C           4.0540   -1.4420    0.0000 C.ar    1  LIG1        0.0032
     21 C           3.5630   -0.5790    0.0000 C.ar    1  LIG1        0.0207
     22 C           4.0670    0.2960    0.0000 C.ar    1  LIG1        0.0017
     23 C           3.5540    1.1630    0.0000 C.ar    1  LIG1        0.0032
     24 C           2.5540    1.1580    0.0000 C.ar    1  LIG1        0.0392
     25 C          -0.2080    2.0580    0.0000 C.3     1  LIG1        0.1353
@<TRIPOS>BOND
     1     1     2   ar
     2     1     6   ar
     3     1    13   ar
     4     2     3   ar
     5     2    11   ar
     6     3     4   ar
     7     3    10    2
     8     4     5   ar
     9     4     9    1
    10     5     6   ar
    11     5     8    2
    12     6     7    1
    13    11    12   ar
    14    11    25    1
    15    12    13   ar
    16    12    14    1
    17    14    15    1
    18    15    16   ar
    19    15    24   ar
    20    16    17   ar
    21    16    21   ar
    22    17    18   ar
    23    18    19   ar
    24    19    20   ar
    25    20    21   ar
    26    21    22   ar
    27    22    23   ar
    28    23    24   ar
