@<TRIPOS>MOLECULE
35061_ChemDiv_8016-5007
 15 16 0 0 0
SMALL
GASTEIGER
Energy = 0

@<TRIPOS>ATOM
      1 N          -1.4210    0.0080    0.0000 N.ar    1  LIG1       -0.1777
      2 C          -0.5250    0.5210    0.0000 C.ar    1  LIG1        0.1819
      3 C           0.3540    0.0080    0.0000 C.ar    1  LIG1        0.1296
      4 C           0.3540   -1.0080    0.0000 C.ar    1  LIG1        0.1114
      5 N          -0.5250   -1.5080    0.0000 N.ar    1  LIG1       -0.2081
      6 C          -1.4080   -1.0080    0.0000 C.ar    1  LIG1        0.2558
      7 N          -2.3710   -1.3210    0.0000 N.ar    1  LIG1       -0.1861
      8 C          -2.9630   -0.4960    0.0000 C.ar    1  LIG1        0.2226
      9 N          -2.3880    0.3250    0.0000 N.ar    1  LIG1       -0.1385
     10 C           1.1080    0.6960    0.0000 C.2     1  LIG1        0.3456
     11 O           1.1040    1.5130    0.0000 O.2     1  LIG1       -0.2447
     12 O           2.0040    0.2330    0.0000 O.3     1  LIG1       -0.4453
     13 C           2.0580   -0.7830    0.0000 C.3     1  LIG1        0.2089
     14 C           2.9580   -1.2460    0.0000 C.3     1  LIG1        0.0513
     15 N          -0.5330    1.5080    0.0000 N.pl3   1  LIG1       -0.1068
@<TRIPOS>BOND
     1     1     2   ar
     2     1     6   ar
     3     1     9   ar
     4     2     3   ar
     5     2    15    1
     6     3     4   ar
     7     3    10    1
     8     4     5   ar
     9     5     6   ar
    10     6     7   ar
    11     7     8   ar
    12     8     9   ar
    13    10    11    2
    14    10    12    1
    15    12    13    1
    16    13    14    1
