@<TRIPOS>MOLECULE
35064_ChemDiv_8016-9850
 32 35 0 0 0
SMALL
GASTEIGER
Energy = 0

@<TRIPOS>ATOM
      1 S          -3.6960   -1.2290    0.0000 S.O2    1  LIG1        0.0637
      2 N          -4.1040   -0.3170    0.0000 N.3     1  LIG1       -0.1481
      3 C          -3.5960    0.5460    0.0000 C.3     1  LIG1        0.1575
      4 C          -2.6040    0.6460    0.0000 C.2     1  LIG1        0.2617
      5 N          -2.1920    1.5580    0.0000 N.am    1  LIG1       -0.1780
      6 C          -1.1920    1.6580    0.0000 C.ar    1  LIG1        0.0734
      7 C          -0.6170    0.8460    0.0000 C.ar    1  LIG1        0.0167
      8 C           0.3790    0.9460    0.0000 C.ar    1  LIG1        0.0059
      9 C           0.7920    1.8580    0.0000 C.ar    1  LIG1        0.0551
     10 C           1.7790    1.9580    0.0000 C.2     1  LIG1        0.2647
     11 N           2.1920    2.8710    0.0000 N.am    1  LIG1       -0.2034
     12 C           3.1880    2.9790    0.0000 C.3     1  LIG1        0.0956
     13 C           3.7670    2.1580    0.0000 C.3     1  LIG1        0.0217
     14 C           4.7630    2.2580    0.0000 C.3     1  LIG1        0.0018
     15 C           5.1750    3.1710    0.0000 C.3     1  LIG1        0.0001
     16 C           4.5920    3.9830    0.0000 C.3     1  LIG1        0.0018
     17 C           3.5920    3.8830    0.0000 C.3     1  LIG1        0.0217
     18 O           2.3670    1.1460    0.0000 O.2     1  LIG1       -0.2684
     19 C           0.2000    2.6710    0.0000 C.ar    1  LIG1        0.0059
     20 C          -0.7920    2.5710    0.0000 C.ar    1  LIG1        0.0167
     21 O          -2.0170   -0.1670    0.0000 O.2     1  LIG1       -0.2715
     22 C          -4.2670    1.2880    0.0000 C.3     1  LIG1        0.0286
     23 C          -5.1790    0.8830    0.0000 C.3     1  LIG1        0.0211
     24 C          -5.0750   -0.1130    0.0000 C.3     1  LIG1        0.0964
     25 O          -4.6170   -1.6250    0.0000 O.2     1  LIG1       -0.1528
     26 O          -2.7790   -0.8290    0.0000 O.2     1  LIG1       -0.1528
     27 C          -3.2920   -2.1420    0.0000 C.ar    1  LIG1        0.1222
     28 C          -2.3040   -2.2500    0.0000 C.ar    1  LIG1        0.0199
     29 C          -1.9000   -3.1630    0.0000 C.ar    1  LIG1        0.0014
     30 C          -2.4920   -3.9790    0.0000 C.ar    1  LIG1        0.0001
     31 C          -3.4830   -3.8670    0.0000 C.ar    1  LIG1        0.0014
     32 C          -3.8920   -2.9500    0.0000 C.ar    1  LIG1        0.0199
@<TRIPOS>BOND
     1     1     2    1
     2     1    25    2
     3     1    26    2
     4     1    27    1
     5     2     3    1
     6     2    24    1
     7     3     4    1
     8     3    22    1
     9     4     5   am
    10     4    21    2
    11     5     6    1
    12     6     7   ar
    13     6    20   ar
    14     7     8   ar
    15     8     9   ar
    16     9    10    1
    17     9    19   ar
    18    10    11   am
    19    10    18    2
    20    11    12    1
    21    12    13    1
    22    12    17    1
    23    13    14    1
    24    14    15    1
    25    15    16    1
    26    16    17    1
    27    19    20   ar
    28    22    23    1
    29    23    24    1
    30    27    28   ar
    31    27    32   ar
    32    28    29   ar
    33    29    30   ar
    34    30    31   ar
    35    31    32   ar
