@<TRIPOS>MOLECULE
35065_ChemDiv_8016-5153
 22 25 0 0 0
SMALL
GASTEIGER
Energy = 0

@<TRIPOS>ATOM
      1 C          -0.0080   -0.0130    0.0000 C.ar    1  LIG1        0.0759
      2 C          -0.8710    0.4830    0.0000 C.ar    1  LIG1        0.2602
      3 N          -1.7330   -0.0210    0.0000 N.ar    1  LIG1       -0.2936
      4 C          -1.7330   -1.0210    0.0000 C.ar    1  LIG1        0.0654
      5 C          -0.8710   -1.5210    0.0000 C.ar    1  LIG1        0.0504
      6 C          -0.0080   -1.0210    0.0000 C.ar    1  LIG1        0.1507
      7 O           0.8540   -1.5210    0.0000 O.3     1  LIG1       -0.4242
      8 C           1.7250   -1.0210    0.0000 C.2     1  LIG1        0.3222
      9 C           1.7290   -0.0210    0.0000 C.3     1  LIG1        0.1221
     10 C           0.8630    0.4880    0.0000 C.3     1  LIG1        0.0984
     11 C           0.8630    1.4880    0.0000 C.ar    1  LIG1        0.1275
     12 O           1.6670    2.0830    0.0000 O.2     1  LIG1       -0.4543
     13 C           1.3540    3.0250    0.0000 C.ar    1  LIG1        0.1791
     14 C           0.3540    3.0250    0.0000 C.ar    1  LIG1        0.0434
     15 C           0.0420    2.0830    0.0000 C.ar    1  LIG1        0.0365
     16 O           2.5920   -1.5290    0.0000 O.2     1  LIG1       -0.2497
     17 C          -0.8710   -2.5210    0.0000 C.ar    1  LIG1        0.0045
     18 C          -1.7330   -3.0210    0.0000 C.ar    1  LIG1        0.0002
     19 C          -2.5960   -2.5210    0.0000 C.ar    1  LIG1        0.0015
     20 C          -2.5960   -1.5210    0.0000 C.ar    1  LIG1        0.0174
     21 C          -2.5960    0.4830    0.0000 C.3     1  LIG1        0.1335
     22 O          -0.8750    1.4830    0.0000 O.2     1  LIG1       -0.2672
@<TRIPOS>BOND
     1     1     2   ar
     2     1     6   ar
     3     1    10    1
     4     2     3   ar
     5     2    22    2
     6     3     4   ar
     7     3    21    1
     8     4     5   ar
     9     4    20   ar
    10     5     6   ar
    11     5    17   ar
    12     6     7    1
    13     7     8    1
    14     8     9    1
    15     8    16    2
    16     9    10    1
    17    10    11    1
    18    11    12   ar
    19    11    15   ar
    20    12    13   ar
    21    13    14   ar
    22    14    15   ar
    23    17    18   ar
    24    18    19   ar
    25    19    20   ar
