@<TRIPOS>MOLECULE
35070_ChemDiv_8016-9146
 17 19 0 0 0
SMALL
GASTEIGER
Energy = 0

@<TRIPOS>ATOM
      1 C           0.4790    0.1460    0.0000 C.2     1  LIG1        0.0560
      2 C           0.4790   -0.7880    0.0000 C.2     1  LIG1        0.3347
      3 O          -0.3210   -1.2540    0.0000 O.3     1  LIG1       -0.4492
      4 C          -1.1290   -0.7880    0.0000 C.3     1  LIG1        0.1509
      5 C          -1.1290    0.1460    0.0000 C.2     1  LIG1       -0.0080
      6 C          -1.8540    0.8580    0.0000 C.3     1  LIG1        0.0294
      7 C          -0.8790   -1.6790    0.0000 C.3     1  LIG1        0.0441
      8 C          -1.5420   -2.3380    0.0000 C.3     1  LIG1        0.0039
      9 C          -2.4420   -2.0920    0.0000 C.3     1  LIG1        0.0003
     10 C          -2.6790   -1.2000    0.0000 C.3     1  LIG1        0.0039
     11 C          -2.0170   -0.5420    0.0000 C.3     1  LIG1        0.0441
     12 O           1.2880   -1.2540    0.0000 O.2     1  LIG1       -0.2456
     13 C           1.2040    0.8580    0.0000 C.ar    1  LIG1        0.0501
     14 N           1.0420    1.8710    0.0000 N.ar    1  LIG1       -0.2893
     15 N           1.9540    2.3420    0.0000 N.ar    1  LIG1       -0.2180
     16 N           2.6750    1.6170    0.0000 N.ar    1  LIG1       -0.2180
     17 N           2.2130    0.7040    0.0000 N.ar    1  LIG1       -0.2893
@<TRIPOS>BOND
     1     1     2    1
     2     1     5    2
     3     1    13    1
     4     2     3    1
     5     2    12    2
     6     3     4    1
     7     4     5    1
     8     4     7    1
     9     4    11    1
    10     5     6    1
    11     7     8    1
    12     8     9    1
    13     9    10    1
    14    10    11    1
    15    13    14   ar
    16    13    17   ar
    17    14    15   ar
    18    15    16   ar
    19    16    17   ar
