@<TRIPOS>MOLECULE
35079_ChemDiv_8016-2980
 27 29 0 0 0
SMALL
GASTEIGER
Energy = 0

@<TRIPOS>ATOM
      1 C           0.4330   -1.2460    0.0000 C.3     1  LIG1        0.1251
      2 C           1.2960   -0.7460    0.0000 C.2     1  LIG1        0.2454
      3 O           1.2960    0.2500    0.0000 O.2     1  LIG1       -0.2732
      4 N           2.1670   -1.2460    0.0000 N.am    1  LIG1       -0.2013
      5 C           3.0330   -0.7460    0.0000 C.3     1  LIG1        0.1623
      6 C           3.9000   -1.2460    0.0000 C.3     1  LIG1        0.2287
      7 O           4.7630   -0.7460    0.0000 O.3     1  LIG1       -0.4735
      8 C           4.7630    0.2500    0.0000 C.ar    1  LIG1        0.1386
      9 C           3.9000    0.7500    0.0000 C.ar    1  LIG1        0.0369
     10 C           3.9000    1.7500    0.0000 C.ar    1  LIG1        0.0031
     11 C           4.7630    2.2500    0.0000 C.ar    1  LIG1        0.0002
     12 C           5.6380    1.7500    0.0000 C.ar    1  LIG1        0.0031
     13 C           5.6380    0.7500    0.0000 C.ar    1  LIG1        0.0369
     14 C           0.4330   -0.2540    0.0000 C.3     1  LIG1        0.1561
     15 O          -0.4420    0.2500    0.0000 O.3     1  LIG1       -0.3265
     16 C          -1.3040   -0.2540    0.0000 C.3     1  LIG1        0.2600
     17 O          -1.3040   -1.2460    0.0000 O.3     1  LIG1       -0.3265
     18 C          -0.4420   -1.7460    0.0000 C.3     1  LIG1        0.1561
     19 C          -2.1710    0.2500    0.0000 C.ar    1  LIG1        0.0338
     20 C          -2.1710    1.2500    0.0000 C.ar    1  LIG1        0.0037
     21 C          -3.0330    1.7500    0.0000 C.ar    1  LIG1        0.0367
     22 C          -3.9040    1.2500    0.0000 C.ar    1  LIG1        0.1387
     23 C          -3.9040    0.2500    0.0000 C.ar    1  LIG1        0.0367
     24 C          -3.0330   -0.2540    0.0000 C.ar    1  LIG1        0.0037
     25 O          -4.7710    1.7500    0.0000 O.3     1  LIG1       -0.4714
     26 C          -5.6420    1.2500    0.0000 C.3     1  LIG1        0.2525
     27 C           0.4330   -2.2460    0.0000 C.3     1  LIG1        0.0143
@<TRIPOS>BOND
     1     1     2    1
     2     1    14    1
     3     1    18    1
     4     1    27    1
     5     2     3    2
     6     2     4   am
     7     4     5    1
     8     5     6    1
     9     6     7    1
    10     7     8    1
    11     8     9   ar
    12     8    13   ar
    13     9    10   ar
    14    10    11   ar
    15    11    12   ar
    16    12    13   ar
    17    14    15    1
    18    15    16    1
    19    16    17    1
    20    16    19    1
    21    17    18    1
    22    19    20   ar
    23    19    24   ar
    24    20    21   ar
    25    21    22   ar
    26    22    23   ar
    27    22    25    1
    28    23    24   ar
    29    25    26    1
