@<TRIPOS>MOLECULE
35071_ChemDiv_8016-5226
 23 26 0 0 0
SMALL
GASTEIGER
Energy = 0

@<TRIPOS>ATOM
      1 C          -0.0080   -0.4210    0.0000 C.ar    1  LIG1        0.0733
      2 C          -0.8710    0.0750    0.0000 C.ar    1  LIG1        0.2602
      3 N          -1.7330   -0.4250    0.0000 N.ar    1  LIG1       -0.2936
      4 C          -1.7330   -1.4290    0.0000 C.ar    1  LIG1        0.0654
      5 C          -0.8710   -1.9290    0.0000 C.ar    1  LIG1        0.0504
      6 C          -0.0080   -1.4210    0.0000 C.ar    1  LIG1        0.1506
      7 O           0.8540   -1.9290    0.0000 O.3     1  LIG1       -0.4242
      8 C           1.7290   -1.4290    0.0000 C.2     1  LIG1        0.3222
      9 C           1.7290   -0.4210    0.0000 C.3     1  LIG1        0.1194
     10 C           0.8630    0.0790    0.0000 C.3     1  LIG1        0.0695
     11 C           0.8630    1.0830    0.0000 C.ar    1  LIG1        0.0123
     12 C           0.0420    1.6750    0.0000 C.ar    1  LIG1        0.0097
     13 C           0.3540    2.6210    0.0000 C.ar    1  LIG1        0.0412
     14 C           1.3540    2.6210    0.0000 C.ar    1  LIG1        0.0418
     15 S           1.6670    1.6750    0.0000 S.2     1  LIG1       -0.0899
     16 BR         -0.2330    3.4330    0.0000 Br      1  LIG1       -0.0485
     17 O           2.5920   -1.9330    0.0000 O.2     1  LIG1       -0.2497
     18 C          -0.8710   -2.9210    0.0000 C.ar    1  LIG1        0.0045
     19 C          -1.7330   -3.4290    0.0000 C.ar    1  LIG1        0.0002
     20 C          -2.5960   -2.9290    0.0000 C.ar    1  LIG1        0.0015
     21 C          -2.5960   -1.9290    0.0000 C.ar    1  LIG1        0.0174
     22 C          -2.5960    0.0750    0.0000 C.3     1  LIG1        0.1335
     23 O          -0.8750    1.0750    0.0000 O.2     1  LIG1       -0.2672
@<TRIPOS>BOND
     1     1     2   ar
     2     1     6   ar
     3     1    10    1
     4     2     3   ar
     5     2    23    2
     6     3     4   ar
     7     3    22    1
     8     4     5   ar
     9     4    21   ar
    10     5     6   ar
    11     5    18   ar
    12     6     7    1
    13     7     8    1
    14     8     9    1
    15     8    17    2
    16     9    10    1
    17    10    11    1
    18    11    12   ar
    19    11    15   ar
    20    12    13   ar
    21    13    14   ar
    22    13    16    1
    23    14    15   ar
    24    18    19   ar
    25    19    20   ar
    26    20    21   ar
