@<TRIPOS>MOLECULE
35078_ChemDiv_8017-2757
 24 27 0 0 0
SMALL
GASTEIGER
Energy = 0

@<TRIPOS>ATOM
      1 C          -0.9500    0.8290    0.0000 C.ar    1  LIG1        0.1519
      2 N          -1.9080    1.1460    0.0000 N.ar    1  LIG1       -0.2734
      3 C          -1.9080    2.1420    0.0000 C.ar    1  LIG1        0.1681
      4 N          -0.9580    2.4540    0.0000 N.ar    1  LIG1       -0.2235
      5 C          -0.3710    1.6420    0.0000 C.ar    1  LIG1        0.1145
      6 C           0.6290    1.6420    0.0000 C.ar    1  LIG1        0.0206
      7 C           1.1290    0.7750    0.0000 C.ar    1  LIG1        0.0039
      8 C           2.1290    0.7750    0.0000 C.ar    1  LIG1        0.0297
      9 C           2.6290    1.6420    0.0000 C.ar    1  LIG1        0.1401
     10 C           2.1290    2.5040    0.0000 C.ar    1  LIG1        0.0297
     11 C           1.1290    2.5040    0.0000 C.ar    1  LIG1        0.0039
     12 F           3.6290    1.6420    0.0000 F       1  LIG1       -0.2042
     13 C          -2.7710    2.6420    0.0000 C.ar    1  LIG1        0.1362
     14 N          -3.6330    2.1420    0.0000 N.ar    1  LIG1       -0.2376
     15 C          -3.6330    1.1460    0.0000 C.ar    1  LIG1        0.1180
     16 C          -2.7710    0.6460    0.0000 C.ar    1  LIG1        0.1033
     17 N          -0.4500   -0.0290    0.0000 N.pl3   1  LIG1       -0.2153
     18 C           0.5500   -0.0290    0.0000 C.3     1  LIG1        0.1402
     19 C           1.0500   -0.9080    0.0000 C.ar    1  LIG1       -0.0006
     20 C           0.5500   -1.7670    0.0000 C.ar    1  LIG1       -0.0026
     21 C           1.0500   -2.6380    0.0000 C.ar    1  LIG1       -0.0003
     22 C           2.0500   -2.6380    0.0000 C.ar    1  LIG1       -0.0000
     23 C           2.5500   -1.7670    0.0000 C.ar    1  LIG1       -0.0003
     24 C           2.0500   -0.9080    0.0000 C.ar    1  LIG1       -0.0026
@<TRIPOS>BOND
     1     1     2   ar
     2     1     5   ar
     3     1    17    1
     4     2     3   ar
     5     2    16   ar
     6     3     4   ar
     7     3    13   ar
     8     4     5   ar
     9     5     6    1
    10     6     7   ar
    11     6    11   ar
    12     7     8   ar
    13     8     9   ar
    14     9    10   ar
    15     9    12    1
    16    10    11   ar
    17    13    14   ar
    18    14    15   ar
    19    15    16   ar
    20    17    18    1
    21    18    19    1
    22    19    20   ar
    23    19    24   ar
    24    20    21   ar
    25    21    22   ar
    26    22    23   ar
    27    23    24   ar
