@<TRIPOS>MOLECULE
35072_ChemDiv_8016-9318
 14 15 0 0 0
SMALL
GASTEIGER
Energy = 0

@<TRIPOS>ATOM
      1 C           0.1500   -0.3920    0.0000 C.2     1  LIG1        0.0560
      2 C           0.1500   -1.3040    0.0000 C.2     1  LIG1        0.3347
      3 O          -0.6460   -1.7630    0.0000 O.3     1  LIG1       -0.4492
      4 C          -1.4250   -1.3040    0.0000 C.3     1  LIG1        0.1511
      5 C          -1.4250   -0.3920    0.0000 C.2     1  LIG1       -0.0080
      6 C          -2.1420    0.3170    0.0000 C.3     1  LIG1        0.0294
      7 C          -2.2170   -1.7630    0.0000 C.3     1  LIG1        0.0480
      8 C          -2.3040   -1.0630    0.0000 C.3     1  LIG1        0.0480
      9 O           0.9420   -1.7630    0.0000 O.2     1  LIG1       -0.2456
     10 C           0.8540    0.3170    0.0000 C.ar    1  LIG1        0.0501
     11 N           0.6920    1.3040    0.0000 N.ar    1  LIG1       -0.2893
     12 N           1.5920    1.7670    0.0000 N.ar    1  LIG1       -0.2180
     13 N           2.3000    1.0540    0.0000 N.ar    1  LIG1       -0.2180
     14 N           1.8460    0.1580    0.0000 N.ar    1  LIG1       -0.2893
@<TRIPOS>BOND
     1     1     2    1
     2     1     5    2
     3     1    10    1
     4     2     3    1
     5     2     9    2
     6     3     4    1
     7     4     5    1
     8     4     7    1
     9     4     8    1
    10     5     6    1
    11    10    11   ar
    12    10    14   ar
    13    11    12   ar
    14    12    13   ar
    15    13    14   ar
