@<TRIPOS>MOLECULE
35073_ChemDiv_8016-2924
 23 26 0 0 0
SMALL
GASTEIGER
Energy = 0

@<TRIPOS>ATOM
      1 C          -1.8960   -0.3670    0.0000 C.ar    1  LIG1        0.1453
      2 O          -2.4750   -1.1790    0.0000 O.2     1  LIG1       -0.4535
      3 C          -3.4250   -0.8670    0.0000 C.ar    1  LIG1        0.1453
      4 C          -3.4250    0.1330    0.0000 C.ar    1  LIG1        0.0376
      5 C          -2.4830    0.4420    0.0000 C.ar    1  LIG1        0.0405
      6 C          -4.2960    0.6170    0.0000 C.ar    1  LIG1        0.0031
      7 C          -5.1580    0.1170    0.0000 C.ar    1  LIG1        0.0002
      8 C          -5.1540   -0.8880    0.0000 C.ar    1  LIG1        0.0031
      9 C          -4.2880   -1.3750    0.0000 C.ar    1  LIG1        0.0375
     10 C          -0.8830   -0.3540    0.0000 C.ar    1  LIG1        0.0346
     11 C          -0.3880   -1.2380    0.0000 C.ar    1  LIG1        0.0044
     12 C           0.6170   -1.2290    0.0000 C.ar    1  LIG1        0.0167
     13 C           1.1170   -0.3540    0.0000 C.ar    1  LIG1        0.0738
     14 N           2.1170   -0.3540    0.0000 N.am    1  LIG1       -0.1728
     15 C           2.6170    0.5170    0.0000 C.2     1  LIG1        0.3037
     16 C           3.6170    0.5170    0.0000 C.ar    1  LIG1        0.2005
     17 O           4.2000   -0.2790    0.0000 O.2     1  LIG1       -0.4457
     18 C           5.1540    0.0330    0.0000 C.ar    1  LIG1        0.1798
     19 C           5.1420    1.0210    0.0000 C.ar    1  LIG1        0.0440
     20 C           4.1920    1.3290    0.0000 C.ar    1  LIG1        0.0455
     21 O           2.1170    1.3790    0.0000 O.2     1  LIG1       -0.2646
     22 C           0.6040    0.5040    0.0000 C.ar    1  LIG1        0.0167
     23 C          -0.3960    0.5040    0.0000 C.ar    1  LIG1        0.0044
@<TRIPOS>BOND
     1     1     2   ar
     2     1     5   ar
     3     1    10    1
     4     2     3   ar
     5     3     4   ar
     6     3     9   ar
     7     4     5   ar
     8     4     6   ar
     9     6     7   ar
    10     7     8   ar
    11     8     9   ar
    12    10    11   ar
    13    10    23   ar
    14    11    12   ar
    15    12    13   ar
    16    13    14    1
    17    13    22   ar
    18    14    15   am
    19    15    16    1
    20    15    21    2
    21    16    17   ar
    22    16    20   ar
    23    17    18   ar
    24    18    19   ar
    25    19    20   ar
    26    22    23   ar
