@<TRIPOS>MOLECULE
35075_ChemDiv_8016-2929
 27 30 0 0 0
SMALL
GASTEIGER
Energy = 0

@<TRIPOS>ATOM
      1 S           1.8750    0.0170    0.0000 S.O2    1  LIG1       -0.0578
      2 N           0.8750    0.0170    0.0000 N.pl3   1  LIG1       -0.5358
      3 C          -0.1250    0.0130    0.0000 C.ar    1  LIG1       -0.1123
      4 C          -0.6380    0.8750    0.0000 C.ar    1  LIG1       -0.0237
      5 C          -1.6330    0.8710    0.0000 C.ar    1  LIG1        0.0012
      6 C          -2.1290    0.0130    0.0000 C.ar    1  LIG1        0.0344
      7 C          -3.1380    0.0000    0.0000 C.ar    1  LIG1        0.1453
      8 O          -3.7170   -0.8040    0.0000 O.2     1  LIG1       -0.4535
      9 C          -4.6580   -0.5040    0.0000 C.ar    1  LIG1        0.1453
     10 C          -4.6580    0.4960    0.0000 C.ar    1  LIG1        0.0376
     11 C          -3.7170    0.8130    0.0000 C.ar    1  LIG1        0.0405
     12 C          -5.5380    0.9960    0.0000 C.ar    1  LIG1        0.0031
     13 C          -6.3790    0.4830    0.0000 C.ar    1  LIG1        0.0002
     14 C          -6.3750   -0.5170    0.0000 C.ar    1  LIG1        0.0031
     15 C          -5.5250   -1.0130    0.0000 C.ar    1  LIG1        0.0375
     16 C          -1.6250   -0.8630    0.0000 C.ar    1  LIG1        0.0012
     17 C          -0.6250   -0.8630    0.0000 C.ar    1  LIG1       -0.0237
     18 C           2.8790    0.0170    0.0000 C.ar    1  LIG1        0.0895
     19 C           3.3790   -0.8500    0.0000 C.ar    1  LIG1        0.0200
     20 C           4.3790   -0.8500    0.0000 C.ar    1  LIG1        0.0382
     21 C           4.8790    0.0210    0.0000 C.ar    1  LIG1        0.1388
     22 C           4.3670    0.9000    0.0000 C.ar    1  LIG1        0.0382
     23 C           3.3670    0.8830    0.0000 C.ar    1  LIG1        0.0200
     24 O           5.8790    0.0210    0.0000 O.3     1  LIG1       -0.4714
     25 C           6.3790    0.9000    0.0000 C.3     1  LIG1        0.2525
     26 O           1.8670   -0.9880    0.0000 O.2     1  LIG1       -0.1842
     27 O           1.8670    1.0130    0.0000 O.2     1  LIG1       -0.1842
@<TRIPOS>BOND
     1     1     2    1
     2     1    18    1
     3     1    26    2
     4     1    27    2
     5     2     3    1
     6     3     4   ar
     7     3    17   ar
     8     4     5   ar
     9     5     6   ar
    10     6     7    1
    11     6    16   ar
    12     7     8   ar
    13     7    11   ar
    14     8     9   ar
    15     9    10   ar
    16     9    15   ar
    17    10    11   ar
    18    10    12   ar
    19    12    13   ar
    20    13    14   ar
    21    14    15   ar
    22    16    17   ar
    23    18    19   ar
    24    18    23   ar
    25    19    20   ar
    26    20    21   ar
    27    21    22   ar
    28    21    24    1
    29    22    23   ar
    30    24    25    1
