@<TRIPOS>MOLECULE
35077_ChemDiv_8016-2941
 23 24 0 0 0
SMALL
GASTEIGER
Energy = 0

@<TRIPOS>ATOM
      1 S          -0.0080   -0.0040    0.0000 S.O2    1  LIG1        0.0620
      2 N           0.4920    0.8580    0.0000 N.3     1  LIG1       -0.0734
      3 C           1.0000    1.7330    0.0000 C.3     1  LIG1        0.1807
      4 C           2.0040    1.7330    0.0000 C.2     1  LIG1        0.2788
      5 O           2.5040    2.5960    0.0000 O.2     1  LIG1       -0.2701
      6 N           2.5040    0.8580    0.0000 N.am    1  LIG1       -0.0865
      7 C           0.4920    2.5960    0.0000 C.3     1  LIG1        0.0551
      8 C          -0.5080    2.6000    0.0000 C.ar    1  LIG1       -0.0202
      9 C          -1.0080    3.4630    0.0000 C.ar    1  LIG1       -0.0042
     10 C          -2.0080    3.4580    0.0000 C.ar    1  LIG1       -0.0003
     11 C          -2.5080    2.5960    0.0000 C.ar    1  LIG1       -0.0000
     12 C          -2.0080    1.7330    0.0000 C.ar    1  LIG1       -0.0003
     13 C          -1.0080    1.7330    0.0000 C.ar    1  LIG1       -0.0042
     14 C          -0.5130   -0.8670    0.0000 C.3     1  LIG1        0.1977
     15 C          -0.0210   -1.7330    0.0000 C.ar    1  LIG1        0.0136
     16 C          -0.5210   -2.5920    0.0000 C.ar    1  LIG1        0.0554
     17 CL         -1.5210   -2.5830    0.0000 Cl      1  LIG1       -0.0825
     18 C          -0.0210   -3.4580    0.0000 C.ar    1  LIG1        0.0111
     19 C           0.9750   -3.4580    0.0000 C.ar    1  LIG1        0.0008
     20 C           1.4790   -2.5920    0.0000 C.ar    1  LIG1       -0.0002
     21 C           0.9790   -1.7290    0.0000 C.ar    1  LIG1       -0.0017
     22 O          -0.8750    0.5000    0.0000 O.2     1  LIG1       -0.1558
     23 O           0.8540   -0.5040    0.0000 O.2     1  LIG1       -0.1558
@<TRIPOS>BOND
     1     1     2    1
     2     1    14    1
     3     1    22    2
     4     1    23    2
     5     2     3    1
     6     3     4    1
     7     3     7    1
     8     4     5    2
     9     4     6   am
    10     7     8    1
    11     8     9   ar
    12     8    13   ar
    13     9    10   ar
    14    10    11   ar
    15    11    12   ar
    16    12    13   ar
    17    14    15    1
    18    15    16   ar
    19    15    21   ar
    20    16    17    1
    21    16    18   ar
    22    18    19   ar
    23    19    20   ar
    24    20    21   ar
