@<TRIPOS>MOLECULE
35085_ChemDiv_8016-9708
 25 29 0 0 0
SMALL
GASTEIGER
Energy = 0

@<TRIPOS>ATOM
      1 C           1.6170   -1.2920    0.0000 C.3     1  LIG1        0.0708
      2 C           0.7500   -0.7920    0.0000 C.2     1  LIG1        0.2446
      3 N           0.7500    0.2080    0.0000 N.am    1  LIG1       -0.1794
      4 C          -0.1210    0.7080    0.0000 C.ar    1  LIG1        0.0726
      5 C          -0.9830    0.2000    0.0000 C.ar    1  LIG1        0.0564
      6 C          -1.8580    0.7080    0.0000 C.ar    1  LIG1        0.1777
      7 C          -1.8500    1.7080    0.0000 C.ar    1  LIG1        0.1762
      8 C          -0.9880    2.2080    0.0000 C.ar    1  LIG1        0.0372
      9 C          -0.1210    1.7080    0.0000 C.ar    1  LIG1       -0.0036
     10 C           0.7420    2.2130    0.0000 C.3     1  LIG1        0.0278
     11 C           1.6040    1.7210    0.0000 C.3     1  LIG1        0.0047
     12 C           2.4670    2.2210    0.0000 C.3     1  LIG1        0.0004
     13 O          -2.8080    2.0210    0.0000 O.3     1  LIG1       -0.4346
     14 C          -3.3960    1.2080    0.0000 C.3     1  LIG1        0.4294
     15 O          -2.8080    0.3960    0.0000 O.3     1  LIG1       -0.4346
     16 O          -0.1210   -1.2920    0.0000 O.2     1  LIG1       -0.2730
     17 C           0.8380   -2.1170    0.0000 C.3     1  LIG1        0.0087
     18 C           1.8170   -1.8420    0.0000 C.3     1  LIG1        0.0005
     19 C           2.7250   -2.2170    0.0000 C.3     1  LIG1        0.0000
     20 C           3.3790   -1.3880    0.0000 C.3     1  LIG1        0.0005
     21 C           2.4750   -1.6130    0.0000 C.3     1  LIG1        0.0087
     22 C           3.3920   -0.3920    0.0000 C.3     1  LIG1        0.0000
     23 C           2.4790   -0.0170    0.0000 C.3     1  LIG1        0.0005
     24 C           1.6130   -0.3290    0.0000 C.3     1  LIG1        0.0087
     25 C           1.8130   -0.8170    0.0000 C.3     1  LIG1        0.0000
@<TRIPOS>BOND
     1     1     2    1
     2     1    17    1
     3     1    21    1
     4     1    24    1
     5     2     3   am
     6     2    16    2
     7     3     4    1
     8     4     5   ar
     9     4     9   ar
    10     5     6   ar
    11     6     7   ar
    12     6    15    1
    13     7     8   ar
    14     7    13    1
    15     8     9   ar
    16     9    10    1
    17    10    11    1
    18    11    12    1
    19    13    14    1
    20    14    15    1
    21    17    18    1
    22    18    19    1
    23    18    25    1
    24    19    20    1
    25    20    21    1
    26    20    22    1
    27    22    23    1
    28    23    24    1
    29    23    25    1
