@<TRIPOS>MOLECULE
35086_ChemDiv_8017-2885
 17 19 0 0 0
SMALL
GASTEIGER
Energy = 0

@<TRIPOS>ATOM
      1 C          -0.4000    0.8710    0.0000 C.2     1  LIG1        0.2506
      2 N          -1.3710    0.6500    0.0000 N.am    1  LIG1       -0.2694
      3 C          -1.7960   -0.2420    0.0000 C.3     1  LIG1        0.1541
      4 C          -1.3710   -1.1380    0.0000 C.2     1  LIG1        0.2636
      5 N          -0.4000   -1.3540    0.0000 N.am    1  LIG1       -0.1777
      6 C           0.3750   -0.7380    0.0000 C.ar    1  LIG1        0.0778
      7 C           0.3750    0.2580    0.0000 C.ar    1  LIG1        0.0694
      8 C           1.2290    0.7500    0.0000 C.ar    1  LIG1        0.0125
      9 C           2.0920    0.2580    0.0000 C.ar    1  LIG1        0.0348
     10 C           2.0920   -0.7380    0.0000 C.ar    1  LIG1        0.0080
     11 C           1.2290   -1.2290    0.0000 C.ar    1  LIG1        0.0173
     12 BR          2.9540    0.7500    0.0000 Br      1  LIG1       -0.0490
     13 O          -1.9130   -1.9790    0.0000 O.2     1  LIG1       -0.2712
     14 C          -2.7830   -0.1040    0.0000 C.3     1  LIG1        0.0310
     15 C          -2.9580    0.8710    0.0000 C.3     1  LIG1        0.0237
     16 C          -2.0830    1.3380    0.0000 C.3     1  LIG1        0.0942
     17 O          -0.1750    1.9830    0.0000 O.2     1  LIG1       -0.2699
@<TRIPOS>BOND
     1     1     2   am
     2     1     7    1
     3     1    17    2
     4     2     3    1
     5     2    16    1
     6     3     4    1
     7     3    14    1
     8     4     5   am
     9     4    13    2
    10     5     6    1
    11     6     7   ar
    12     6    11   ar
    13     7     8   ar
    14     8     9   ar
    15     9    10   ar
    16     9    12    1
    17    10    11   ar
    18    14    15    1
    19    15    16    1
