@<TRIPOS>MOLECULE
35083_ChemDiv_8016-3034
 26 30 0 0 0
SMALL
GASTEIGER
Energy = 0

@<TRIPOS>ATOM
      1 C           1.9000   -1.8040    0.0000 C.3     1  LIG1        0.0087
      2 C           1.0420   -2.3040    0.0000 C.3     1  LIG1        0.0872
      3 C           0.1750   -1.8040    0.0000 C.2     1  LIG1        0.2455
      4 N           0.1750   -0.8130    0.0000 N.am    1  LIG1       -0.1794
      5 C          -0.7000   -0.3130    0.0000 C.ar    1  LIG1        0.0726
      6 C          -1.5710   -0.8130    0.0000 C.ar    1  LIG1        0.0564
      7 C          -2.4330   -0.3130    0.0000 C.ar    1  LIG1        0.1777
      8 C          -2.4330    0.6880    0.0000 C.ar    1  LIG1        0.1762
      9 C          -1.5710    1.1960    0.0000 C.ar    1  LIG1        0.0372
     10 C          -0.7000    0.6960    0.0000 C.ar    1  LIG1       -0.0036
     11 C           0.1670    1.1960    0.0000 C.3     1  LIG1        0.0278
     12 C           0.1630    2.1960    0.0000 C.3     1  LIG1        0.0047
     13 C           1.0170    2.6960    0.0000 C.3     1  LIG1        0.0004
     14 O          -3.3830    0.9960    0.0000 O.3     1  LIG1       -0.4346
     15 C          -3.9710    0.1880    0.0000 C.3     1  LIG1        0.4294
     16 O          -3.3830   -0.6170    0.0000 O.3     1  LIG1       -0.4346
     17 O          -0.6960   -2.3130    0.0000 O.2     1  LIG1       -0.2730
     18 C           2.0920   -0.7670    0.0000 C.3     1  LIG1        0.0005
     19 C           3.0750   -0.6670    0.0000 C.3     1  LIG1        0.0000
     20 C           3.8040    0.0330    0.0000 C.3     1  LIG1        0.0000
     21 C           3.5040   -1.0670    0.0000 C.3     1  LIG1        0.0000
     22 C           2.6000   -1.1880    0.0000 C.3     1  LIG1        0.0005
     23 C           3.9670   -1.9170    0.0000 C.3     1  LIG1        0.0000
     24 C           3.3380   -2.6000    0.0000 C.3     1  LIG1        0.0000
     25 C           2.3540   -2.6920    0.0000 C.3     1  LIG1        0.0005
     26 C           3.5630   -1.5750    0.0000 C.3     1  LIG1        0.0000
@<TRIPOS>BOND
     1     1     2    1
     2     1    18    1
     3     1    22    1
     4     1    25    1
     5     2     3    1
     6     3     4   am
     7     3    17    2
     8     4     5    1
     9     5     6   ar
    10     5    10   ar
    11     6     7   ar
    12     7     8   ar
    13     7    16    1
    14     8     9   ar
    15     8    14    1
    16     9    10   ar
    17    10    11    1
    18    11    12    1
    19    12    13    1
    20    14    15    1
    21    15    16    1
    22    18    19    1
    23    19    20    1
    24    19    26    1
    25    20    21    1
    26    21    22    1
    27    21    23    1
    28    23    24    1
    29    24    25    1
    30    24    26    1
