@<TRIPOS>MOLECULE
35084_ChemDiv_8017-2880
 25 27 0 0 0
SMALL
GASTEIGER
Energy = 0

@<TRIPOS>ATOM
      1 S           0.7500   -0.7920    0.0000 S.O2    1  LIG1       -0.0577
      2 N          -0.2460   -0.7920    0.0000 N.pl3   1  LIG1       -0.5321
      3 C          -0.7460    0.0710    0.0000 C.ar    1  LIG1       -0.0531
      4 C          -0.2460    0.9330    0.0000 C.ar    1  LIG1        0.2570
      5 N          -0.7460    1.7960    0.0000 N.ar    1  LIG1       -0.2079
      6 C          -1.7460    1.7960    0.0000 C.ar    1  LIG1        0.1020
      7 C          -2.2540    0.9330    0.0000 C.ar    1  LIG1        0.0177
      8 C          -1.7460    0.0710    0.0000 C.ar    1  LIG1       -0.0176
      9 C          -3.2540    0.9330    0.0000 C.ar    1  LIG1        0.0045
     10 C          -3.7540    1.7960    0.0000 C.ar    1  LIG1        0.0207
     11 C          -4.7540    1.7960    0.0000 C.ar    1  LIG1        0.0989
     12 N          -5.2540    0.9330    0.0000 N.ar    1  LIG1       -0.2423
     13 C          -4.7540    0.0710    0.0000 C.ar    1  LIG1        0.0989
     14 C          -3.7540    0.0710    0.0000 C.ar    1  LIG1        0.0207
     15 O           0.7500    0.9330    0.0000 O.2     1  LIG1       -0.2672
     16 C           1.7500   -0.7920    0.0000 C.ar    1  LIG1        0.0895
     17 C           2.2500   -1.6630    0.0000 C.ar    1  LIG1        0.0200
     18 C           3.2500   -1.6630    0.0000 C.ar    1  LIG1        0.0382
     19 C           3.7500   -0.7920    0.0000 C.ar    1  LIG1        0.1388
     20 C           3.2500    0.0710    0.0000 C.ar    1  LIG1        0.0382
     21 C           2.2500    0.0710    0.0000 C.ar    1  LIG1        0.0200
     22 O           4.7500   -0.7920    0.0000 O.3     1  LIG1       -0.4714
     23 C           5.2500   -1.6630    0.0000 C.3     1  LIG1        0.2525
     24 O           0.7500   -1.7920    0.0000 O.2     1  LIG1       -0.1842
     25 O           0.7500    0.2080    0.0000 O.2     1  LIG1       -0.1842
@<TRIPOS>BOND
     1     1     2    1
     2     1    16    1
     3     1    24    2
     4     1    25    2
     5     2     3    1
     6     3     4   ar
     7     3     8   ar
     8     4     5   ar
     9     4    15    2
    10     5     6   ar
    11     6     7   ar
    12     7     8   ar
    13     7     9    1
    14     9    10   ar
    15     9    14   ar
    16    10    11   ar
    17    11    12   ar
    18    12    13   ar
    19    13    14   ar
    20    16    17   ar
    21    16    21   ar
    22    17    18   ar
    23    18    19   ar
    24    19    20   ar
    25    19    22    1
    26    20    21   ar
    27    22    23    1
