@<TRIPOS>MOLECULE
35082_ChemDiv_8017-2808
 29 32 0 0 0
SMALL
GASTEIGER
Energy = 0

@<TRIPOS>ATOM
      1 N           0.9960   -1.3040    0.0000 N.4     1  LIG1        0.3799
      2 C           0.4960   -2.1710    0.0000 C.3     1  LIG1        0.1294
      3 C          -0.5040   -2.1710    0.0000 C.ar    1  LIG1        0.0298
      4 C          -1.0080   -3.0330    0.0000 C.ar    1  LIG1        0.0013
      5 C          -2.0080   -3.0330    0.0000 C.ar    1  LIG1       -0.0001
      6 C          -2.5080   -2.1710    0.0000 C.ar    1  LIG1       -0.0000
      7 C          -3.5130   -2.1710    0.0000 C.2     1  LIG1       -0.0000
      8 C          -4.0000   -1.2960    0.0000 C.2     1  LIG1       -0.0000
      9 C          -3.5000   -0.4290    0.0000 C.ar    1  LIG1        0.0000
     10 C          -2.5000   -0.4290    0.0000 C.ar    1  LIG1        0.0000
     11 C          -2.0000    0.4330    0.0000 C.ar    1  LIG1        0.0000
     12 C          -2.5000    1.3040    0.0000 C.ar    1  LIG1        0.0000
     13 C          -3.5000    1.3040    0.0000 C.ar    1  LIG1        0.0000
     14 C          -4.0000    0.4330    0.0000 C.ar    1  LIG1        0.0000
     15 C          -2.0080   -1.3040    0.0000 C.ar    1  LIG1       -0.0001
     16 C          -1.0080   -1.3040    0.0000 C.ar    1  LIG1        0.0013
     17 C           1.0080   -3.0290    0.0000 C.3     1  LIG1        0.1704
     18 N           1.9830   -3.0330    0.0000 N.3     1  LIG1       -0.1246
     19 C           1.9960   -1.3040    0.0000 C.3     1  LIG1        0.1607
     20 C           2.4960   -0.4330    0.0000 C.3     1  LIG1        0.1544
     21 N           1.9960    0.4290    0.0000 N.pl3   1  LIG1       -0.2972
     22 C           0.9960    0.4290    0.0000 C.3     1  LIG1        0.1544
     23 C           0.4960   -0.4330    0.0000 C.3     1  LIG1        0.1607
     24 C           2.4960    1.2960    0.0000 C.ar    1  LIG1        0.0481
     25 C           1.9960    2.1670    0.0000 C.ar    1  LIG1        0.0145
     26 C           2.4960    3.0380    0.0000 C.ar    1  LIG1        0.0013
     27 C           3.4960    3.0380    0.0000 C.ar    1  LIG1        0.0001
     28 C           3.9960    2.1670    0.0000 C.ar    1  LIG1        0.0013
     29 C           3.4960    1.2960    0.0000 C.ar    1  LIG1        0.0145
@<TRIPOS>BOND
     1     1     2    1
     2     1    19    1
     3     1    23    1
     4     2     3    1
     5     2    17    1
     6     3     4   ar
     7     3    16   ar
     8     4     5   ar
     9     5     6   ar
    10     6     7    1
    11     6    15   ar
    12     7     8    2
    13     8     9    1
    14     9    10   ar
    15     9    14   ar
    16    10    11   ar
    17    11    12   ar
    18    12    13   ar
    19    13    14   ar
    20    15    16   ar
    21    17    18    1
    22    19    20    1
    23    20    21    1
    24    21    22    1
    25    21    24    1
    26    22    23    1
    27    24    25   ar
    28    24    29   ar
    29    25    26   ar
    30    26    27   ar
    31    27    28   ar
    32    28    29   ar
