@<TRIPOS>MOLECULE
35089_ChemDiv_8017-5233
 24 27 0 0 0
SMALL
GASTEIGER
Energy = 0

@<TRIPOS>ATOM
      1 C          -0.1750   -0.4210    0.0000 C.ar    1  LIG1        0.0733
      2 C          -1.0460    0.0750    0.0000 C.ar    1  LIG1        0.2602
      3 N          -1.9080   -0.4290    0.0000 N.ar    1  LIG1       -0.2936
      4 C          -1.9080   -1.4330    0.0000 C.ar    1  LIG1        0.0654
      5 C          -1.0460   -1.9330    0.0000 C.ar    1  LIG1        0.0504
      6 C          -0.1830   -1.4290    0.0000 C.ar    1  LIG1        0.1506
      7 O           0.6880   -1.9290    0.0000 O.3     1  LIG1       -0.4242
      8 C           1.5540   -1.4330    0.0000 C.2     1  LIG1        0.3222
      9 C           1.5540   -0.4290    0.0000 C.3     1  LIG1        0.1194
     10 C           0.6880    0.0790    0.0000 C.3     1  LIG1        0.0695
     11 C           0.6880    1.0830    0.0000 C.ar    1  LIG1        0.0115
     12 S           1.4920    1.6710    0.0000 S.2     1  LIG1       -0.0953
     13 C           1.1790    2.6210    0.0000 C.ar    1  LIG1        0.0070
     14 C           0.1880    2.6210    0.0000 C.ar    1  LIG1        0.0023
     15 C          -0.1250    1.6710    0.0000 C.ar    1  LIG1        0.0027
     16 C           1.7750    3.4330    0.0000 C.3     1  LIG1        0.0330
     17 C           2.7670    3.3290    0.0000 C.3     1  LIG1        0.0056
     18 O           2.4170   -1.9330    0.0000 O.2     1  LIG1       -0.2497
     19 C          -1.0380   -2.9290    0.0000 C.ar    1  LIG1        0.0045
     20 C          -1.8960   -3.4290    0.0000 C.ar    1  LIG1        0.0002
     21 C          -2.7710   -2.9330    0.0000 C.ar    1  LIG1        0.0015
     22 C          -2.7710   -1.9330    0.0000 C.ar    1  LIG1        0.0174
     23 C          -2.7710    0.0750    0.0000 C.3     1  LIG1        0.1335
     24 O          -1.0460    1.0750    0.0000 O.2     1  LIG1       -0.2672
@<TRIPOS>BOND
     1     1     2   ar
     2     1     6   ar
     3     1    10    1
     4     2     3   ar
     5     2    24    2
     6     3     4   ar
     7     3    23    1
     8     4     5   ar
     9     4    22   ar
    10     5     6   ar
    11     5    19   ar
    12     6     7    1
    13     7     8    1
    14     8     9    1
    15     8    18    2
    16     9    10    1
    17    10    11    1
    18    11    12   ar
    19    11    15   ar
    20    12    13   ar
    21    13    14   ar
    22    13    16    1
    23    14    15   ar
    24    16    17    1
    25    19    20   ar
    26    20    21   ar
    27    21    22   ar
