@<TRIPOS>MOLECULE
35088_ChemDiv_8017-2888
 21 23 0 0 0
SMALL
GASTEIGER
Energy = 0

@<TRIPOS>ATOM
      1 C          -1.0380    1.2830    0.0000 C.2     1  LIG1        0.2721
      2 C          -0.2580    0.6580    0.0000 C.ar    1  LIG1        0.0911
      3 C          -0.2580   -0.3420    0.0000 C.ar    1  LIG1        0.1498
      4 O          -1.0380   -0.9580    0.0000 O.3     1  LIG1       -0.4520
      5 C          -2.0080   -0.7420    0.0000 C.ar    1  LIG1        0.1601
      6 C          -2.4380    0.1540    0.0000 C.ar    1  LIG1        0.1080
      7 N          -2.0080    1.0580    0.0000 N.am    1  LIG1       -0.1723
      8 C          -3.4330    0.2330    0.0000 C.ar    1  LIG1        0.0194
      9 C          -3.9960   -0.5920    0.0000 C.ar    1  LIG1       -0.0027
     10 C          -3.5630   -1.4830    0.0000 C.ar    1  LIG1       -0.0187
     11 C          -2.5710   -1.5580    0.0000 C.ar    1  LIG1        0.0346
     12 C          -4.0580   -2.3460    0.0000 C.3     1  LIG1        0.0311
     13 C           0.6040   -0.8420    0.0000 C.ar    1  LIG1        0.0390
     14 C           1.4670   -0.3420    0.0000 C.ar    1  LIG1        0.0197
     15 C           1.4670    0.6580    0.0000 C.ar    1  LIG1        0.0737
     16 C           0.6040    1.1580    0.0000 C.ar    1  LIG1        0.0242
     17 N           2.3290    1.1580    0.0000 N.am    1  LIG1       -0.1792
     18 C           3.1920    0.6580    0.0000 C.2     1  LIG1        0.2461
     19 O           3.1920   -0.3420    0.0000 O.2     1  LIG1       -0.2730
     20 C           4.0540    1.1580    0.0000 C.3     1  LIG1        0.0968
     21 O          -0.8330    2.3500    0.0000 O.2     1  LIG1       -0.2679
@<TRIPOS>BOND
     1     1     2    1
     2     1     7   am
     3     1    21    2
     4     2     3   ar
     5     2    16   ar
     6     3     4    1
     7     3    13   ar
     8     4     5    1
     9     5     6   ar
    10     5    11   ar
    11     6     7    1
    12     6     8   ar
    13     8     9   ar
    14     9    10   ar
    15    10    11   ar
    16    10    12    1
    17    13    14   ar
    18    14    15   ar
    19    15    16   ar
    20    15    17    1
    21    17    18   am
    22    18    19    2
    23    18    20    1
