@<TRIPOS>MOLECULE
35081_ChemDiv_8016-3010
 28 31 0 0 0
SMALL
GASTEIGER
Energy = 0

@<TRIPOS>ATOM
      1 S           0.1380   -0.2170    0.0000 S.O2    1  LIG1        0.0633
      2 N          -0.8670   -0.2170    0.0000 N.3     1  LIG1       -0.1555
      3 C          -1.3670    0.6420    0.0000 C.3     1  LIG1        0.0961
      4 C          -2.3580    0.6420    0.0000 C.3     1  LIG1        0.0235
      5 C          -2.8580   -0.2170    0.0000 C.3     1  LIG1        0.0252
      6 C          -2.3580   -1.0880    0.0000 C.3     1  LIG1        0.0235
      7 C          -1.3670   -1.0880    0.0000 C.3     1  LIG1        0.0961
      8 C          -3.8670   -0.2170    0.0000 C.ar    1  LIG1       -0.0224
      9 C          -4.3670    0.6420    0.0000 C.ar    1  LIG1       -0.0043
     10 C          -5.3670    0.6420    0.0000 C.ar    1  LIG1       -0.0003
     11 C          -5.8670   -0.2170    0.0000 C.ar    1  LIG1       -0.0000
     12 C          -5.3670   -1.0880    0.0000 C.ar    1  LIG1       -0.0003
     13 C          -4.3670   -1.0880    0.0000 C.ar    1  LIG1       -0.0043
     14 C           1.1380   -0.2170    0.0000 C.ar    1  LIG1        0.1220
     15 C           1.6420    0.6420    0.0000 C.ar    1  LIG1        0.0170
     16 C           2.6420    0.6420    0.0000 C.ar    1  LIG1       -0.0042
     17 C           3.1420   -0.2170    0.0000 C.ar    1  LIG1        0.0646
     18 N           4.1170   -0.0170    0.0000 N.pl3   1  LIG1       -0.1943
     19 S           4.9920   -0.5170    0.0000 S.O2    1  LIG1        0.0588
     20 O           4.4920   -1.3790    0.0000 O.2     1  LIG1       -0.1542
     21 O           5.4920    0.3420    0.0000 O.2     1  LIG1       -0.1542
     22 C           5.8630   -1.0170    0.0000 C.3     1  LIG1        0.1999
     23 C           4.2290    0.9790    0.0000 C.3     1  LIG1        0.1202
     24 C           3.3170    1.3830    0.0000 C.3     1  LIG1        0.0510
     25 C           2.6420   -1.0880    0.0000 C.ar    1  LIG1        0.0172
     26 C           1.6380   -1.0880    0.0000 C.ar    1  LIG1        0.0212
     27 O           0.1380    0.7710    0.0000 O.2     1  LIG1       -0.1528
     28 O           0.1380   -1.2170    0.0000 O.2     1  LIG1       -0.1528
@<TRIPOS>BOND
     1     1     2    1
     2     1    14    1
     3     1    27    2
     4     1    28    2
     5     2     3    1
     6     2     7    1
     7     3     4    1
     8     4     5    1
     9     5     6    1
    10     5     8    1
    11     6     7    1
    12     8     9   ar
    13     8    13   ar
    14     9    10   ar
    15    10    11   ar
    16    11    12   ar
    17    12    13   ar
    18    14    15   ar
    19    14    26   ar
    20    15    16   ar
    21    16    17   ar
    22    16    24    1
    23    17    18    1
    24    17    25   ar
    25    18    19    1
    26    18    23    1
    27    19    20    2
    28    19    21    2
    29    19    22    1
    30    23    24    1
    31    25    26   ar
