@<TRIPOS>MOLECULE
35080_ChemDiv_8017-2760
 20 22 0 0 0
SMALL
GASTEIGER
Energy = 0

@<TRIPOS>ATOM
      1 N          -1.4710    0.2580    0.0000 N.ar    1  LIG1       -0.2800
      2 C          -0.5210   -0.0500    0.0000 C.ar    1  LIG1        0.1737
      3 C           0.0670    0.7580    0.0000 C.ar    1  LIG1        0.1162
      4 N          -0.5210    1.5710    0.0000 N.ar    1  LIG1       -0.2250
      5 C          -1.4710    1.2580    0.0000 C.ar    1  LIG1        0.1485
      6 C          -2.3380    1.7580    0.0000 C.ar    1  LIG1        0.0374
      7 C          -3.2080    1.2580    0.0000 C.ar    1  LIG1        0.0043
      8 C          -3.2080    0.2580    0.0000 C.ar    1  LIG1        0.0133
      9 C          -2.3380   -0.2420    0.0000 C.ar    1  LIG1        0.0439
     10 C          -2.3380   -1.2420    0.0000 C.3     1  LIG1        0.0442
     11 C          -3.1960   -1.7540    0.0000 C.3     1  LIG1        0.0062
     12 C          -4.0710   -1.2630    0.0000 C.3     1  LIG1        0.0004
     13 C           1.0670    0.7580    0.0000 C.ar    1  LIG1        0.0207
     14 C           1.5670   -0.1040    0.0000 C.ar    1  LIG1        0.0039
     15 C           2.5670   -0.1040    0.0000 C.ar    1  LIG1        0.0297
     16 C           3.0670    0.7580    0.0000 C.ar    1  LIG1        0.1401
     17 C           2.5670    1.6250    0.0000 C.ar    1  LIG1        0.0297
     18 C           1.5670    1.6250    0.0000 C.ar    1  LIG1        0.0039
     19 F           4.0670    0.7580    0.0000 F       1  LIG1       -0.2042
     20 N          -0.0210   -0.9170    0.0000 N.pl3   1  LIG1       -0.1070
@<TRIPOS>BOND
     1     1     2   ar
     2     1     5   ar
     3     1     9   ar
     4     2     3   ar
     5     2    20    1
     6     3     4   ar
     7     3    13    1
     8     4     5   ar
     9     5     6   ar
    10     6     7   ar
    11     7     8   ar
    12     8     9   ar
    13     9    10    1
    14    10    11    1
    15    11    12    1
    16    13    14   ar
    17    13    18   ar
    18    14    15   ar
    19    15    16   ar
    20    16    17   ar
    21    16    19    1
    22    17    18   ar
