@<TRIPOS>MOLECULE
35097_ChemDiv_8016-5420
 28 31 0 0 0
SMALL
GASTEIGER
Energy = 0

@<TRIPOS>ATOM
      1 N          -2.5920    0.0040    0.0000 N.ar    1  LIG1       -0.2723
      2 C          -1.7170    0.5040    0.0000 C.ar    1  LIG1        0.1795
      3 N          -1.7170    1.4960    0.0000 N.ar    1  LIG1       -0.1840
      4 C          -2.5710    1.9960    0.0000 C.ar    1  LIG1        0.2839
      5 C          -3.4670    1.4960    0.0000 C.ar    1  LIG1        0.0988
      6 C          -3.4670    0.5040    0.0000 C.ar    1  LIG1        0.1614
      7 N          -4.3330   -0.0040    0.0000 N.pl3   1  LIG1       -0.1084
      8 O          -2.5670    3.0040    0.0000 O.2     1  LIG1       -0.2650
      9 S          -0.8420    0.0040    0.0000 S.3     1  LIG1       -0.0687
     10 C           0.0290    0.5040    0.0000 C.3     1  LIG1        0.1306
     11 C           0.8960   -0.0040    0.0000 C.ar    1  LIG1        0.1536
     12 N           0.8960   -1.0040    0.0000 N.ar    1  LIG1       -0.1920
     13 C           1.7710   -1.5040    0.0000 C.ar    1  LIG1        0.2817
     14 C           2.6210   -1.0040    0.0000 C.ar    1  LIG1        0.0755
     15 C           2.6210   -0.0040    0.0000 C.ar    1  LIG1        0.0873
     16 N           1.7710    0.5040    0.0000 N.ar    1  LIG1       -0.2296
     17 C           3.4790    0.5040    0.0000 C.ar    1  LIG1        0.0193
     18 C           4.3290   -0.0040    0.0000 C.ar    1  LIG1        0.0015
     19 C           4.3290   -1.0040    0.0000 C.ar    1  LIG1        0.0003
     20 C           3.4790   -1.5040    0.0000 C.ar    1  LIG1        0.0063
     21 O           1.7710   -2.5040    0.0000 O.2     1  LIG1       -0.2651
     22 C          -2.5920   -0.9920    0.0000 C.ar    1  LIG1        0.0667
     23 C          -1.7290   -1.4790    0.0000 C.ar    1  LIG1        0.0134
     24 C          -1.7170   -2.4790    0.0000 C.ar    1  LIG1       -0.0204
     25 C          -2.5670   -3.0000    0.0000 C.ar    1  LIG1       -0.0042
     26 C          -3.4330   -2.5040    0.0000 C.ar    1  LIG1        0.0012
     27 C          -3.4540   -1.5040    0.0000 C.ar    1  LIG1        0.0176
     28 C          -0.8420   -2.9540    0.0000 C.3     1  LIG1        0.0311
@<TRIPOS>BOND
     1     1     2   ar
     2     1     6   ar
     3     1    22    1
     4     2     3   ar
     5     2     9    1
     6     3     4   ar
     7     4     5   ar
     8     4     8    2
     9     5     6   ar
    10     6     7    1
    11     9    10    1
    12    10    11    1
    13    11    12   ar
    14    11    16   ar
    15    12    13   ar
    16    13    14   ar
    17    13    21    2
    18    14    15   ar
    19    14    20   ar
    20    15    16   ar
    21    15    17   ar
    22    17    18   ar
    23    18    19   ar
    24    19    20   ar
    25    22    23   ar
    26    22    27   ar
    27    23    24   ar
    28    24    25   ar
    29    24    28    1
    30    25    26   ar
    31    26    27   ar
