@<TRIPOS>MOLECULE
35095_ChemDiv_8016-5411
 24 27 0 0 0
SMALL
GASTEIGER
Energy = 0

@<TRIPOS>ATOM
      1 C           0.4330    0.5000    0.0000 C.ar    1  LIG1        0.1668
      2 N           1.3170    0.0000    0.0000 N.ar    1  LIG1       -0.2020
      3 C           2.1710    0.4960    0.0000 C.ar    1  LIG1        0.1929
      4 N           2.1790    1.5000    0.0000 N.ar    1  LIG1       -0.2028
      5 C           1.3080    2.0000    0.0000 C.ar    1  LIG1        0.1747
      6 C           0.4330    1.5080    0.0000 C.ar    1  LIG1        0.0704
      7 C          -0.4460    2.0000    0.0000 C.ar    1  LIG1        0.0029
      8 C          -1.3080    1.5080    0.0000 C.ar    1  LIG1       -0.0084
      9 C          -1.3080    0.5000    0.0000 C.ar    1  LIG1        0.0567
     10 N          -0.4460    0.0000    0.0000 N.ar    1  LIG1       -0.2311
     11 C          -2.1750    0.0000    0.0000 C.3     1  LIG1        0.0455
     12 C          -3.0380    0.5000    0.0000 C.3     1  LIG1        0.0066
     13 C          -3.0380    1.5080    0.0000 C.3     1  LIG1        0.0051
     14 C          -2.1750    2.0000    0.0000 C.3     1  LIG1        0.0276
     15 N           1.3080    2.9960    0.0000 N.pl3   1  LIG1       -0.1070
     16 S           3.0330   -0.0040    0.0000 S.3     1  LIG1       -0.0708
     17 C           3.0330   -1.0040    0.0000 C.3     1  LIG1        0.0913
     18 C           2.1710   -1.5000    0.0000 C.ar    1  LIG1       -0.0108
     19 C           2.1710   -2.4920    0.0000 C.ar    1  LIG1       -0.0025
     20 C           1.3080   -2.9920    0.0000 C.ar    1  LIG1        0.0111
     21 C           0.4460   -2.4920    0.0000 C.ar    1  LIG1        0.0577
     22 CL         -0.4330   -2.9790    0.0000 Cl      1  LIG1       -0.0822
     23 C           0.4460   -1.4920    0.0000 C.ar    1  LIG1        0.0111
     24 C           1.3080   -1.0000    0.0000 C.ar    1  LIG1       -0.0025
@<TRIPOS>BOND
     1     1     2   ar
     2     1     6   ar
     3     1    10   ar
     4     2     3   ar
     5     3     4   ar
     6     3    16    1
     7     4     5   ar
     8     5     6   ar
     9     5    15    1
    10     6     7   ar
    11     7     8   ar
    12     8     9   ar
    13     8    14    1
    14     9    10   ar
    15     9    11    1
    16    11    12    1
    17    12    13    1
    18    13    14    1
    19    16    17    1
    20    17    18    1
    21    18    19   ar
    22    18    24   ar
    23    19    20   ar
    24    20    21   ar
    25    21    22    1
    26    21    23   ar
    27    23    24   ar
