@<TRIPOS>MOLECULE
35099_ChemDiv_8016-5485
 28 32 0 0 0
SMALL
GASTEIGER
Energy = 0

@<TRIPOS>ATOM
      1 C          -2.4250   -0.4210    0.0000 C.ar    1  LIG1        0.0376
      2 C          -1.8460   -1.2330    0.0000 C.ar    1  LIG1        0.1453
      3 O          -2.4250   -2.0460    0.0000 O.2     1  LIG1       -0.4535
      4 C          -3.3830   -1.7420    0.0000 C.ar    1  LIG1        0.1453
      5 C          -3.3830   -0.7330    0.0000 C.ar    1  LIG1        0.0375
      6 C          -4.2500   -0.2330    0.0000 C.ar    1  LIG1        0.0031
      7 C          -5.1080   -0.7330    0.0000 C.ar    1  LIG1        0.0002
      8 C          -5.1130   -1.7420    0.0000 C.ar    1  LIG1        0.0031
      9 C          -4.2460   -2.2330    0.0000 C.ar    1  LIG1        0.0375
     10 C          -0.8460   -1.1330    0.0000 C.ar    1  LIG1        0.0376
     11 C          -0.4330   -0.2170    0.0000 C.ar    1  LIG1        0.0077
     12 C          -1.0330    0.5960    0.0000 C.ar    1  LIG1        0.0556
     13 C          -0.6210    1.5080    0.0000 C.2     1  LIG1        0.2690
     14 N           0.3710    1.6210    0.0000 N.am    1  LIG1       -0.1754
     15 C           0.9580    0.8080    0.0000 C.ar    1  LIG1        0.0753
     16 C           1.9460    0.9210    0.0000 C.ar    1  LIG1        0.0372
     17 C           2.5330    0.1210    0.0000 C.ar    1  LIG1        0.0998
     18 N           3.5290    0.2330    0.0000 N.ar    1  LIG1       -0.2469
     19 C           4.1210   -0.5920    0.0000 C.ar    1  LIG1        0.0728
     20 C           3.7080   -1.5080    0.0000 C.ar    1  LIG1        0.0728
     21 N           2.7080   -1.6080    0.0000 N.ar    1  LIG1       -0.2470
     22 C           2.1210   -0.8040    0.0000 C.ar    1  LIG1        0.0986
     23 C           1.1330   -0.9080    0.0000 C.ar    1  LIG1        0.0220
     24 C           0.5540   -0.0960    0.0000 C.ar    1  LIG1        0.0183
     25 C           4.2960   -2.3080    0.0000 C.3     1  LIG1        0.0534
     26 C           5.1080   -0.4830    0.0000 C.3     1  LIG1        0.0534
     27 O          -1.2080    2.3130    0.0000 O.2     1  LIG1       -0.2680
     28 C          -2.0210    0.4960    0.0000 C.ar    1  LIG1        0.0077
@<TRIPOS>BOND
     1     1     2   ar
     2     1     5   ar
     3     1    28   ar
     4     2     3   ar
     5     2    10   ar
     6     3     4   ar
     7     4     5   ar
     8     4     9   ar
     9     5     6   ar
    10     6     7   ar
    11     7     8   ar
    12     8     9   ar
    13    10    11   ar
    14    11    12   ar
    15    12    13    1
    16    12    28   ar
    17    13    14   am
    18    13    27    2
    19    14    15    1
    20    15    16   ar
    21    15    24   ar
    22    16    17   ar
    23    17    18   ar
    24    17    22   ar
    25    18    19   ar
    26    19    20   ar
    27    19    26    1
    28    20    21   ar
    29    20    25    1
    30    21    22   ar
    31    22    23   ar
    32    23    24   ar
