@<TRIPOS>MOLECULE
35091_ChemDiv_8016-5260
 22 24 0 0 0
SMALL
GASTEIGER
Energy = 0

@<TRIPOS>ATOM
      1 C           1.3790   -0.4170    0.0000 C.ar    1  LIG1        0.0757
      2 C           1.5380    0.5670    0.0000 C.ar    1  LIG1        0.1243
      3 N           2.5170    0.7290    0.0000 N.ar    1  LIG1       -0.0753
      4 O           2.9920   -0.1290    0.0000 O.2     1  LIG1       -0.3352
      5 C           2.2920   -0.8790    0.0000 C.ar    1  LIG1        0.2651
      6 N           2.5080   -1.6040    0.0000 N.pl3   1  LIG1       -0.0852
      7 C           0.6790    0.9040    0.0000 C.ar    1  LIG1        0.0210
      8 C           0.6790    1.9290    0.0000 C.ar    1  LIG1        0.0016
      9 C          -0.1830    2.4540    0.0000 C.ar    1  LIG1        0.0000
     10 C          -1.1040    1.9290    0.0000 C.ar    1  LIG1        0.0000
     11 C          -1.1040    0.9210    0.0000 C.ar    1  LIG1        0.0000
     12 C          -0.2170    0.4040    0.0000 C.ar    1  LIG1        0.0016
     13 C           0.5000   -0.9290    0.0000 C.ar    1  LIG1        0.0092
     14 C          -0.3540   -0.4170    0.0000 C.ar    1  LIG1        0.0402
     15 C          -1.2420   -0.9420    0.0000 C.ar    1  LIG1        0.1724
     16 C          -1.2420   -1.9380    0.0000 C.ar    1  LIG1        0.1724
     17 C          -0.3540   -2.4500    0.0000 C.ar    1  LIG1        0.0400
     18 C           0.5000   -1.9540    0.0000 C.ar    1  LIG1        0.0035
     19 O          -2.1290   -2.4500    0.0000 O.3     1  LIG1       -0.4684
     20 C          -2.9960   -1.9380    0.0000 C.3     1  LIG1        0.2526
     21 O          -2.1290   -0.4540    0.0000 O.3     1  LIG1       -0.4684
     22 C          -2.9960   -0.9630    0.0000 C.3     1  LIG1        0.2526
@<TRIPOS>BOND
     1     1     2   ar
     2     1     5   ar
     3     1    13    1
     4     2     3   ar
     5     2     7    1
     6     3     4   ar
     7     4     5   ar
     8     5     6    1
     9     7     8   ar
    10     7    12   ar
    11     8     9   ar
    12     9    10   ar
    13    10    11   ar
    14    11    12   ar
    15    13    14   ar
    16    13    18   ar
    17    14    15   ar
    18    15    16   ar
    19    15    21    1
    20    16    17   ar
    21    16    19    1
    22    17    18   ar
    23    19    20    1
    24    21    22    1
