@<TRIPOS>MOLECULE
35106_ChemDiv_8017-2932
 21 23 0 0 0
SMALL
GASTEIGER
Energy = 0

@<TRIPOS>ATOM
      1 C          -0.5670    0.8830    0.0000 C.2     1  LIG1        0.2721
      2 C           0.2080    0.2630    0.0000 C.ar    1  LIG1        0.0911
      3 C           0.2080   -0.7290    0.0000 C.ar    1  LIG1        0.1498
      4 O          -0.5670   -1.3540    0.0000 O.3     1  LIG1       -0.4520
      5 C          -1.5420   -1.1290    0.0000 C.ar    1  LIG1        0.1604
      6 C          -1.9710   -0.2290    0.0000 C.ar    1  LIG1        0.1078
      7 N          -1.5420    0.6630    0.0000 N.am    1  LIG1       -0.1723
      8 C          -2.9670   -0.1540    0.0000 C.ar    1  LIG1        0.0155
      9 C          -3.5290   -0.9790    0.0000 C.ar    1  LIG1       -0.0204
     10 C          -3.0920   -1.8790    0.0000 C.ar    1  LIG1       -0.0010
     11 C          -2.1040   -1.9540    0.0000 C.ar    1  LIG1        0.0385
     12 C          -4.5250   -0.9790    0.0000 C.3     1  LIG1        0.0311
     13 C           1.0710   -1.2290    0.0000 C.ar    1  LIG1        0.0390
     14 C           1.9330   -0.7290    0.0000 C.ar    1  LIG1        0.0197
     15 C           1.9330    0.2630    0.0000 C.ar    1  LIG1        0.0737
     16 C           1.0710    0.7630    0.0000 C.ar    1  LIG1        0.0242
     17 N           2.7960    0.7630    0.0000 N.am    1  LIG1       -0.1792
     18 C           3.6580    0.2630    0.0000 C.2     1  LIG1        0.2461
     19 O           3.6580   -0.7290    0.0000 O.2     1  LIG1       -0.2730
     20 C           4.5210    0.7630    0.0000 C.3     1  LIG1        0.0968
     21 O          -0.3670    1.9580    0.0000 O.2     1  LIG1       -0.2679
@<TRIPOS>BOND
     1     1     2    1
     2     1     7   am
     3     1    21    2
     4     2     3   ar
     5     2    16   ar
     6     3     4    1
     7     3    13   ar
     8     4     5    1
     9     5     6   ar
    10     5    11   ar
    11     6     7    1
    12     6     8   ar
    13     8     9   ar
    14     9    10   ar
    15     9    12    1
    16    10    11   ar
    17    13    14   ar
    18    14    15   ar
    19    15    16   ar
    20    15    17    1
    21    17    18   am
    22    18    19    2
    23    18    20    1
