@<TRIPOS>MOLECULE
35104_ChemDiv_8016-9702
 24 27 0 0 0
SMALL
GASTEIGER
Energy = 0

@<TRIPOS>ATOM
      1 C          -0.6210   -2.0830    0.0000 C.ar    1  LIG1        0.0935
      2 S          -1.2080   -2.8960    0.0000 S.2     1  LIG1       -0.0816
      3 C          -2.1710   -2.5830    0.0000 C.ar    1  LIG1        0.0304
      4 C          -2.1710   -1.5830    0.0000 C.ar    1  LIG1        0.0172
      5 C          -1.2080   -1.2670    0.0000 C.ar    1  LIG1        0.0685
      6 CL         -0.9000   -0.3210    0.0000 Cl      1  LIG1       -0.0816
      7 C          -3.0330   -1.0830    0.0000 C.ar    1  LIG1        0.0014
      8 C          -3.8960   -1.5830    0.0000 C.ar    1  LIG1        0.0001
      9 C          -3.9000   -2.5830    0.0000 C.ar    1  LIG1        0.0005
     10 C          -3.0330   -3.0830    0.0000 C.ar    1  LIG1        0.0065
     11 C           0.3830   -2.0830    0.0000 C.2     1  LIG1        0.2560
     12 N           0.8830   -1.2170    0.0000 N.am    1  LIG1       -0.2721
     13 C           0.3830   -0.3540    0.0000 C.3     1  LIG1        0.1152
     14 C           0.8920    0.5130    0.0000 C.3     1  LIG1        0.1151
     15 N           1.8830    0.5130    0.0000 N.pl3   1  LIG1       -0.2747
     16 C           2.3880    1.3630    0.0000 C.ar    1  LIG1        0.2203
     17 N           3.3960    1.3580    0.0000 N.ar    1  LIG1       -0.2121
     18 C           3.8960    2.2210    0.0000 C.ar    1  LIG1        0.1034
     19 C           3.3960    3.0880    0.0000 C.ar    1  LIG1        0.0414
     20 C           2.3960    3.0880    0.0000 C.ar    1  LIG1        0.1034
     21 N           1.8960    2.2250    0.0000 N.ar    1  LIG1       -0.2121
     22 C           2.3830   -0.3580    0.0000 C.3     1  LIG1        0.1151
     23 C           1.8830   -1.2210    0.0000 C.3     1  LIG1        0.1152
     24 O           0.8830   -2.9460    0.0000 O.2     1  LIG1       -0.2693
@<TRIPOS>BOND
     1     1     2   ar
     2     1     5   ar
     3     1    11    1
     4     2     3   ar
     5     3     4   ar
     6     3    10   ar
     7     4     5   ar
     8     4     7   ar
     9     5     6    1
    10     7     8   ar
    11     8     9   ar
    12     9    10   ar
    13    11    12   am
    14    11    24    2
    15    12    13    1
    16    12    23    1
    17    13    14    1
    18    14    15    1
    19    15    16    1
    20    15    22    1
    21    16    17   ar
    22    16    21   ar
    23    17    18   ar
    24    18    19   ar
    25    19    20   ar
    26    20    21   ar
    27    22    23    1
