@<TRIPOS>MOLECULE
35100_ChemDiv_8016-9431
 27 31 0 0 0
SMALL
GASTEIGER
Energy = 0

@<TRIPOS>ATOM
      1 C          -2.7790   -0.3040    0.0000 C.ar    1  LIG1        0.1798
      2 O          -3.3670   -1.1130    0.0000 O.2     1  LIG1       -0.4506
      3 C          -4.3170   -0.8040    0.0000 C.ar    1  LIG1        0.1454
      4 C          -4.3170    0.1960    0.0000 C.ar    1  LIG1        0.0377
      5 C          -3.3670    0.5080    0.0000 C.ar    1  LIG1        0.0435
      6 C          -5.1830    0.6960    0.0000 C.ar    1  LIG1        0.0031
      7 C          -6.0380    0.1960    0.0000 C.ar    1  LIG1        0.0002
      8 C          -6.0380   -0.8040    0.0000 C.ar    1  LIG1        0.0031
      9 C          -5.1830   -1.3040    0.0000 C.ar    1  LIG1        0.0375
     10 C          -1.7790   -0.3040    0.0000 C.2     1  LIG1        0.2090
     11 O          -1.2790    0.5630    0.0000 O.2     1  LIG1       -0.2880
     12 C          -1.2790   -1.1670    0.0000 C.3     1  LIG1        0.0957
     13 C          -0.2790   -1.1670    0.0000 C.3     1  LIG1        0.1204
     14 N           0.2250   -0.3000    0.0000 N.pl3   1  LIG1       -0.2370
     15 C           1.2250   -0.3000    0.0000 C.ar    1  LIG1        0.0684
     16 C           1.7250    0.5630    0.0000 C.ar    1  LIG1        0.0536
     17 C           2.7250    0.5630    0.0000 C.ar    1  LIG1        0.1466
     18 O           3.3960    1.3080    0.0000 O.2     1  LIG1       -0.4535
     19 C           4.3080    0.9000    0.0000 C.ar    1  LIG1        0.1453
     20 C           4.2000   -0.0920    0.0000 C.ar    1  LIG1        0.0375
     21 C           3.2250   -0.3000    0.0000 C.ar    1  LIG1        0.0376
     22 C           2.7250   -1.1670    0.0000 C.ar    1  LIG1        0.0045
     23 C           1.7250   -1.1670    0.0000 C.ar    1  LIG1        0.0163
     24 C           5.0130   -0.6790    0.0000 C.ar    1  LIG1        0.0031
     25 C           5.9290   -0.2750    0.0000 C.ar    1  LIG1        0.0002
     26 C           6.0380    0.7210    0.0000 C.ar    1  LIG1        0.0031
     27 C           5.2210    1.3080    0.0000 C.ar    1  LIG1        0.0375
@<TRIPOS>BOND
     1     1     2   ar
     2     1     5   ar
     3     1    10    1
     4     2     3   ar
     5     3     4   ar
     6     3     9   ar
     7     4     5   ar
     8     4     6   ar
     9     6     7   ar
    10     7     8   ar
    11     8     9   ar
    12    10    11    2
    13    10    12    1
    14    12    13    1
    15    13    14    1
    16    14    15    1
    17    15    16   ar
    18    15    23   ar
    19    16    17   ar
    20    17    18   ar
    21    17    21   ar
    22    18    19   ar
    23    19    20   ar
    24    19    27   ar
    25    20    21   ar
    26    20    24   ar
    27    21    22   ar
    28    22    23   ar
    29    24    25   ar
    30    25    26   ar
    31    26    27   ar
