@<TRIPOS>MOLECULE
35101_ChemDiv_8016-5489
 30 34 0 0 0
SMALL
GASTEIGER
Energy = 0

@<TRIPOS>ATOM
      1 C           2.7380    0.7210    0.0000 C.3     1  LIG1        0.1216
      2 N           3.2290    1.5960    0.0000 N.4     1  LIG1        0.3754
      3 C           4.2290    1.6000    0.0000 C.3     1  LIG1        0.1386
      4 C           4.7290    2.4710    0.0000 C.3     1  LIG1        0.0629
      5 C           4.2170    3.3330    0.0000 C.3     1  LIG1        0.0123
      6 C           3.2170    3.3290    0.0000 C.3     1  LIG1        0.0629
      7 C           2.7170    2.4580    0.0000 C.3     1  LIG1        0.1386
      8 C           3.2290   -0.1380    0.0000 C.2     1  LIG1        0.3061
      9 O           2.7290   -0.9920    0.0000 O.2     1  LIG1       -0.2657
     10 N           4.2250   -0.1420    0.0000 N.am    1  LIG1       -0.0830
     11 C           2.3210   -0.1880    0.0000 C.3     1  LIG1        0.0819
     12 C           1.3380   -0.2920    0.0000 C.3     1  LIG1        0.1000
     13 N           0.7500    0.5210    0.0000 N.am    1  LIG1       -0.2756
     14 C          -0.2460    0.4130    0.0000 C.2     1  LIG1        0.2490
     15 C          -0.6460   -0.4920    0.0000 C.ar    1  LIG1        0.0538
     16 C          -1.6380   -0.6040    0.0000 C.ar    1  LIG1        0.0076
     17 C          -2.0460   -1.5170    0.0000 C.ar    1  LIG1        0.0376
     18 C          -1.4580   -2.3290    0.0000 C.ar    1  LIG1        0.1453
     19 O          -2.0460   -3.1420    0.0000 O.2     1  LIG1       -0.4535
     20 C          -3.0000   -2.8290    0.0000 C.ar    1  LIG1        0.1453
     21 C          -3.0080   -1.8250    0.0000 C.ar    1  LIG1        0.0375
     22 C          -3.8710   -1.3290    0.0000 C.ar    1  LIG1        0.0031
     23 C          -4.7330   -1.8290    0.0000 C.ar    1  LIG1        0.0002
     24 C          -4.7330   -2.8290    0.0000 C.ar    1  LIG1        0.0031
     25 C          -3.8710   -3.3290    0.0000 C.ar    1  LIG1        0.0375
     26 C          -0.4630   -2.2250    0.0000 C.ar    1  LIG1        0.0376
     27 C          -0.0500   -1.3130    0.0000 C.ar    1  LIG1        0.0076
     28 O          -0.8250    1.2210    0.0000 O.2     1  LIG1       -0.2699
     29 C           1.1540    1.4330    0.0000 C.3     1  LIG1        0.1000
     30 C           2.1500    1.5330    0.0000 C.3     1  LIG1        0.0819
@<TRIPOS>BOND
     1     1     2    1
     2     1     8    1
     3     1    11    1
     4     1    30    1
     5     2     3    1
     6     2     7    1
     7     3     4    1
     8     4     5    1
     9     5     6    1
    10     6     7    1
    11     8     9    2
    12     8    10   am
    13    11    12    1
    14    12    13    1
    15    13    14   am
    16    13    29    1
    17    14    15    1
    18    14    28    2
    19    15    16   ar
    20    15    27   ar
    21    16    17   ar
    22    17    18   ar
    23    17    21   ar
    24    18    19   ar
    25    18    26   ar
    26    19    20   ar
    27    20    21   ar
    28    20    25   ar
    29    21    22   ar
    30    22    23   ar
    31    23    24   ar
    32    24    25   ar
    33    26    27   ar
    34    29    30    1
