@<TRIPOS>MOLECULE
35102_ChemDiv_8016-9470
 24 27 0 0 0
SMALL
GASTEIGER
Energy = 0

@<TRIPOS>ATOM
      1 C           0.4170    0.6080    0.0000 C.ar    1  LIG1        0.0974
      2 C           1.3920    0.5130    0.0000 C.3     1  LIG1        0.1652
      3 N           2.3170    0.1630    0.0000 N.am    1  LIG1       -0.1886
      4 C           2.9670    1.0080    0.0000 C.2     1  LIG1        0.2537
      5 C           2.3920    1.7710    0.0000 C.3     1  LIG1        0.1463
      6 S           1.3880    1.5080    0.0000 S.3     1  LIG1       -0.1033
      7 O           3.8960    1.1330    0.0000 O.2     1  LIG1       -0.2723
      8 C           1.3920   -0.4830    0.0000 C.ar    1  LIG1        0.0094
      9 C           0.5290   -0.9830    0.0000 C.ar    1  LIG1       -0.0015
     10 C           0.5290   -1.9790    0.0000 C.ar    1  LIG1       -0.0002
     11 C           1.3880   -2.4710    0.0000 C.ar    1  LIG1       -0.0000
     12 C           2.2500   -1.9790    0.0000 C.ar    1  LIG1       -0.0002
     13 C           2.2500   -0.9830    0.0000 C.ar    1  LIG1       -0.0015
     14 C           0.1290    1.5960    0.0000 C.ar    1  LIG1        0.2844
     15 N          -0.9830    1.5880    0.0000 N.ar    1  LIG1       -0.2010
     16 C          -1.1830    0.5330    0.0000 C.ar    1  LIG1        0.1138
     17 S          -0.3830    0.0170    0.0000 S.2     1  LIG1       -0.0647
     18 C          -2.0880    0.1210    0.0000 C.ar    1  LIG1        0.0239
     19 C          -2.1830   -0.8790    0.0000 C.ar    1  LIG1        0.0020
     20 C          -3.0920   -1.2830    0.0000 C.ar    1  LIG1        0.0001
     21 C          -3.9000   -0.7080    0.0000 C.ar    1  LIG1        0.0000
     22 C          -3.8040    0.2830    0.0000 C.ar    1  LIG1        0.0001
     23 C          -2.9000    0.6960    0.0000 C.ar    1  LIG1        0.0020
     24 O           0.5000    2.4750    0.0000 O.3     1  LIG1       -0.2649
@<TRIPOS>BOND
     1     1     2    1
     2     1    14   ar
     3     1    17   ar
     4     2     3    1
     5     2     6    1
     6     2     8    1
     7     3     4   am
     8     4     5    1
     9     4     7    2
    10     5     6    1
    11     8     9   ar
    12     8    13   ar
    13     9    10   ar
    14    10    11   ar
    15    11    12   ar
    16    12    13   ar
    17    14    15   ar
    18    14    24    1
    19    15    16   ar
    20    16    17   ar
    21    16    18    1
    22    18    19   ar
    23    18    23   ar
    24    19    20   ar
    25    20    21   ar
    26    21    22   ar
    27    22    23   ar
