@<TRIPOS>MOLECULE
35103_ChemDiv_8016-5509
 17 18 0 0 0
SMALL
GASTEIGER
Energy = 0

@<TRIPOS>ATOM
      1 C           0.4250   -0.2420    0.0000 C.3     1  LIG1        0.1095
      2 C           1.3040    0.2210    0.0000 C.1     1  LIG1        0.0756
      3 N           2.1750    0.7250    0.0000 N.1     1  LIG1       -0.1956
      4 C          -0.4420    0.2580    0.0000 C.ar    1  LIG1       -0.0062
      5 C          -0.4420    1.2630    0.0000 C.ar    1  LIG1        0.0336
      6 C          -1.3040    1.7580    0.0000 C.ar    1  LIG1        0.1384
      7 O          -1.3080    2.7460    0.0000 O.3     1  LIG1       -0.4714
      8 C          -2.1790    3.2460    0.0000 C.3     1  LIG1        0.2525
      9 C          -2.1670    1.2580    0.0000 C.ar    1  LIG1        0.0369
     10 C          -2.1710    0.2580    0.0000 C.ar    1  LIG1        0.0028
     11 C          -1.3040   -0.2500    0.0000 C.ar    1  LIG1       -0.0031
     12 C          -0.4670   -0.6920    0.0000 C.3     1  LIG1        0.0811
     13 C          -0.5290   -1.6880    0.0000 C.3     1  LIG1        0.1403
     14 N           0.3040   -2.2380    0.0000 N.4     1  LIG1        0.3820
     15 C           1.2000   -1.7920    0.0000 C.3     1  LIG1        0.1403
     16 C           1.2630   -0.7920    0.0000 C.3     1  LIG1        0.0811
     17 C           0.2420   -3.2420    0.0000 C.3     1  LIG1        0.2022
@<TRIPOS>BOND
     1     1     2    1
     2     1     4    1
     3     1    12    1
     4     1    16    1
     5     2     3    3
     6     4     5   ar
     7     4    11   ar
     8     5     6   ar
     9     6     7    1
    10     6     9   ar
    11     7     8    1
    12     9    10   ar
    13    10    11   ar
    14    12    13    1
    15    13    14    1
    16    14    15    1
    17    14    17    1
    18    15    16    1
