@<TRIPOS>MOLECULE
35105_ChemDiv_8016-3139
 27 28 0 0 0
SMALL
GASTEIGER
Energy = 0

@<TRIPOS>ATOM
      1 C           0.2130   -3.2710    0.0000 C.3     1  LIG1        0.0377
      2 C           0.2040   -2.2380    0.0000 C.ar    1  LIG1       -0.0188
      3 C          -0.7000   -1.7170    0.0000 C.ar    1  LIG1       -0.0009
      4 C          -0.7080   -0.6880    0.0000 C.ar    1  LIG1        0.0366
      5 C           0.1920   -0.1580    0.0000 C.ar    1  LIG1        0.1386
      6 C           1.0920   -0.6750    0.0000 C.ar    1  LIG1        0.0366
      7 C           1.1040   -1.7040    0.0000 C.ar    1  LIG1       -0.0009
      8 O           0.1790    0.8750    0.0000 O.3     1  LIG1       -0.4735
      9 C           1.0290    1.3670    0.0000 C.3     1  LIG1        0.2287
     10 C           1.0250    2.3500    0.0000 C.3     1  LIG1        0.1624
     11 N           1.8830    2.8420    0.0000 N.am    1  LIG1       -0.1993
     12 C           1.8790    3.8290    0.0000 C.2     1  LIG1        0.2717
     13 O           2.7330    4.3080    0.0000 O.2     1  LIG1       -0.2706
     14 C           1.0250    4.3080    0.0000 C.3     1  LIG1        0.2290
     15 O           0.1790    3.8290    0.0000 O.3     1  LIG1       -0.3383
     16 C          -0.6710    4.3080    0.0000 C.3     1  LIG1        0.1842
     17 C          -1.5250    3.8290    0.0000 C.2     1  LIG1        0.0801
     18 O          -1.5250    2.8380    0.0000 O.co2   1  LIG1       -0.5466
     19 O          -2.3750    4.3000    0.0000 O.co2   1  LIG1       -0.5466
     20 C          -0.7710   -3.2830    0.0000 C.ar    1  LIG1       -0.0190
     21 C          -1.2710   -2.4290    0.0000 C.ar    1  LIG1       -0.0040
     22 C          -2.2500   -2.4380    0.0000 C.ar    1  LIG1       -0.0003
     23 C          -2.7380   -3.2960    0.0000 C.ar    1  LIG1       -0.0000
     24 C          -2.2380   -4.1460    0.0000 C.ar    1  LIG1       -0.0003
     25 C          -1.2580   -4.1380    0.0000 C.ar    1  LIG1       -0.0040
     26 C           1.1920   -3.2710    0.0000 C.3     1  LIG1        0.0088
     27 C           0.2040   -4.3080    0.0000 C.3     1  LIG1        0.0088
@<TRIPOS>BOND
     1     1     2    1
     2     1    20    1
     3     1    26    1
     4     1    27    1
     5     2     3   ar
     6     2     7   ar
     7     3     4   ar
     8     4     5   ar
     9     5     6   ar
    10     5     8    1
    11     6     7   ar
    12     8     9    1
    13     9    10    1
    14    10    11    1
    15    11    12   am
    16    12    13    2
    17    12    14    1
    18    14    15    1
    19    15    16    1
    20    16    17    1
    21    17    18   ar
    22    17    19   ar
    23    20    21   ar
    24    20    25   ar
    25    21    22   ar
    26    22    23   ar
    27    23    24   ar
    28    24    25   ar
