@<TRIPOS>MOLECULE
35112_ChemDiv_8017-2921
 19 21 0 0 0
SMALL
GASTEIGER
Energy = 0

@<TRIPOS>ATOM
      1 C           0.9040   -0.8420    0.0000 C.3     1  LIG1        0.2200
      2 C           1.4880   -1.6420    0.0000 C.2     1  LIG1        0.2774
      3 N           0.9040   -2.4540    0.0000 N.am    1  LIG1       -0.1771
      4 C          -0.0460   -2.1420    0.0000 C.ar    1  LIG1        0.0722
      5 C          -0.0460   -1.1420    0.0000 C.ar    1  LIG1        0.0296
      6 C          -0.9080   -0.6500    0.0000 C.ar    1  LIG1        0.0065
      7 C          -1.7710   -1.1420    0.0000 C.ar    1  LIG1        0.0344
      8 C          -1.7710   -2.1420    0.0000 C.ar    1  LIG1        0.0080
      9 C          -0.9080   -2.6420    0.0000 C.ar    1  LIG1        0.0169
     10 BR         -2.6330   -0.6500    0.0000 Br      1  LIG1       -0.0490
     11 O           2.4880   -1.6420    0.0000 O.2     1  LIG1       -0.2700
     12 C           1.7670   -0.3420    0.0000 C.3     1  LIG1        0.0701
     13 C           1.7670    0.6580    0.0000 C.ar    1  LIG1       -0.0189
     14 C           2.6290    1.1580    0.0000 C.ar    1  LIG1       -0.0042
     15 C           2.6290    2.1500    0.0000 C.ar    1  LIG1       -0.0003
     16 C           1.7670    2.6460    0.0000 C.ar    1  LIG1       -0.0000
     17 C           0.9040    2.1500    0.0000 C.ar    1  LIG1       -0.0003
     18 C           0.9040    1.1580    0.0000 C.ar    1  LIG1       -0.0042
     19 O           0.2380   -0.0040    0.0000 O.3     1  LIG1       -0.2113
@<TRIPOS>BOND
     1     1     2    1
     2     1     5    1
     3     1    12    1
     4     1    19    1
     5     2     3   am
     6     2    11    2
     7     3     4    1
     8     4     5   ar
     9     4     9   ar
    10     5     6   ar
    11     6     7   ar
    12     7     8   ar
    13     7    10    1
    14     8     9   ar
    15    12    13    1
    16    13    14   ar
    17    13    18   ar
    18    14    15   ar
    19    15    16   ar
    20    16    17   ar
    21    17    18   ar
