@<TRIPOS>MOLECULE
35114_ChemDiv_8017-2924
 21 22 0 0 0
SMALL
GASTEIGER
Energy = 0

@<TRIPOS>ATOM
      1 C          -0.0080    0.0000    0.0000 C.ar    1  LIG1        0.1310
      2 C           0.4920    0.8710    0.0000 C.ar    1  LIG1        0.2946
      3 N          -0.0080    1.7330    0.0000 N.ar    1  LIG1       -0.2052
      4 C          -1.0040    1.7330    0.0000 C.ar    1  LIG1        0.1022
      5 C          -1.5040    0.8710    0.0000 C.ar    1  LIG1        0.0208
      6 C          -1.0040    0.0000    0.0000 C.ar    1  LIG1        0.0230
      7 C          -2.5040    0.8710    0.0000 C.ar    1  LIG1        0.0046
      8 C          -3.0040    0.0000    0.0000 C.ar    1  LIG1        0.0207
      9 C          -4.0040    0.0080    0.0000 C.ar    1  LIG1        0.0989
     10 N          -4.5040    0.8710    0.0000 N.ar    1  LIG1       -0.2423
     11 C          -4.0040    1.7330    0.0000 C.ar    1  LIG1        0.0989
     12 C          -3.0040    1.7330    0.0000 C.ar    1  LIG1        0.0207
     13 O           1.4920    0.8710    0.0000 O.2     1  LIG1       -0.2638
     14 N           0.4920   -0.8630    0.0000 N.am    1  LIG1       -0.1743
     15 C           1.4920   -0.8630    0.0000 C.2     1  LIG1        0.2461
     16 O           2.0000   -1.7290    0.0000 O.2     1  LIG1       -0.2730
     17 C           2.0000    0.0000    0.0000 C.3     1  LIG1        0.0931
     18 C           3.0000    0.0000    0.0000 C.3     1  LIG1        0.0513
     19 C           3.5000    0.8710    0.0000 C.2     1  LIG1        0.0508
     20 O           4.5000    0.8710    0.0000 O.co2   1  LIG1       -0.5492
     21 O           2.9920    1.7330    0.0000 O.co2   1  LIG1       -0.5492
@<TRIPOS>BOND
     1     1     2   ar
     2     1     6   ar
     3     1    14    1
     4     2     3   ar
     5     2    13    2
     6     3     4   ar
     7     4     5   ar
     8     5     6   ar
     9     5     7    1
    10     7     8   ar
    11     7    12   ar
    12     8     9   ar
    13     9    10   ar
    14    10    11   ar
    15    11    12   ar
    16    14    15   am
    17    15    16    2
    18    15    17    1
    19    17    18    1
    20    18    19    1
    21    19    20   ar
    22    19    21   ar
