@<TRIPOS>MOLECULE
35110_ChemDiv_8017-2912
 20 23 0 0 0
SMALL
GASTEIGER
Energy = 0

@<TRIPOS>ATOM
      1 C          -0.1460   -0.9040    0.0000 C.2     1  LIG1        0.2811
      2 C          -0.7330   -0.0960    0.0000 C.3     1  LIG1        0.2348
      3 C          -1.6750   -0.4040    0.0000 C.ar    1  LIG1        0.0327
      4 C          -1.6750   -1.3960    0.0000 C.ar    1  LIG1        0.0725
      5 N          -0.7330   -1.7080    0.0000 N.am    1  LIG1       -0.1768
      6 C          -2.5380   -1.8960    0.0000 C.ar    1  LIG1        0.0164
      7 C          -3.4000   -1.3960    0.0000 C.ar    1  LIG1        0.0013
      8 C          -3.4000   -0.4040    0.0000 C.ar    1  LIG1       -0.0001
      9 C          -2.5380    0.0960    0.0000 C.ar    1  LIG1        0.0002
     10 C           0.1330    0.4080    0.0000 C.ar    1  LIG1        0.0206
     11 C           0.9960   -0.0960    0.0000 C.ar    1  LIG1        0.0391
     12 C           1.8580    0.4080    0.0000 C.ar    1  LIG1        0.1762
     13 C           1.8580    1.4000    0.0000 C.ar    1  LIG1        0.1764
     14 O           2.8080    1.7130    0.0000 O.3     1  LIG1       -0.4346
     15 C           3.3960    0.9080    0.0000 C.3     1  LIG1        0.4294
     16 O           2.8080    0.0960    0.0000 O.3     1  LIG1       -0.4346
     17 C           0.9960    1.9000    0.0000 C.ar    1  LIG1        0.0400
     18 C           0.1330    1.4000    0.0000 C.ar    1  LIG1        0.0022
     19 O          -1.3960    0.7460    0.0000 O.3     1  LIG1       -0.2071
     20 O           0.8580   -0.9040    0.0000 O.2     1  LIG1       -0.2696
@<TRIPOS>BOND
     1     1     2    1
     2     1     5   am
     3     1    20    2
     4     2     3    1
     5     2    10    1
     6     2    19    1
     7     3     4   ar
     8     3     9   ar
     9     4     5    1
    10     4     6   ar
    11     6     7   ar
    12     7     8   ar
    13     8     9   ar
    14    10    11   ar
    15    10    18   ar
    16    11    12   ar
    17    12    13   ar
    18    12    16    1
    19    13    14    1
    20    13    17   ar
    21    14    15    1
    22    15    16    1
    23    17    18   ar
