@<TRIPOS>MOLECULE
35113_ChemDiv_8016-3464
 14 15 0 0 0
SMALL
GASTEIGER
Energy = 0

@<TRIPOS>ATOM
      1 N           0.3540   -0.0540    0.0000 N.ar    1  LIG1       -0.1826
      2 C           1.1670    0.5290    0.0000 C.ar    1  LIG1        0.3153
      3 O           0.8540    1.4710    0.0000 O.2     1  LIG1       -0.3275
      4 N          -0.1420    1.4710    0.0000 N.ar    1  LIG1       -0.0549
      5 C          -0.4540    0.5290    0.0000 C.ar    1  LIG1        0.2097
      6 C          -1.3170    0.0290    0.0000 C.ar    1  LIG1        0.0685
      7 S          -1.4210   -0.9630    0.0000 S.2     1  LIG1       -0.0832
      8 C          -2.3960   -1.1750    0.0000 C.ar    1  LIG1        0.0355
      9 C          -2.9040   -0.3040    0.0000 C.ar    1  LIG1        0.0076
     10 C          -2.2290    0.4420    0.0000 C.ar    1  LIG1        0.0102
     11 C           2.0290    0.0290    0.0000 C.2     1  LIG1        0.3212
     12 O           2.9000    0.5290    0.0000 O.2     1  LIG1       -0.2631
     13 N           2.0290   -0.9670    0.0000 N.am    1  LIG1       -0.1957
     14 C           2.9000   -1.4670    0.0000 C.3     1  LIG1        0.1390
@<TRIPOS>BOND
     1     1     2   ar
     2     1     5   ar
     3     2     3   ar
     4     2    11    1
     5     3     4   ar
     6     4     5   ar
     7     5     6    1
     8     6     7   ar
     9     6    10   ar
    10     7     8   ar
    11     8     9   ar
    12     9    10   ar
    13    11    12    2
    14    11    13   am
    15    13    14    1
