@<TRIPOS>MOLECULE
35117_ChemDiv_C066-1590
 25 26 0 0 0
SMALL
GASTEIGER
Energy = 0

@<TRIPOS>ATOM
      1 N           1.1540    0.8170    0.0000 N.2     1  LIG1       -0.1713
      2 N           1.2630   -0.1790    0.0000 N.am    1  LIG1       -0.1586
      3 C           0.4460   -0.7670    0.0000 C.2     1  LIG1        0.2486
      4 C          -0.4630   -0.3580    0.0000 C.3     1  LIG1        0.0939
      5 C          -0.5670    0.6250    0.0000 C.3     1  LIG1        0.0618
      6 C           0.2500    1.2130    0.0000 C.2     1  LIG1        0.1320
      7 C           0.1460    2.2080    0.0000 C.2     1  LIG1        0.2801
      8 O           0.9580    2.7960    0.0000 O.2     1  LIG1       -0.2670
      9 N          -0.7670    2.6290    0.0000 N.am    1  LIG1       -0.1942
     10 C          -1.5830    2.0380    0.0000 C.3     1  LIG1        0.1778
     11 C          -2.4960    2.4540    0.0000 C.3     1  LIG1        0.1624
     12 N          -3.3130    1.8750    0.0000 N.4     1  LIG1        0.3786
     13 C          -3.2040    0.8670    0.0000 C.3     1  LIG1        0.1388
     14 C          -2.3000    0.4580    0.0000 C.3     1  LIG1        0.0688
     15 C          -4.2170    2.2830    0.0000 C.3     1  LIG1        0.1388
     16 C          -5.0330    1.6960    0.0000 C.3     1  LIG1        0.0688
     17 O           0.5330   -1.7670    0.0000 O.2     1  LIG1       -0.2728
     18 C           2.1670   -0.5880    0.0000 C.ar    1  LIG1        0.0769
     19 C           2.2710   -1.5790    0.0000 C.ar    1  LIG1        0.0199
     20 C           3.1880   -1.9880    0.0000 C.ar    1  LIG1        0.0382
     21 C           3.9920   -1.4000    0.0000 C.ar    1  LIG1        0.1388
     22 C           3.8880   -0.4040    0.0000 C.ar    1  LIG1        0.0382
     23 C           2.9830    0.0000    0.0000 C.ar    1  LIG1        0.0199
     24 O           4.9170   -1.7960    0.0000 O.3     1  LIG1       -0.4714
     25 C           5.0290   -2.7920    0.0000 C.3     1  LIG1        0.2525
@<TRIPOS>BOND
     1     1     2    1
     2     1     6    2
     3     2     3   am
     4     2    18    1
     5     3     4    1
     6     3    17    2
     7     4     5    1
     8     5     6    1
     9     6     7    1
    10     7     8    2
    11     7     9   am
    12     9    10    1
    13    10    11    1
    14    11    12    1
    15    12    13    1
    16    12    15    1
    17    13    14    1
    18    15    16    1
    19    18    19   ar
    20    18    23   ar
    21    19    20   ar
    22    20    21   ar
    23    21    22   ar
    24    21    24    1
    25    22    23   ar
    26    24    25    1
