@<TRIPOS>MOLECULE
35118_ChemDiv_8017-3481
 13 14 0 0 0
SMALL
GASTEIGER
Energy = 0

@<TRIPOS>ATOM
      1 C           0.0170   -0.9920    0.0000 C.ar    1  LIG1        0.1126
      2 C           0.0170    0.0080    0.0000 C.ar    1  LIG1        0.0385
      3 C           0.9750    0.3210    0.0000 C.ar    1  LIG1        0.1135
      4 C           1.5540   -0.4960    0.0000 C.ar    1  LIG1        0.1366
      5 S           0.9750   -1.2830    0.0000 S.2     1  LIG1       -0.0486
      6 N           2.5540   -0.4960    0.0000 N.pl3   1  LIG1       -0.1195
      7 N           1.3040    1.2830    0.0000 N.pl3   1  LIG1       -0.1260
      8 C          -0.8250    0.5250    0.0000 C.ar    1  LIG1       -0.0174
      9 C          -1.6960    0.0380    0.0000 C.ar    1  LIG1        0.0106
     10 C          -1.6960   -0.9920    0.0000 C.ar    1  LIG1        0.0596
     11 N          -0.8250   -1.4790    0.0000 N.ar    1  LIG1       -0.2431
     12 C          -2.5580   -1.5210    0.0000 C.3     1  LIG1        0.0521
     13 C          -0.8250    1.5250    0.0000 C.3     1  LIG1        0.0312
@<TRIPOS>BOND
     1     1     2   ar
     2     1     5   ar
     3     1    11   ar
     4     2     3   ar
     5     2     8   ar
     6     3     4   ar
     7     3     7    1
     8     4     5   ar
     9     4     6    1
    10     8     9   ar
    11     8    13    1
    12     9    10   ar
    13    10    11   ar
    14    10    12    1
