@<TRIPOS>MOLECULE
35115_ChemDiv_8016-3541
 16 17 0 0 0
SMALL
GASTEIGER
Energy = 0

@<TRIPOS>ATOM
      1 N           0.4290   -0.5000    0.0000 N.2     1  LIG1       -0.1748
      2 N           0.4290    0.5040    0.0000 N.am    1  LIG1       -0.1587
      3 C           1.2920    1.0040    0.0000 C.2     1  LIG1        0.2486
      4 C           2.1630    0.5040    0.0000 C.3     1  LIG1        0.0938
      5 C           2.1630   -0.5000    0.0000 C.3     1  LIG1        0.0582
      6 C           1.2920   -0.9920    0.0000 C.2     1  LIG1        0.0912
      7 C           1.2920   -2.0000    0.0000 C.2     1  LIG1        0.0879
      8 O           0.4290   -2.5000    0.0000 O.co2   1  LIG1       -0.5433
      9 O           2.1630   -2.5000    0.0000 O.co2   1  LIG1       -0.5433
     10 O           1.2920    2.0040    0.0000 O.2     1  LIG1       -0.2728
     11 C          -0.4330    1.0040    0.0000 C.ar    1  LIG1        0.0767
     12 C          -0.4330    2.0040    0.0000 C.ar    1  LIG1        0.0168
     13 C          -1.2960    2.5040    0.0000 C.ar    1  LIG1        0.0013
     14 C          -2.1670    2.0040    0.0000 C.ar    1  LIG1        0.0001
     15 C          -2.1670    1.0040    0.0000 C.ar    1  LIG1        0.0013
     16 C          -1.2960    0.5040    0.0000 C.ar    1  LIG1        0.0168
@<TRIPOS>BOND
     1     1     2    1
     2     1     6    2
     3     2     3   am
     4     2    11    1
     5     3     4    1
     6     3    10    2
     7     4     5    1
     8     5     6    1
     9     6     7    1
    10     7     8   ar
    11     7     9   ar
    12    11    12   ar
    13    11    16   ar
    14    12    13   ar
    15    13    14   ar
    16    14    15   ar
    17    15    16   ar
