@<TRIPOS>MOLECULE
35120_ChemDiv_8017-3520
 13 14 0 0 0
SMALL
GASTEIGER
Energy = 0

@<TRIPOS>ATOM
      1 C           0.8170   -0.4670    0.0000 C.ar    1  LIG1        0.1741
      2 C           0.8170    0.4790    0.0000 C.ar    1  LIG1        0.3179
      3 N           2.4670    0.4790    0.0000 N.ar    1  LIG1        0.1074
      4 C           2.4670   -0.4670    0.0000 C.ar    1  LIG1        0.4736
      5 N           1.6420   -0.9420    0.0000 N.ar    1  LIG1       -0.1653
      6 C          -0.0080    0.9540    0.0000 C.ar    1  LIG1        0.0791
      7 C          -0.8250    0.4790    0.0000 C.ar    1  LIG1        0.0216
      8 C          -1.6500    0.9540    0.0000 C.2     1  LIG1        0.0731
      9 O          -1.6500    1.9040    0.0000 O.co2   1  LIG1       -0.5446
     10 O          -2.4710    0.4790    0.0000 O.co2   1  LIG1       -0.5446
     11 C          -0.8250   -0.4670    0.0000 C.ar    1  LIG1        0.0211
     12 C          -0.0080   -0.9420    0.0000 C.ar    1  LIG1        0.1130
     13 N          -0.0080   -1.9000    0.0000 N.pl3   1  LIG1       -0.1263
@<TRIPOS>BOND
     1     1     2   ar
     2     1     5   ar
     3     1    12   ar
     4     2     3   ar
     5     2     6   ar
     6     3     4   ar
     7     4     5   ar
     8     6     7   ar
     9     7     8    1
    10     7    11   ar
    11     8     9   ar
    12     8    10   ar
    13    11    12   ar
    14    12    13    1
