@<TRIPOS>MOLECULE
35129_ChemDiv_8016-5588
 15 16 0 0 0
SMALL
GASTEIGER
Energy = 0

@<TRIPOS>ATOM
      1 N          -0.6750    0.4790    0.0000 N.ar    1  LIG1       -0.1759
      2 C          -0.3250   -0.4580    0.0000 C.ar    1  LIG1        0.1848
      3 N          -1.1000   -1.0830    0.0000 N.ar    1  LIG1       -0.2927
      4 C          -1.9380   -0.5420    0.0000 C.ar    1  LIG1        0.1423
      5 N          -1.6750    0.4330    0.0000 N.ar    1  LIG1       -0.1498
      6 C          -2.8710   -0.8960    0.0000 C.3     1  LIG1        0.0738
      7 C          -1.0580   -2.0830    0.0000 C.3     1  LIG1        0.1336
      8 S           0.6420   -0.7210    0.0000 S.2     1  LIG1       -0.0110
      9 C          -0.1330    1.3130    0.0000 C.3     1  LIG1        0.2770
     10 N           0.8670    1.2580    0.0000 N.4     1  LIG1        0.3967
     11 C           1.3170    0.3580    0.0000 C.3     1  LIG1        0.1414
     12 C           2.3130    0.2920    0.0000 C.3     1  LIG1        0.0630
     13 C           2.8670    1.1330    0.0000 C.3     1  LIG1        0.0123
     14 C           2.4170    2.0250    0.0000 C.3     1  LIG1        0.0630
     15 C           1.4130    2.0880    0.0000 C.3     1  LIG1        0.1414
@<TRIPOS>BOND
     1     1     2   ar
     2     1     5   ar
     3     1     9    1
     4     2     3   ar
     5     2     8    2
     6     3     4   ar
     7     3     7    1
     8     4     5   ar
     9     4     6    1
    10     9    10    1
    11    10    11    1
    12    10    15    1
    13    11    12    1
    14    12    13    1
    15    13    14    1
    16    14    15    1
