@<TRIPOS>MOLECULE
35124_ChemDiv_8016-9750
 24 26 0 0 0
SMALL
GASTEIGER
Energy = 0

@<TRIPOS>ATOM
      1 N          -0.8710   -0.7580    0.0000 N.ar    1  LIG1       -0.2714
      2 C          -0.8630   -1.7580    0.0000 C.ar    1  LIG1        0.1737
      3 N          -1.7330   -2.2670    0.0000 N.ar    1  LIG1       -0.2224
      4 C          -2.5960   -1.7710    0.0000 C.ar    1  LIG1        0.0880
      5 C          -2.6000   -0.7670    0.0000 C.ar    1  LIG1        0.0739
      6 C          -1.7380   -0.2580    0.0000 C.ar    1  LIG1        0.2640
      7 O          -1.7460    0.7460    0.0000 O.2     1  LIG1       -0.2669
      8 C          -3.4710   -0.2710    0.0000 C.ar    1  LIG1        0.0063
      9 C          -4.3330   -0.7710    0.0000 C.ar    1  LIG1        0.0003
     10 C          -4.3330   -1.7710    0.0000 C.ar    1  LIG1        0.0015
     11 C          -3.4710   -2.2710    0.0000 C.ar    1  LIG1        0.0193
     12 S           0.0000   -2.2670    0.0000 S.3     1  LIG1       -0.0772
     13 C           0.8630   -1.7580    0.0000 C.3     1  LIG1        0.0662
     14 C           1.7290   -2.2540    0.0000 C.3     1  LIG1        0.0283
     15 C           2.5920   -1.7460    0.0000 C.3     1  LIG1        0.1063
     16 C           3.4670   -2.2420    0.0000 C.1     1  LIG1        0.0732
     17 N           4.3290   -2.7330    0.0000 N.1     1  LIG1       -0.1959
     18 C          -0.0080   -0.2580    0.0000 C.3     1  LIG1        0.1377
     19 C          -0.0080    0.7460    0.0000 C.ar    1  LIG1        0.0005
     20 C           0.8540    1.2460    0.0000 C.ar    1  LIG1       -0.0024
     21 C           0.8540    2.2460    0.0000 C.ar    1  LIG1       -0.0003
     22 C          -0.0130    2.7380    0.0000 C.ar    1  LIG1       -0.0000
     23 C          -0.8750    2.2330    0.0000 C.ar    1  LIG1       -0.0003
     24 C          -0.8710    1.2330    0.0000 C.ar    1  LIG1       -0.0024
@<TRIPOS>BOND
     1     1     2   ar
     2     1     6   ar
     3     1    18    1
     4     2     3   ar
     5     2    12    1
     6     3     4   ar
     7     4     5   ar
     8     4    11   ar
     9     5     6   ar
    10     5     8   ar
    11     6     7    2
    12     8     9   ar
    13     9    10   ar
    14    10    11   ar
    15    12    13    1
    16    13    14    1
    17    14    15    1
    18    15    16    1
    19    16    17    3
    20    18    19    1
    21    19    20   ar
    22    19    24   ar
    23    20    21   ar
    24    21    22   ar
    25    22    23   ar
    26    23    24   ar
