@<TRIPOS>MOLECULE
35122_ChemDiv_8016-9713
 30 34 0 0 0
SMALL
GASTEIGER
Energy = 0

@<TRIPOS>ATOM
      1 S          -0.2830   -0.4420    0.0000 S.O2    1  LIG1       -0.0578
      2 N          -0.2830    0.5670    0.0000 N.pl3   1  LIG1       -0.5357
      3 C          -1.1500    1.0630    0.0000 C.ar    1  LIG1       -0.1078
      4 C          -1.1580    2.0750    0.0000 C.ar    1  LIG1        0.0330
      5 C          -0.2960    2.5750    0.0000 C.2     1  LIG1        0.2629
      6 N           0.5830    2.0830    0.0000 N.am    1  LIG1       -0.2051
      7 C           1.4460    2.5880    0.0000 C.3     1  LIG1        0.0789
      8 C           2.2960    2.9380    0.0000 C.3     1  LIG1        0.0200
      9 C           2.8080    3.7130    0.0000 C.3     1  LIG1        0.0017
     10 C           2.1460    4.4420    0.0000 C.3     1  LIG1        0.0001
     11 C           1.2210    4.1040    0.0000 C.3     1  LIG1        0.0017
     12 C           0.7920    3.2960    0.0000 C.3     1  LIG1        0.0200
     13 C           1.2710    3.0750    0.0000 C.3     1  LIG1        0.0001
     14 C           1.9710    2.3130    0.0000 C.3     1  LIG1        0.0017
     15 C           1.4330    1.4540    0.0000 C.3     1  LIG1        0.0200
     16 C           2.8920    2.6630    0.0000 C.3     1  LIG1        0.0001
     17 O          -0.2960    3.5830    0.0000 O.2     1  LIG1       -0.2684
     18 C          -2.0210    2.5670    0.0000 C.ar    1  LIG1        0.0027
     19 C          -2.8830    2.0670    0.0000 C.ar    1  LIG1        0.0000
     20 C          -2.8960    1.0630    0.0000 C.ar    1  LIG1       -0.0019
     21 C          -2.0210    0.5630    0.0000 C.ar    1  LIG1       -0.0237
     22 C          -0.2960   -1.4380    0.0000 C.ar    1  LIG1        0.0894
     23 C          -1.1630   -1.9290    0.0000 C.ar    1  LIG1        0.0192
     24 C          -1.1710   -2.9290    0.0000 C.ar    1  LIG1        0.0309
     25 C          -0.3130   -3.4380    0.0000 C.ar    1  LIG1        0.1402
     26 C           0.5710   -2.9420    0.0000 C.ar    1  LIG1        0.0309
     27 C           0.5710   -1.9420    0.0000 C.ar    1  LIG1        0.0192
     28 F          -0.3210   -4.4420    0.0000 F       1  LIG1       -0.2042
     29 O           0.7210   -0.4420    0.0000 O.2     1  LIG1       -0.1842
     30 O          -1.2830   -0.4290    0.0000 O.2     1  LIG1       -0.1842
@<TRIPOS>BOND
     1     1     2    1
     2     1    22    1
     3     1    29    2
     4     1    30    2
     5     2     3    1
     6     3     4   ar
     7     3    21   ar
     8     4     5    1
     9     4    18   ar
    10     5     6   am
    11     5    17    2
    12     6     7    1
    13     7     8    1
    14     7    12    1
    15     7    15    1
    16     8     9    1
    17     9    10    1
    18     9    16    1
    19    10    11    1
    20    11    12    1
    21    11    13    1
    22    13    14    1
    23    14    15    1
    24    14    16    1
    25    18    19   ar
    26    19    20   ar
    27    20    21   ar
    28    22    23   ar
    29    22    27   ar
    30    23    24   ar
    31    24    25   ar
    32    25    26   ar
    33    25    28    1
    34    26    27   ar
