@<TRIPOS>MOLECULE
35125_ChemDiv_8016-5530
 22 25 0 0 0
SMALL
GASTEIGER
Energy = 0

@<TRIPOS>ATOM
      1 C           2.6210   -1.2580    0.0000 C.3     1  LIG1        0.0802
      2 N           1.6290   -1.2580    0.0000 N.am    1  LIG1       -0.1906
      3 C           1.1330   -0.3920    0.0000 C.2     1  LIG1        0.3391
      4 O           1.6330    0.4750    0.0000 O.2     1  LIG1       -0.2492
      5 N           0.1330   -0.3830    0.0000 N.am    1  LIG1       -0.1872
      6 C          -0.3710    0.4880    0.0000 C.3     1  LIG1        0.1188
      7 C          -1.3710    0.4960    0.0000 C.3     1  LIG1        0.0480
      8 C          -1.8630    1.3580    0.0000 C.3     1  LIG1        0.1095
      9 N          -2.8580    1.3630    0.0000 N.ar    1  LIG1       -0.3078
     10 C          -3.4460    2.1830    0.0000 C.ar    1  LIG1        0.1786
     11 N          -4.3960    1.8710    0.0000 N.ar    1  LIG1       -0.2223
     12 C          -4.4080    0.8710    0.0000 C.ar    1  LIG1        0.1193
     13 C          -3.4580    0.5580    0.0000 C.ar    1  LIG1        0.0980
     14 C           3.4920   -1.5710    0.0000 C.3     1  LIG1        0.0201
     15 C           4.3960   -1.3460    0.0000 C.3     1  LIG1        0.0017
     16 C           4.4040   -0.3580    0.0000 C.3     1  LIG1        0.0001
     17 C           3.4960    0.0170    0.0000 C.3     1  LIG1        0.0017
     18 C           2.6210   -0.2830    0.0000 C.3     1  LIG1        0.0201
     19 C           2.8210   -0.7790    0.0000 C.3     1  LIG1        0.0001
     20 C           2.8210   -1.8080    0.0000 C.3     1  LIG1        0.0017
     21 C           1.8460   -2.0830    0.0000 C.3     1  LIG1        0.0201
     22 C           3.7330   -2.1790    0.0000 C.3     1  LIG1        0.0001
@<TRIPOS>BOND
     1     1     2    1
     2     1    14    1
     3     1    18    1
     4     1    21    1
     5     2     3   am
     6     3     4    2
     7     3     5   am
     8     5     6    1
     9     6     7    1
    10     7     8    1
    11     8     9    1
    12     9    10   ar
    13     9    13   ar
    14    10    11   ar
    15    11    12   ar
    16    12    13   ar
    17    14    15    1
    18    15    16    1
    19    15    22    1
    20    16    17    1
    21    17    18    1
    22    17    19    1
    23    19    20    1
    24    20    21    1
    25    20    22    1
