@<TRIPOS>MOLECULE
35126_ChemDiv_8016-9769
 28 31 0 0 0
SMALL
GASTEIGER
Energy = 0

@<TRIPOS>ATOM
      1 C           1.8710   -1.5500    0.0000 C.ar    1  LIG1        0.1466
      2 O           2.0750   -2.5290    0.0000 O.2     1  LIG1       -0.4535
      3 C           3.0710   -2.6290    0.0000 C.ar    1  LIG1        0.1453
      4 C           3.4790   -1.7170    0.0000 C.ar    1  LIG1        0.0375
      5 C           2.7330   -1.0500    0.0000 C.ar    1  LIG1        0.0376
      6 C           2.7330   -0.0500    0.0000 C.ar    1  LIG1        0.0045
      7 C           1.8710    0.4460    0.0000 C.ar    1  LIG1        0.0168
      8 C           1.0040   -0.0500    0.0000 C.ar    1  LIG1        0.0764
      9 C           1.0040   -1.0500    0.0000 C.ar    1  LIG1        0.0541
     10 N           0.1330    0.4460    0.0000 N.am    1  LIG1       -0.1784
     11 C          -0.7330   -0.0500    0.0000 C.2     1  LIG1        0.2569
     12 O          -0.7330   -1.0540    0.0000 O.2     1  LIG1       -0.2720
     13 C          -1.6000    0.4460    0.0000 C.3     1  LIG1        0.1490
     14 S          -2.4710   -0.0500    0.0000 S.3     1  LIG1       -0.1036
     15 C          -3.3330    0.4460    0.0000 C.ar    1  LIG1        0.0319
     16 C          -3.3330    1.4500    0.0000 C.ar    1  LIG1        0.0813
     17 C          -2.4710    1.9540    0.0000 C.2     1  LIG1        0.3418
     18 O          -1.6000    1.4500    0.0000 O.2     1  LIG1       -0.2449
     19 O          -2.4710    2.9460    0.0000 O.3     1  LIG1       -0.4413
     20 C          -1.6000    3.4460    0.0000 C.3     1  LIG1        0.2560
     21 C          -4.2040    1.9540    0.0000 C.ar    1  LIG1        0.0069
     22 C          -5.0630    1.4500    0.0000 C.ar    1  LIG1        0.0002
     23 C          -5.0630    0.4460    0.0000 C.ar    1  LIG1        0.0005
     24 C          -4.2040   -0.0500    0.0000 C.ar    1  LIG1        0.0064
     25 C           4.4710   -1.6170    0.0000 C.ar    1  LIG1        0.0031
     26 C           5.0580   -2.4250    0.0000 C.ar    1  LIG1        0.0002
     27 C           4.6540   -3.3380    0.0000 C.ar    1  LIG1        0.0031
     28 C           3.6580   -3.4420    0.0000 C.ar    1  LIG1        0.0375
@<TRIPOS>BOND
     1     1     2   ar
     2     1     5   ar
     3     1     9   ar
     4     2     3   ar
     5     3     4   ar
     6     3    28   ar
     7     4     5   ar
     8     4    25   ar
     9     5     6   ar
    10     6     7   ar
    11     7     8   ar
    12     8     9   ar
    13     8    10    1
    14    10    11   am
    15    11    12    2
    16    11    13    1
    17    13    14    1
    18    14    15    1
    19    15    16   ar
    20    15    24   ar
    21    16    17    1
    22    16    21   ar
    23    17    18    2
    24    17    19    1
    25    19    20    1
    26    21    22   ar
    27    22    23   ar
    28    23    24   ar
    29    25    26   ar
    30    26    27   ar
    31    27    28   ar
