@<TRIPOS>MOLECULE
35123_ChemDiv_8016-5526
 25 29 0 0 0
SMALL
GASTEIGER
Energy = 0

@<TRIPOS>ATOM
      1 C           0.6580   -1.2330    0.0000 C.2     1  LIG1        0.3232
      2 N          -0.2080   -0.7420    0.0000 N.am    1  LIG1       -0.2594
      3 C          -0.2080    0.2580    0.0000 C.3     1  LIG1        0.1165
      4 C          -1.0580    0.7460    0.0000 C.3     1  LIG1        0.1152
      5 N          -1.9080    0.2580    0.0000 N.pl3   1  LIG1       -0.2747
      6 C          -2.7710    0.7460    0.0000 C.ar    1  LIG1        0.2203
      7 N          -2.7710    1.7330    0.0000 N.ar    1  LIG1       -0.2121
      8 C          -3.6250    2.2250    0.0000 C.ar    1  LIG1        0.1034
      9 C          -4.4830    1.7330    0.0000 C.ar    1  LIG1        0.0414
     10 C          -4.4830    0.7460    0.0000 C.ar    1  LIG1        0.1034
     11 N          -3.6250    0.2580    0.0000 N.ar    1  LIG1       -0.2121
     12 C          -1.9080   -0.7420    0.0000 C.3     1  LIG1        0.1152
     13 C          -1.0580   -1.2330    0.0000 C.3     1  LIG1        0.1165
     14 N           1.5080   -0.7420    0.0000 N.am    1  LIG1       -0.1919
     15 C           2.7210   -1.3080    0.0000 C.3     1  LIG1        0.0802
     16 C           2.7210   -0.2210    0.0000 C.3     1  LIG1        0.0201
     17 C           3.6040    0.2830    0.0000 C.3     1  LIG1        0.0017
     18 C           4.4790   -0.2210    0.0000 C.3     1  LIG1        0.0001
     19 C           4.4790   -1.2460    0.0000 C.3     1  LIG1        0.0017
     20 C           3.8920   -1.6460    0.0000 C.3     1  LIG1        0.0201
     21 C           3.9210   -1.9830    0.0000 C.3     1  LIG1        0.0001
     22 C           3.0960   -1.7080    0.0000 C.3     1  LIG1        0.0017
     23 C           2.1380   -1.9830    0.0000 C.3     1  LIG1        0.0201
     24 C           3.0960   -0.5960    0.0000 C.3     1  LIG1        0.0001
     25 O           0.6580   -2.2210    0.0000 O.2     1  LIG1       -0.2508
@<TRIPOS>BOND
     1     1     2   am
     2     1    14   am
     3     1    25    2
     4     2     3    1
     5     2    13    1
     6     3     4    1
     7     4     5    1
     8     5     6    1
     9     5    12    1
    10     6     7   ar
    11     6    11   ar
    12     7     8   ar
    13     8     9   ar
    14     9    10   ar
    15    10    11   ar
    16    12    13    1
    17    14    15    1
    18    15    16    1
    19    15    20    1
    20    15    23    1
    21    16    17    1
    22    17    18    1
    23    17    24    1
    24    18    19    1
    25    19    20    1
    26    19    21    1
    27    21    22    1
    28    22    23    1
    29    22    24    1
