@<TRIPOS>MOLECULE
35127_ChemDiv_8016-5586
 26 30 0 0 0
SMALL
GASTEIGER
Energy = 0

@<TRIPOS>ATOM
      1 C           2.5710   -1.7920    0.0000 C.3     1  LIG1        0.0087
      2 C           1.7080   -2.2960    0.0000 C.3     1  LIG1        0.0872
      3 C           0.8420   -1.7960    0.0000 C.2     1  LIG1        0.2456
      4 N           0.8420   -0.7960    0.0000 N.am    1  LIG1       -0.1792
      5 C          -0.0330   -0.2960    0.0000 C.ar    1  LIG1        0.0734
      6 C          -0.0330    0.7130    0.0000 C.ar    1  LIG1        0.0179
      7 C          -0.8960    1.2080    0.0000 C.ar    1  LIG1        0.0159
      8 C          -1.7580    0.7080    0.0000 C.ar    1  LIG1        0.0481
      9 N          -2.6210    1.2080    0.0000 N.pl3   1  LIG1       -0.3028
     10 C          -3.4880    0.7210    0.0000 C.3     1  LIG1        0.1231
     11 C          -4.3500    1.2080    0.0000 C.3     1  LIG1        0.1636
     12 O          -4.3500    2.2130    0.0000 O.3     1  LIG1       -0.3501
     13 C          -3.4880    2.7210    0.0000 C.3     1  LIG1        0.1636
     14 C          -2.6210    2.2130    0.0000 C.3     1  LIG1        0.1231
     15 C          -1.7580   -0.2960    0.0000 C.ar    1  LIG1        0.0159
     16 C          -0.8960   -0.7960    0.0000 C.ar    1  LIG1        0.0179
     17 O          -0.0330   -2.2960    0.0000 O.2     1  LIG1       -0.2730
     18 C           2.5580   -0.8290    0.0000 C.3     1  LIG1        0.0005
     19 C           3.4330   -0.5170    0.0000 C.3     1  LIG1        0.0000
     20 C           2.7580   -1.3210    0.0000 C.3     1  LIG1        0.0000
     21 C           2.7670   -2.3460    0.0000 C.3     1  LIG1        0.0000
     22 C           1.7920   -2.6210    0.0000 C.3     1  LIG1        0.0005
     23 C           3.6830   -2.7170    0.0000 C.3     1  LIG1        0.0000
     24 C           4.3420   -1.8830    0.0000 C.3     1  LIG1        0.0000
     25 C           3.4330   -2.1080    0.0000 C.3     1  LIG1        0.0005
     26 C           4.3460   -0.8960    0.0000 C.3     1  LIG1        0.0000
@<TRIPOS>BOND
     1     1     2    1
     2     1    18    1
     3     1    22    1
     4     1    25    1
     5     2     3    1
     6     3     4   am
     7     3    17    2
     8     4     5    1
     9     5     6   ar
    10     5    16   ar
    11     6     7   ar
    12     7     8   ar
    13     8     9    1
    14     8    15   ar
    15     9    10    1
    16     9    14    1
    17    10    11    1
    18    11    12    1
    19    12    13    1
    20    13    14    1
    21    15    16   ar
    22    18    19    1
    23    19    20    1
    24    19    26    1
    25    20    21    1
    26    21    22    1
    27    21    23    1
    28    23    24    1
    29    24    25    1
    30    24    26    1
