@<TRIPOS>MOLECULE
35121_ChemDiv_8016-5516
 23 25 0 0 0
SMALL
GASTEIGER
Energy = 0

@<TRIPOS>ATOM
      1 C           0.9920    1.2330    0.0000 C.ar    1  LIG1        0.3134
      2 N           0.4040    2.0460    0.0000 N.ar    1  LIG1       -0.1931
      3 C          -0.5420    1.7330    0.0000 C.ar    1  LIG1        0.1203
      4 C          -0.5420    0.7330    0.0000 C.ar    1  LIG1        0.1674
      5 O           0.4040    0.4250    0.0000 O.2     1  LIG1       -0.4225
      6 C          -1.4080    0.2330    0.0000 C.ar    1  LIG1        0.0575
      7 C          -2.2790    0.7330    0.0000 C.ar    1  LIG1        0.1088
      8 S          -3.1420    0.2330    0.0000 S.O2    1  LIG1        0.0088
      9 O          -3.6330    1.1000    0.0000 O.2     1  LIG1       -0.1686
     10 O          -2.6420   -0.6290    0.0000 O.2     1  LIG1       -0.1686
     11 C          -4.0040   -0.2670    0.0000 C.3     1  LIG1        0.1560
     12 C          -4.0040   -1.2670    0.0000 C.3     1  LIG1        0.0276
     13 C          -2.2790    1.7330    0.0000 C.ar    1  LIG1        0.0201
     14 C          -1.4080    2.2330    0.0000 C.ar    1  LIG1        0.0237
     15 N           1.9920    1.2330    0.0000 N.pl3   1  LIG1       -0.1611
     16 C           2.5000    0.3710    0.0000 C.ar    1  LIG1        0.0812
     17 C           1.9920   -0.5000    0.0000 C.ar    1  LIG1        0.0496
     18 C           2.5000   -1.3670    0.0000 C.ar    1  LIG1        0.0037
     19 C           3.4920   -1.3670    0.0000 C.ar    1  LIG1       -0.0213
     20 C           4.0000   -0.5000    0.0000 C.ar    1  LIG1       -0.0029
     21 C           3.4920    0.3710    0.0000 C.ar    1  LIG1        0.0168
     22 C           3.9920   -2.2290    0.0000 C.3     1  LIG1        0.0310
     23 BR          0.9920   -0.5000    0.0000 Br      1  LIG1       -0.0477
@<TRIPOS>BOND
     1     1     2   ar
     2     1     5   ar
     3     1    15    1
     4     2     3   ar
     5     3     4   ar
     6     3    14   ar
     7     4     5   ar
     8     4     6   ar
     9     6     7   ar
    10     7     8    1
    11     7    13   ar
    12     8     9    2
    13     8    10    2
    14     8    11    1
    15    11    12    1
    16    13    14   ar
    17    15    16    1
    18    16    17   ar
    19    16    21   ar
    20    17    18   ar
    21    17    23    1
    22    18    19   ar
    23    19    20   ar
    24    19    22    1
    25    20    21   ar
