@<TRIPOS>MOLECULE
35135_ChemDiv_8016-5694
 31 34 0 0 0
SMALL
GASTEIGER
Energy = 0

@<TRIPOS>ATOM
      1 C           0.6330   -1.4130    0.0000 C.2     1  LIG1        0.2690
      2 C           0.6330   -2.4000    0.0000 C.ar    1  LIG1        0.0554
      3 C           1.4960   -2.9000    0.0000 C.ar    1  LIG1        0.0044
      4 C           2.3460   -2.4000    0.0000 C.ar    1  LIG1        0.0001
      5 C           3.2080   -2.9000    0.0000 C.ar    1  LIG1        0.0000
      6 C           4.0710   -2.4000    0.0000 C.ar    1  LIG1        0.0000
      7 C           4.0710   -1.4080    0.0000 C.ar    1  LIG1        0.0000
      8 C           3.2040   -0.9130    0.0000 C.ar    1  LIG1        0.0000
      9 C           2.3460   -1.4130    0.0000 C.ar    1  LIG1        0.0000
     10 C           1.4960   -3.8880    0.0000 C.ar    1  LIG1        0.0001
     11 C           0.6330   -4.3960    0.0000 C.ar    1  LIG1        0.0000
     12 C          -0.2290   -3.8960    0.0000 C.ar    1  LIG1        0.0001
     13 C          -0.2290   -2.9000    0.0000 C.ar    1  LIG1        0.0046
     14 N          -0.2290   -0.9130    0.0000 N.am    1  LIG1       -0.1754
     15 C          -0.2290    0.0710    0.0000 C.ar    1  LIG1        0.0739
     16 C          -1.0920    0.5710    0.0000 C.ar    1  LIG1        0.0197
     17 C          -1.0920    1.5580    0.0000 C.ar    1  LIG1        0.0383
     18 C          -0.2210    2.0580    0.0000 C.ar    1  LIG1        0.1394
     19 O          -0.2210    3.0500    0.0000 O.3     1  LIG1       -0.4656
     20 C          -0.9830    3.8080    0.0000 C.3     1  LIG1        0.2896
     21 C          -2.0790    3.5460    0.0000 C.2     1  LIG1        0.2703
     22 N          -2.5790    2.6880    0.0000 N.am    1  LIG1       -0.2714
     23 C          -2.0920    1.8250    0.0000 C.3     1  LIG1        0.1256
     24 C          -2.5920    0.9630    0.0000 C.3     1  LIG1        0.1636
     25 O          -3.5920    0.9710    0.0000 O.3     1  LIG1       -0.3501
     26 C          -4.0750    1.8330    0.0000 C.3     1  LIG1        0.1636
     27 C          -3.5710    2.6960    0.0000 C.3     1  LIG1        0.1256
     28 O          -2.5790    4.3960    0.0000 O.2     1  LIG1       -0.2708
     29 C           0.6330    1.5630    0.0000 C.ar    1  LIG1        0.0383
     30 C           0.6330    0.5710    0.0000 C.ar    1  LIG1        0.0197
     31 O           1.4960   -0.9130    0.0000 O.2     1  LIG1       -0.2680
@<TRIPOS>BOND
     1     1     2    1
     2     1    14   am
     3     1    31    2
     4     2     3   ar
     5     2    13   ar
     6     3     4    1
     7     3    10   ar
     8     4     5   ar
     9     4     9   ar
    10     5     6   ar
    11     6     7   ar
    12     7     8   ar
    13     8     9   ar
    14    10    11   ar
    15    11    12   ar
    16    12    13   ar
    17    14    15    1
    18    15    16   ar
    19    15    30   ar
    20    16    17   ar
    21    17    18   ar
    22    18    19    1
    23    18    29   ar
    24    19    20    1
    25    20    21    1
    26    21    22   am
    27    21    28    2
    28    22    23    1
    29    22    27    1
    30    23    24    1
    31    24    25    1
    32    25    26    1
    33    26    27    1
    34    29    30   ar
