@<TRIPOS>MOLECULE
35131_ChemDiv_8016-5599
 24 28 0 0 0
SMALL
GASTEIGER
Energy = 0

@<TRIPOS>ATOM
      1 N          -1.8420    1.0420    0.0000 N.ar    1  LIG1       -0.2390
      2 C          -1.2500    0.2290    0.0000 C.ar    1  LIG1        0.1322
      3 S          -1.8420   -0.5830    0.0000 S.2     1  LIG1       -0.0672
      4 C          -2.7960   -0.2750    0.0000 C.ar    1  LIG1        0.0483
      5 C          -2.7960    0.7290    0.0000 C.ar    1  LIG1        0.0876
      6 C          -3.6670    1.2290    0.0000 C.ar    1  LIG1        0.0196
      7 C          -4.5290    0.7290    0.0000 C.ar    1  LIG1        0.0016
      8 C          -4.5290   -0.2750    0.0000 C.ar    1  LIG1        0.0006
      9 C          -3.6580   -0.7790    0.0000 C.ar    1  LIG1        0.0080
     10 C          -0.2540    0.2290    0.0000 C.3     1  LIG1        0.2604
     11 O           0.2460   -0.6290    0.0000 O.3     1  LIG1       -0.4412
     12 C           1.2460   -0.6290    0.0000 C.2     1  LIG1        0.3174
     13 C           1.7420    0.2290    0.0000 C.3     1  LIG1        0.1096
     14 C           2.7500    0.2290    0.0000 C.3     1  LIG1        0.0106
     15 C           3.6080   -0.0830    0.0000 C.3     1  LIG1        0.0005
     16 C           4.5130    0.1420    0.0000 C.3     1  LIG1        0.0000
     17 C           3.8540   -0.6920    0.0000 C.3     1  LIG1        0.0000
     18 C           2.9420   -0.3210    0.0000 C.3     1  LIG1        0.0000
     19 C           1.9750   -0.5960    0.0000 C.3     1  LIG1        0.0005
     20 C           2.9420    0.7040    0.0000 C.3     1  LIG1        0.0000
     21 C           3.6170    1.5040    0.0000 C.3     1  LIG1        0.0000
     22 C           2.7420    1.1920    0.0000 C.3     1  LIG1        0.0005
     23 C           4.5250    1.1290    0.0000 C.3     1  LIG1        0.0000
     24 O           1.7420   -1.5000    0.0000 O.2     1  LIG1       -0.2501
@<TRIPOS>BOND
     1     1     2   ar
     2     1     5   ar
     3     2     3   ar
     4     2    10    1
     5     3     4   ar
     6     4     5   ar
     7     4     9   ar
     8     5     6   ar
     9     6     7   ar
    10     7     8   ar
    11     8     9   ar
    12    10    11    1
    13    11    12    1
    14    12    13    1
    15    12    24    2
    16    13    14    1
    17    14    15    1
    18    14    19    1
    19    14    22    1
    20    15    16    1
    21    16    17    1
    22    16    23    1
    23    17    18    1
    24    18    19    1
    25    18    20    1
    26    20    21    1
    27    21    22    1
    28    21    23    1
