@<TRIPOS>MOLECULE
35134_ChemDiv_D073-0116
 31 35 0 0 0
SMALL
GASTEIGER
Energy = 0

@<TRIPOS>ATOM
      1 N          -1.7460   -0.7880    0.0000 N.ar    1  LIG1       -0.1938
      2 C          -2.6170   -0.2830    0.0000 C.ar    1  LIG1        0.1863
      3 N          -2.4040    0.7000    0.0000 N.ar    1  LIG1       -0.1272
      4 N          -1.4080    0.8000    0.0000 N.ar    1  LIG1       -0.1297
      5 C          -1.0000   -0.1040    0.0000 C.ar    1  LIG1        0.1841
      6 C           0.0000   -0.2880    0.0000 C.3     1  LIG1        0.1658
      7 N           0.6460    0.4670    0.0000 N.am    1  LIG1       -0.2462
      8 C           1.6290    0.2880    0.0000 C.2     1  LIG1        0.2875
      9 C           2.2750    1.0420    0.0000 C.3     1  LIG1        0.2255
     10 N           3.2540    0.8630    0.0000 N.4     1  LIG1        0.3884
     11 C           3.5790   -0.0750    0.0000 C.3     1  LIG1        0.1720
     12 C           4.5580   -0.2670    0.0000 C.3     1  LIG1        0.2048
     13 O           5.2080    0.5000    0.0000 O.3     1  LIG1       -0.3411
     14 C           4.8790    1.4330    0.0000 C.3     1  LIG1        0.2048
     15 C           3.8960    1.6210    0.0000 C.3     1  LIG1        0.1720
     16 O           1.9630   -0.6580    0.0000 O.2     1  LIG1       -0.2681
     17 C           0.3080    1.4040    0.0000 C.ar    1  LIG1        0.0545
     18 C          -0.6710    1.5920    0.0000 C.ar    1  LIG1        0.0149
     19 C          -1.0040    2.5380    0.0000 C.ar    1  LIG1        0.0013
     20 C          -0.3540    3.2920    0.0000 C.ar    1  LIG1        0.0001
     21 C           0.6290    3.1130    0.0000 C.ar    1  LIG1        0.0013
     22 C           0.9580    2.1670    0.0000 C.ar    1  LIG1        0.0149
     23 C          -3.4830   -0.7880    0.0000 C.ar    1  LIG1        0.0388
     24 C          -3.4830   -1.7830    0.0000 C.ar    1  LIG1        0.0183
     25 C          -2.6170   -2.2830    0.0000 C.ar    1  LIG1        0.0795
     26 N          -1.7460   -1.7830    0.0000 N.ar    1  LIG1       -0.1669
     27 C          -2.6170   -3.2880    0.0000 C.3     1  LIG1        0.0539
     28 C          -4.3420   -2.2830    0.0000 C.ar    1  LIG1        0.0013
     29 C          -5.2130   -1.7830    0.0000 C.ar    1  LIG1        0.0000
     30 C          -5.2130   -0.7880    0.0000 C.ar    1  LIG1        0.0001
     31 C          -4.3420   -0.2830    0.0000 C.ar    1  LIG1        0.0031
@<TRIPOS>BOND
     1     1     2   ar
     2     1     5   ar
     3     1    26   ar
     4     2     3   ar
     5     2    23   ar
     6     3     4   ar
     7     4     5   ar
     8     5     6    1
     9     6     7    1
    10     7     8   am
    11     7    17    1
    12     8     9    1
    13     8    16    2
    14     9    10    1
    15    10    11    1
    16    10    15    1
    17    11    12    1
    18    12    13    1
    19    13    14    1
    20    14    15    1
    21    17    18   ar
    22    17    22   ar
    23    18    19   ar
    24    19    20   ar
    25    20    21   ar
    26    21    22   ar
    27    23    24   ar
    28    23    31   ar
    29    24    25   ar
    30    24    28   ar
    31    25    26   ar
    32    25    27    1
    33    28    29   ar
    34    29    30   ar
    35    30    31   ar
