@<TRIPOS>MOLECULE
35130_ChemDiv_8016-9899
 22 25 0 0 0
SMALL
GASTEIGER
Energy = 0

@<TRIPOS>ATOM
      1 N          -0.8210   -0.1790    0.0000 N.ar    1  LIG1       -0.1937
      2 C          -1.8210   -0.1790    0.0000 C.ar    1  LIG1        0.1863
      3 N          -2.1330    0.7750    0.0000 N.ar    1  LIG1       -0.1272
      4 N          -1.3210    1.3630    0.0000 N.ar    1  LIG1       -0.1297
      5 C          -0.5130    0.7750    0.0000 C.ar    1  LIG1        0.1854
      6 C           0.3540    1.2750    0.0000 C.3     1  LIG1        0.1793
      7 N           1.2170    0.7750    0.0000 N.pl3   1  LIG1       -0.2294
      8 C           2.0790    1.2750    0.0000 C.ar    1  LIG1        0.0658
      9 C           2.9500    0.7750    0.0000 C.ar    1  LIG1        0.0161
     10 C           3.8210    1.2750    0.0000 C.ar    1  LIG1        0.0013
     11 C           3.8210    2.2750    0.0000 C.ar    1  LIG1        0.0001
     12 C           2.9500    2.7750    0.0000 C.ar    1  LIG1        0.0013
     13 C           2.0790    2.2750    0.0000 C.ar    1  LIG1        0.0161
     14 C          -2.3210   -1.0460    0.0000 C.ar    1  LIG1        0.0388
     15 C          -1.8210   -1.9080    0.0000 C.ar    1  LIG1        0.0183
     16 C          -0.8210   -1.9080    0.0000 C.ar    1  LIG1        0.0795
     17 N          -0.3250   -1.0460    0.0000 N.ar    1  LIG1       -0.1669
     18 C          -0.3210   -2.7710    0.0000 C.3     1  LIG1        0.0539
     19 C          -2.3210   -2.7710    0.0000 C.ar    1  LIG1        0.0013
     20 C          -3.3250   -2.7710    0.0000 C.ar    1  LIG1        0.0000
     21 C          -3.8250   -1.9080    0.0000 C.ar    1  LIG1        0.0001
     22 C          -3.3250   -1.0460    0.0000 C.ar    1  LIG1        0.0031
@<TRIPOS>BOND
     1     1     2   ar
     2     1     5   ar
     3     1    17   ar
     4     2     3   ar
     5     2    14   ar
     6     3     4   ar
     7     4     5   ar
     8     5     6    1
     9     6     7    1
    10     7     8    1
    11     8     9   ar
    12     8    13   ar
    13     9    10   ar
    14    10    11   ar
    15    11    12   ar
    16    12    13   ar
    17    14    15   ar
    18    14    22   ar
    19    15    16   ar
    20    15    19   ar
    21    16    17   ar
    22    16    18    1
    23    19    20   ar
    24    20    21   ar
    25    21    22   ar
