@<TRIPOS>MOLECULE
35133_ChemDiv_8016-5623
 26 28 0 0 0
SMALL
GASTEIGER
Energy = 0

@<TRIPOS>ATOM
      1 C          -2.1500    0.5170    0.0000 C.ar    1  LIG1        0.0907
      2 C          -2.1500   -0.4880    0.0000 C.2     1  LIG1        0.2521
      3 N          -1.2880   -0.9920    0.0000 N.am    1  LIG1       -0.2760
      4 C          -1.2960   -1.9920    0.0000 C.3     1  LIG1        0.0940
      5 C          -0.4250   -2.4920    0.0000 C.3     1  LIG1        0.0259
      6 C           0.4460   -2.0040    0.0000 C.3     1  LIG1        0.0257
      7 C           0.4460   -0.9920    0.0000 C.3     1  LIG1        0.0259
      8 C          -0.4210   -0.4880    0.0000 C.3     1  LIG1        0.0940
      9 C           1.2960   -2.5040    0.0000 C.ar    1  LIG1       -0.0224
     10 C           1.2960   -3.5040    0.0000 C.ar    1  LIG1       -0.0043
     11 C           2.1460   -4.0040    0.0000 C.ar    1  LIG1       -0.0003
     12 C           3.0210   -3.5130    0.0000 C.ar    1  LIG1       -0.0000
     13 C           3.0210   -2.5130    0.0000 C.ar    1  LIG1       -0.0003
     14 C           2.1670   -2.0130    0.0000 C.ar    1  LIG1       -0.0043
     15 O          -3.0210   -0.9790    0.0000 O.2     1  LIG1       -0.2698
     16 C          -1.2830    1.0170    0.0000 C.ar    1  LIG1        0.1797
     17 C          -1.2830    2.0210    0.0000 C.ar    1  LIG1        0.2062
     18 C          -2.1500    2.5250    0.0000 C.ar    1  LIG1        0.1754
     19 C          -3.0250    2.0130    0.0000 C.ar    1  LIG1        0.0404
     20 C          -3.0210    1.0130    0.0000 C.ar    1  LIG1        0.0109
     21 O          -2.1460    3.5210    0.0000 O.3     1  LIG1       -0.4683
     22 C          -3.0210    4.0040    0.0000 C.3     1  LIG1        0.2526
     23 O          -0.4130    2.5210    0.0000 O.3     1  LIG1       -0.4654
     24 C          -0.4130    3.5130    0.0000 C.3     1  LIG1        0.2528
     25 O          -0.4210    0.5170    0.0000 O.3     1  LIG1       -0.4681
     26 C           0.4460    1.0130    0.0000 C.3     1  LIG1        0.2526
@<TRIPOS>BOND
     1     1     2    1
     2     1    16   ar
     3     1    20   ar
     4     2     3   am
     5     2    15    2
     6     3     4    1
     7     3     8    1
     8     4     5    1
     9     5     6    1
    10     6     7    1
    11     6     9    1
    12     7     8    1
    13     9    10   ar
    14     9    14   ar
    15    10    11   ar
    16    11    12   ar
    17    12    13   ar
    18    13    14   ar
    19    16    17   ar
    20    16    25    1
    21    17    18   ar
    22    17    23    1
    23    18    19   ar
    24    18    21    1
    25    19    20   ar
    26    21    22    1
    27    23    24    1
    28    25    26    1
