@<TRIPOS>MOLECULE
35136_ChemDiv_8016-9909
 17 18 0 0 0
SMALL
GASTEIGER
Energy = 0

@<TRIPOS>ATOM
      1 S           2.6080   -1.3420    0.0000 S.2     1  LIG1       -0.0848
      2 C           1.6960   -0.9460    0.0000 C.ar    1  LIG1        0.0697
      3 C           1.8040    0.0540    0.0000 C.ar    1  LIG1        0.0087
      4 C           2.7790    0.2630    0.0000 C.ar    1  LIG1        0.0074
      5 C           3.2790   -0.5960    0.0000 C.ar    1  LIG1        0.0353
      6 C           0.8330   -1.4420    0.0000 C.3     1  LIG1        0.2350
      7 N          -0.0330   -0.9460    0.0000 N.4     1  LIG1        0.4544
      8 C          -0.0330    0.0540    0.0000 C.3     1  LIG1        0.2317
      9 C          -0.8960    0.5580    0.0000 C.3     1  LIG1        0.1879
     10 C          -1.4000   -0.3080    0.0000 C.3     1  LIG1        0.0639
     11 C          -2.4080   -0.2960    0.0000 C.3     1  LIG1        0.0955
     12 O          -2.8960    0.5830    0.0000 O.3     1  LIG1       -0.3584
     13 C          -2.3830    1.4460    0.0000 C.3     1  LIG1        0.1447
     14 C          -1.3830    1.4330    0.0000 C.3     1  LIG1        0.0687
     15 C          -3.2830   -0.7920    0.0000 C.3     1  LIG1        0.0297
     16 C          -2.1500   -1.2580    0.0000 C.3     1  LIG1        0.0297
     17 O          -0.0330    1.0710    0.0000 O.3     1  LIG1       -0.2192
@<TRIPOS>BOND
     1     1     2   ar
     2     1     5   ar
     3     2     3   ar
     4     2     6    1
     5     3     4   ar
     6     4     5   ar
     7     6     7    1
     8     7     8    1
     9     8     9    1
    10     9    10    1
    11     9    14    1
    12     9    17    1
    13    10    11    1
    14    11    12    1
    15    11    15    1
    16    11    16    1
    17    12    13    1
    18    13    14    1
