@<TRIPOS>MOLECULE
35139_ChemDiv_8017-3635
 20 22 0 0 0
SMALL
GASTEIGER
Energy = 0

@<TRIPOS>ATOM
      1 N           0.8290    1.2540    0.0000 N.pl3   1  LIG1       -0.3051
      2 C          -0.0330    1.7500    0.0000 C.3     1  LIG1        0.0941
      3 C          -0.0330    2.7500    0.0000 C.2     1  LIG1        0.0082
      4 C           0.8290    3.2460    0.0000 C.2     1  LIG1        0.1685
      5 C           1.7000    2.7500    0.0000 C.3     1  LIG1        0.0899
      6 C           1.7000    1.7500    0.0000 C.3     1  LIG1        0.0991
      7 O           0.8290    4.2290    0.0000 O.2     1  LIG1       -0.2919
      8 C          -0.8960    3.2460    0.0000 C.3     1  LIG1        0.0265
      9 C          -1.7580    2.7500    0.0000 C.3     1  LIG1        0.0046
     10 C          -1.7580    1.7500    0.0000 C.3     1  LIG1        0.0024
     11 C          -0.8960    1.2540    0.0000 C.3     1  LIG1        0.0241
     12 C           0.8290    0.2540    0.0000 C.ar    1  LIG1        0.0480
     13 C          -0.0330   -0.2380    0.0000 C.ar    1  LIG1        0.0142
     14 C          -0.0330   -1.2380    0.0000 C.ar    1  LIG1       -0.0020
     15 C           0.8290   -1.7380    0.0000 C.ar    1  LIG1       -0.0070
     16 C           1.7000   -1.2380    0.0000 C.ar    1  LIG1       -0.0020
     17 C           1.7000   -0.2380    0.0000 C.ar    1  LIG1        0.0142
     18 C           0.8290   -2.7380    0.0000 C.3     1  LIG1        0.1316
     19 C           1.7000   -3.2330    0.0000 C.1     1  LIG1        0.0780
     20 N           1.7000   -4.2290    0.0000 N.1     1  LIG1       -0.1955
@<TRIPOS>BOND
     1     1     2    1
     2     1     6    1
     3     1    12    1
     4     2     3    1
     5     2    11    1
     6     3     4    2
     7     3     8    1
     8     4     5    1
     9     4     7    1
    10     5     6    1
    11     8     9    1
    12     9    10    1
    13    10    11    1
    14    12    13   ar
    15    12    17   ar
    16    13    14   ar
    17    14    15   ar
    18    15    16   ar
    19    15    18    1
    20    16    17   ar
    21    18    19    1
    22    19    20    3
