@<TRIPOS>MOLECULE
35132_ChemDiv_D073-0098
 32 36 0 0 0
SMALL
GASTEIGER
Energy = 0

@<TRIPOS>ATOM
      1 N          -1.9250   -0.7670    0.0000 N.ar    1  LIG1       -0.1938
      2 C          -2.7920   -0.2580    0.0000 C.ar    1  LIG1        0.1863
      3 N          -2.5750    0.7170    0.0000 N.ar    1  LIG1       -0.1272
      4 N          -1.5790    0.8170    0.0000 N.ar    1  LIG1       -0.1297
      5 C          -1.1830   -0.1000    0.0000 C.ar    1  LIG1        0.1841
      6 C          -0.2000   -0.3130    0.0000 C.3     1  LIG1        0.1657
      7 N           0.4630    0.4290    0.0000 N.am    1  LIG1       -0.2480
      8 C           1.4330    0.2250    0.0000 C.2     1  LIG1        0.2742
      9 C           2.1000    0.9670    0.0000 C.3     1  LIG1        0.2899
     10 O           3.0830    0.7630    0.0000 O.3     1  LIG1       -0.4656
     11 C           3.7500    1.5130    0.0000 C.ar    1  LIG1        0.1393
     12 C           4.7290    1.3000    0.0000 C.ar    1  LIG1        0.0369
     13 C           5.3830    2.0460    0.0000 C.ar    1  LIG1        0.0031
     14 C           5.0830    2.9960    0.0000 C.ar    1  LIG1        0.0002
     15 C           4.1000    3.2080    0.0000 C.ar    1  LIG1        0.0031
     16 C           3.4330    2.4500    0.0000 C.ar    1  LIG1        0.0369
     17 O           1.7540   -0.7250    0.0000 O.2     1  LIG1       -0.2705
     18 C           0.1500    1.3750    0.0000 C.ar    1  LIG1        0.0544
     19 C          -0.8210    1.5790    0.0000 C.ar    1  LIG1        0.0149
     20 C          -1.1380    2.5250    0.0000 C.ar    1  LIG1        0.0013
     21 C          -0.4710    3.2750    0.0000 C.ar    1  LIG1        0.0001
     22 C           0.5130    3.0710    0.0000 C.ar    1  LIG1        0.0013
     23 C           0.8250    2.1170    0.0000 C.ar    1  LIG1        0.0149
     24 C          -3.6540   -0.7710    0.0000 C.ar    1  LIG1        0.0388
     25 C          -3.6540   -1.7710    0.0000 C.ar    1  LIG1        0.0183
     26 C          -2.7920   -2.2710    0.0000 C.ar    1  LIG1        0.0795
     27 N          -1.9250   -1.7710    0.0000 N.ar    1  LIG1       -0.1669
     28 C          -2.7920   -3.2710    0.0000 C.3     1  LIG1        0.0539
     29 C          -4.5250   -2.2710    0.0000 C.ar    1  LIG1        0.0013
     30 C          -5.3790   -1.7710    0.0000 C.ar    1  LIG1        0.0000
     31 C          -5.3880   -0.7670    0.0000 C.ar    1  LIG1        0.0001
     32 C          -4.5170   -0.2670    0.0000 C.ar    1  LIG1        0.0031
@<TRIPOS>BOND
     1     1     2   ar
     2     1     5   ar
     3     1    27   ar
     4     2     3   ar
     5     2    24   ar
     6     3     4   ar
     7     4     5   ar
     8     5     6    1
     9     6     7    1
    10     7     8   am
    11     7    18    1
    12     8     9    1
    13     8    17    2
    14     9    10    1
    15    10    11    1
    16    11    12   ar
    17    11    16   ar
    18    12    13   ar
    19    13    14   ar
    20    14    15   ar
    21    15    16   ar
    22    18    19   ar
    23    18    23   ar
    24    19    20   ar
    25    20    21   ar
    26    21    22   ar
    27    22    23   ar
    28    24    25   ar
    29    24    32   ar
    30    25    26   ar
    31    25    29   ar
    32    26    27   ar
    33    26    28    1
    34    29    30   ar
    35    30    31   ar
    36    31    32   ar
