@<TRIPOS>MOLECULE
35143_ChemDiv_8017-3736
 23 26 0 0 0
SMALL
GASTEIGER
Energy = 0

@<TRIPOS>ATOM
      1 N          -0.3080   -0.0290    0.0000 N.am    1  LIG1       -0.2318
      2 C          -0.8040   -0.8920    0.0000 C.ar    1  LIG1        0.0985
      3 C          -1.8040   -0.8920    0.0000 C.ar    1  LIG1        0.1708
      4 C          -2.3170   -0.0290    0.0000 C.2     1  LIG1        0.2873
      5 N          -1.8040    0.8380    0.0000 N.am    1  LIG1       -0.1768
      6 C          -0.8040    0.8380    0.0000 C.3     1  LIG1        0.2001
      7 C          -0.1290    1.5830    0.0000 C.ar    1  LIG1        0.0243
      8 C           0.7750    1.1710    0.0000 C.ar    1  LIG1        0.0901
      9 C           0.6670    0.1710    0.0000 C.2     1  LIG1        0.2571
     10 O           1.4130   -0.5040    0.0000 O.2     1  LIG1       -0.2694
     11 C           1.5790    1.7460    0.0000 C.ar    1  LIG1        0.1765
     12 C           1.4790    2.7330    0.0000 C.ar    1  LIG1        0.1725
     13 C           0.5670    3.1460    0.0000 C.ar    1  LIG1        0.0398
     14 C          -0.2290    2.5630    0.0000 C.ar    1  LIG1        0.0025
     15 O           2.1880    3.4460    0.0000 O.3     1  LIG1       -0.4684
     16 C           3.1540    3.1960    0.0000 C.3     1  LIG1        0.2526
     17 O           2.4420    1.2460    0.0000 O.3     1  LIG1       -0.4682
     18 C           3.3130    1.7500    0.0000 C.3     1  LIG1        0.2526
     19 O          -3.3170   -0.0290    0.0000 O.2     1  LIG1       -0.2665
     20 N          -2.1170   -1.8500    0.0000 N.ar    1  LIG1       -0.1632
     21 N          -1.3040   -2.4380    0.0000 N.ar    1  LIG1       -0.2459
     22 C          -0.4920   -1.8500    0.0000 C.ar    1  LIG1        0.1117
     23 C          -1.3040   -3.4420    0.0000 C.3     1  LIG1        0.1538
@<TRIPOS>BOND
     1     1     2    1
     2     1     6    1
     3     1     9   am
     4     2     3   ar
     5     2    22   ar
     6     3     4    1
     7     3    20   ar
     8     4     5   am
     9     4    19    2
    10     5     6    1
    11     6     7    1
    12     7     8   ar
    13     7    14   ar
    14     8     9    1
    15     8    11   ar
    16     9    10    2
    17    11    12   ar
    18    11    17    1
    19    12    13   ar
    20    12    15    1
    21    13    14   ar
    22    15    16    1
    23    17    18    1
    24    20    21   ar
    25    21    22   ar
    26    21    23    1
