@<TRIPOS>MOLECULE
35154_ChemDiv_K288-0317
 28 32 0 0 0
SMALL
GASTEIGER
Energy = 0

@<TRIPOS>ATOM
      1 N           0.5380    2.5710    0.0000 N.ar    1  LIG1       -0.2750
      2 C           1.3880    2.0670    0.0000 C.ar    1  LIG1        0.1838
      3 N           1.3880    1.0630    0.0000 N.ar    1  LIG1       -0.2217
      4 C           0.5210    0.5880    0.0000 C.ar    1  LIG1        0.0881
      5 C          -0.3290    1.0790    0.0000 C.ar    1  LIG1        0.0739
      6 C          -0.3330    2.0790    0.0000 C.ar    1  LIG1        0.2637
      7 O          -1.1960    2.5790    0.0000 O.2     1  LIG1       -0.2669
      8 C          -1.1960    0.5920    0.0000 C.ar    1  LIG1        0.0064
      9 C          -1.2000   -0.4130    0.0000 C.ar    1  LIG1        0.0048
     10 C          -0.3460   -0.9130    0.0000 C.ar    1  LIG1        0.0565
     11 C          -0.3460   -1.9170    0.0000 C.2     1  LIG1        0.2647
     12 N          -1.2130   -2.4080    0.0000 N.am    1  LIG1       -0.2051
     13 C          -1.2130   -3.3880    0.0000 C.3     1  LIG1        0.0789
     14 C          -1.1790   -4.3130    0.0000 C.3     1  LIG1        0.0200
     15 C          -0.6330   -5.0750    0.0000 C.3     1  LIG1        0.0017
     16 C           0.2960   -4.7080    0.0000 C.3     1  LIG1        0.0001
     17 C           0.3040   -3.7210    0.0000 C.3     1  LIG1        0.0017
     18 C          -0.3130   -3.0210    0.0000 C.3     1  LIG1        0.0200
     19 C          -0.6960   -3.4000    0.0000 C.3     1  LIG1        0.0001
     20 C          -1.6500   -3.7830    0.0000 C.3     1  LIG1        0.0017
     21 C          -2.2750   -2.9750    0.0000 C.3     1  LIG1        0.0200
     22 C          -1.6580   -4.7710    0.0000 C.3     1  LIG1        0.0001
     23 O           0.5210   -2.4080    0.0000 O.2     1  LIG1       -0.2684
     24 C           0.5210   -0.4130    0.0000 C.ar    1  LIG1        0.0239
     25 S           2.2710    2.5710    0.0000 S.2     1  LIG1       -0.0109
     26 C           0.5380    3.5830    0.0000 C.3     1  LIG1        0.1110
     27 C          -0.3290    4.0710    0.0000 C.3     1  LIG1        0.0247
     28 C          -0.3210    5.0750    0.0000 C.3     1  LIG1        0.0021
@<TRIPOS>BOND
     1     1     2   ar
     2     1     6   ar
     3     1    26    1
     4     2     3   ar
     5     2    25    2
     6     3     4   ar
     7     4     5   ar
     8     4    24   ar
     9     5     6   ar
    10     5     8   ar
    11     6     7    2
    12     8     9   ar
    13     9    10   ar
    14    10    11    1
    15    10    24   ar
    16    11    12   am
    17    11    23    2
    18    12    13    1
    19    13    14    1
    20    13    18    1
    21    13    21    1
    22    14    15    1
    23    15    16    1
    24    15    22    1
    25    16    17    1
    26    17    18    1
    27    17    19    1
    28    19    20    1
    29    20    21    1
    30    20    22    1
    31    26    27    1
    32    27    28    1
