@<TRIPOS>MOLECULE
35153_ChemDiv_8017-8411
 24 27 0 0 0
SMALL
GASTEIGER
Energy = 0

@<TRIPOS>ATOM
      1 C          -1.6580    0.0210    0.0000 C.ar    1  LIG1        0.0501
      2 C          -1.9710    0.9710    0.0000 C.ar    1  LIG1        0.0549
      3 C          -1.1580    1.5580    0.0000 C.ar    1  LIG1        0.0446
      4 N          -0.3460    0.9710    0.0000 N.ar    1  LIG1       -0.3132
      5 C          -0.6580    0.0210    0.0000 C.ar    1  LIG1        0.0444
      6 C           0.0460   -0.6920    0.0000 C.3     1  LIG1        0.0505
      7 C           0.6210    1.2330    0.0000 C.ar    1  LIG1        0.0666
      8 C           1.3290    0.5330    0.0000 C.ar    1  LIG1        0.0577
      9 C           2.2960    0.8000    0.0000 C.ar    1  LIG1        0.1779
     10 C           2.5420    1.7630    0.0000 C.ar    1  LIG1        0.1765
     11 O           3.5330    1.8250    0.0000 O.3     1  LIG1       -0.4346
     12 C           3.8960    0.9000    0.0000 C.3     1  LIG1        0.4294
     13 O           3.1330    0.2710    0.0000 O.3     1  LIG1       -0.4346
     14 C           1.8210    2.4630    0.0000 C.ar    1  LIG1        0.0417
     15 C           0.8670    2.1960    0.0000 C.ar    1  LIG1        0.0208
     16 C          -1.1710    2.5580    0.0000 C.3     1  LIG1        0.0505
     17 C          -2.9130    1.3210    0.0000 C.ar    1  LIG1        0.1969
     18 C          -3.7750    0.7960    0.0000 C.ar    1  LIG1        0.0422
     19 C          -3.9000   -0.2040    0.0000 C.ar    1  LIG1        0.0064
     20 C          -3.2080   -0.9250    0.0000 C.ar    1  LIG1        0.0370
     21 C          -2.2080   -0.8290    0.0000 C.ar    1  LIG1        0.1399
     22 O          -1.7130   -1.6880    0.0000 O.3     1  LIG1       -0.4714
     23 C          -2.2210   -2.5540    0.0000 C.3     1  LIG1        0.2525
     24 O          -2.9210    2.3210    0.0000 O.2     1  LIG1       -0.2865
@<TRIPOS>BOND
     1     1     2   ar
     2     1     5   ar
     3     1    21   ar
     4     2     3   ar
     5     2    17   ar
     6     3     4   ar
     7     3    16    1
     8     4     5   ar
     9     4     7    1
    10     5     6    1
    11     7     8   ar
    12     7    15   ar
    13     8     9   ar
    14     9    10   ar
    15     9    13    1
    16    10    11    1
    17    10    14   ar
    18    11    12    1
    19    12    13    1
    20    14    15   ar
    21    17    18   ar
    22    17    24    2
    23    18    19   ar
    24    19    20   ar
    25    20    21   ar
    26    21    22    1
    27    22    23    1
