@<TRIPOS>MOLECULE
35157_ChemDiv_8017-8560
 26 28 0 0 0
SMALL
GASTEIGER
Energy = 0

@<TRIPOS>ATOM
      1 C          -3.0250   -0.5330    0.0000 C.ar    1  LIG1        0.1287
      2 N          -2.1580   -1.0330    0.0000 N.ar    1  LIG1       -0.1416
      3 N          -2.1580   -2.0330    0.0000 N.ar    1  LIG1       -0.1459
      4 C          -3.0210   -2.5330    0.0000 C.ar    1  LIG1        0.1222
      5 C          -3.8830   -2.0420    0.0000 C.ar    1  LIG1        0.0229
      6 C          -3.8920   -1.0330    0.0000 C.ar    1  LIG1        0.0268
      7 C          -4.7500   -0.5330    0.0000 C.ar    1  LIG1        0.0021
      8 C          -5.6130   -1.0330    0.0000 C.ar    1  LIG1        0.0001
      9 C          -5.6210   -2.0420    0.0000 C.ar    1  LIG1        0.0001
     10 C          -4.7500   -2.5420    0.0000 C.ar    1  LIG1        0.0017
     11 S          -3.0250    0.4670    0.0000 S.3     1  LIG1       -0.0833
     12 C          -2.1630    0.9710    0.0000 C.3     1  LIG1        0.1501
     13 C          -1.2960    0.4790    0.0000 C.2     1  LIG1        0.2531
     14 N          -0.4330    0.9830    0.0000 N.am    1  LIG1       -0.1998
     15 C           0.4420    0.4960    0.0000 C.3     1  LIG1        0.1415
     16 C           1.2960    0.9960    0.0000 C.ar    1  LIG1       -0.0005
     17 C           1.2830    1.9920    0.0000 C.ar    1  LIG1       -0.0012
     18 C           2.1460    2.5040    0.0000 C.ar    1  LIG1        0.0163
     19 C           3.0170    2.0170    0.0000 C.ar    1  LIG1        0.0733
     20 N           3.8830    2.5170    0.0000 N.am    1  LIG1       -0.1792
     21 C           4.7540    2.0330    0.0000 C.2     1  LIG1        0.2461
     22 O           4.7670    1.0330    0.0000 O.2     1  LIG1       -0.2730
     23 C           5.6170    2.5460    0.0000 C.3     1  LIG1        0.0968
     24 C           3.0330    1.0080    0.0000 C.ar    1  LIG1        0.0163
     25 C           2.1670    0.5040    0.0000 C.ar    1  LIG1       -0.0012
     26 O          -1.2880   -0.5210    0.0000 O.2     1  LIG1       -0.2724
@<TRIPOS>BOND
     1     1     2   ar
     2     1     6   ar
     3     1    11    1
     4     2     3   ar
     5     3     4   ar
     6     4     5   ar
     7     5     6   ar
     8     5    10   ar
     9     6     7   ar
    10     7     8   ar
    11     8     9   ar
    12     9    10   ar
    13    11    12    1
    14    12    13    1
    15    13    14   am
    16    13    26    2
    17    14    15    1
    18    15    16    1
    19    16    17   ar
    20    16    25   ar
    21    17    18   ar
    22    18    19   ar
    23    19    20    1
    24    19    24   ar
    25    20    21   am
    26    21    22    2
    27    21    23    1
    28    24    25   ar
