@<TRIPOS>MOLECULE
35155_ChemDiv_8017-8429
 25 27 0 0 0
SMALL
GASTEIGER
Energy = 0

@<TRIPOS>ATOM
      1 N          -0.8330   -0.5330    0.0000 N.ar    1  LIG1       -0.1407
      2 S           0.1710   -0.5330    0.0000 S.O2    1  LIG1        0.0936
      3 C           1.1710   -0.5330    0.0000 C.ar    1  LIG1        0.1646
      4 C           1.6790   -1.3960    0.0000 C.ar    1  LIG1        0.0604
      5 C           2.6790   -1.3960    0.0000 C.ar    1  LIG1        0.1403
      6 C           3.1790   -0.5290    0.0000 C.ar    1  LIG1        0.0401
      7 C           2.6790    0.3460    0.0000 C.ar    1  LIG1        0.0414
      8 C           1.6790    0.3460    0.0000 C.ar    1  LIG1        0.1579
      9 O           1.1790    1.2080    0.0000 O.3     1  LIG1       -0.4701
     10 C           1.6710    2.0710    0.0000 C.3     1  LIG1        0.2525
     11 O           3.1790   -2.2580    0.0000 O.3     1  LIG1       -0.4714
     12 C           2.6790   -3.1210    0.0000 C.3     1  LIG1        0.2525
     13 O           0.1710   -1.5330    0.0000 O.2     1  LIG1       -0.1473
     14 O           0.1710    0.4750    0.0000 O.2     1  LIG1       -0.1473
     15 C          -1.4210    0.2830    0.0000 C.ar    1  LIG1        0.3837
     16 N          -2.3750   -0.0330    0.0000 N.ar    1  LIG1        0.0938
     17 C          -2.3750   -1.0330    0.0000 C.ar    1  LIG1        0.2955
     18 C          -1.4210   -1.3420    0.0000 C.ar    1  LIG1        0.1770
     19 C          -3.1830   -1.6210    0.0000 C.3     1  LIG1        0.1170
     20 C          -1.1130    1.2330    0.0000 C.ar    1  LIG1        0.0902
     21 C          -0.1380    1.4380    0.0000 C.ar    1  LIG1        0.0079
     22 C           0.1710    2.3830    0.0000 C.ar    1  LIG1        0.0003
     23 C          -0.5000    3.1250    0.0000 C.ar    1  LIG1        0.0000
     24 C          -1.4830    2.9130    0.0000 C.ar    1  LIG1        0.0003
     25 C          -1.7830    1.9710    0.0000 C.ar    1  LIG1        0.0079
@<TRIPOS>BOND
     1     1     2    1
     2     1    15   ar
     3     1    18   ar
     4     2     3    1
     5     2    13    2
     6     2    14    2
     7     3     4   ar
     8     3     8   ar
     9     4     5   ar
    10     5     6   ar
    11     5    11    1
    12     6     7   ar
    13     7     8   ar
    14     8     9    1
    15     9    10    1
    16    11    12    1
    17    15    16   ar
    18    15    20    1
    19    16    17   ar
    20    17    18   ar
    21    17    19    1
    22    20    21   ar
    23    20    25   ar
    24    21    22   ar
    25    22    23   ar
    26    23    24   ar
    27    24    25   ar
