@<TRIPOS>MOLECULE
35159_ChemDiv_8017-8691
 29 32 0 0 0
SMALL
GASTEIGER
Energy = 0

@<TRIPOS>ATOM
      1 C           5.4670    0.3960    0.0000 C.ar    1  LIG1        0.3316
      2 N           4.5420    0.7750    0.0000 N.ar    1  LIG1       -0.2779
      3 C           3.9000    0.0130    0.0000 C.ar    1  LIG1        0.0795
      4 C           4.4250   -0.8380    0.0000 C.ar    1  LIG1        0.0797
      5 N           5.3920   -0.6000    0.0000 N.ar    1  LIG1       -0.2779
      6 C           6.1540   -1.2420    0.0000 C.3     1  LIG1        0.1351
      7 C           3.9540   -1.7130    0.0000 C.ar    1  LIG1        0.0185
      8 C           2.9670   -1.7420    0.0000 C.ar    1  LIG1       -0.0012
      9 C           2.4420   -0.8920    0.0000 C.ar    1  LIG1       -0.0014
     10 C           2.9040   -0.0170    0.0000 C.ar    1  LIG1        0.0160
     11 C           1.4540   -0.9290    0.0000 C.3     1  LIG1        0.1418
     12 N           0.9290   -0.0670    0.0000 N.3     1  LIG1       -0.0729
     13 S          -0.0750   -0.0920    0.0000 S.O2    1  LIG1        0.0771
     14 C          -1.0750   -0.1170    0.0000 C.ar    1  LIG1        0.1235
     15 C          -1.5880    0.7500    0.0000 C.ar    1  LIG1        0.0196
     16 C          -2.5920    0.7330    0.0000 C.ar    1  LIG1       -0.0028
     17 C          -3.0880   -0.1420    0.0000 C.ar    1  LIG1       -0.0202
     18 C          -4.0880   -0.1580    0.0000 C.3     1  LIG1        0.0532
     19 C          -4.6630   -0.9790    0.0000 C.3     1  LIG1        0.0929
     20 C          -5.6130   -0.6880    0.0000 C.2     1  LIG1        0.2418
     21 N          -5.6380    0.3130    0.0000 N.am    1  LIG1       -0.2051
     22 C          -4.6880    0.6380    0.0000 C.3     1  LIG1        0.1199
     23 O          -6.3170   -1.3920    0.0000 O.2     1  LIG1       -0.2733
     24 C          -2.5630   -1.0040    0.0000 C.ar    1  LIG1       -0.0028
     25 C          -1.5540   -0.9920    0.0000 C.ar    1  LIG1        0.0196
     26 O          -0.0580   -1.1000    0.0000 O.2     1  LIG1       -0.1516
     27 O          -0.0830    0.9080    0.0000 O.2     1  LIG1       -0.1516
     28 C           4.3040    1.7460    0.0000 C.3     1  LIG1        0.1351
     29 O           6.3170    0.9210    0.0000 O.2     1  LIG1       -0.2463
@<TRIPOS>BOND
     1     1     2   ar
     2     1     5   ar
     3     1    29    2
     4     2     3   ar
     5     2    28    1
     6     3     4   ar
     7     3    10   ar
     8     4     5   ar
     9     4     7   ar
    10     5     6    1
    11     7     8   ar
    12     8     9   ar
    13     9    10   ar
    14     9    11    1
    15    11    12    1
    16    12    13    1
    17    13    14    1
    18    13    26    2
    19    13    27    2
    20    14    15   ar
    21    14    25   ar
    22    15    16   ar
    23    16    17   ar
    24    17    18    1
    25    17    24   ar
    26    18    19    1
    27    18    22    1
    28    19    20    1
    29    20    21   am
    30    20    23    2
    31    21    22    1
    32    24    25   ar
