@<TRIPOS>MOLECULE
35156_ChemDiv_K288-0537
 31 33 0 0 0
SMALL
GASTEIGER
Energy = 0

@<TRIPOS>ATOM
      1 N           0.3960    1.7210    0.0000 N.ar    1  LIG1       -0.2688
      2 C           1.2250    1.1920    0.0000 C.ar    1  LIG1        0.1840
      3 N           1.2250    0.1580    0.0000 N.ar    1  LIG1       -0.2217
      4 C           0.3830   -0.3420    0.0000 C.ar    1  LIG1        0.0881
      5 C          -0.4460    0.1750    0.0000 C.ar    1  LIG1        0.0739
      6 C          -0.4460    1.2040    0.0000 C.ar    1  LIG1        0.2639
      7 O          -1.2880    1.7250    0.0000 O.2     1  LIG1       -0.2669
      8 C          -1.2880   -0.3380    0.0000 C.ar    1  LIG1        0.0064
      9 C          -1.3000   -1.3710    0.0000 C.ar    1  LIG1        0.0048
     10 C          -0.4580   -1.9000    0.0000 C.ar    1  LIG1        0.0549
     11 C          -0.4580   -2.9330    0.0000 C.2     1  LIG1        0.2460
     12 N          -1.3040   -3.4500    0.0000 N.am    1  LIG1       -0.2959
     13 C          -1.3040   -4.4130    0.0000 C.3     1  LIG1        0.1470
     14 C          -0.5250   -4.9080    0.0000 C.3     1  LIG1        0.1070
     15 N           0.2750   -4.4130    0.0000 N.4     1  LIG1        0.3742
     16 C           1.0670   -4.9080    0.0000 C.3     1  LIG1        0.1385
     17 C           1.0670   -5.8710    0.0000 C.3     1  LIG1        0.0687
     18 C          -0.5250   -5.8710    0.0000 C.3     1  LIG1        0.0646
     19 C           0.8500   -3.6210    0.0000 C.3     1  LIG1        0.1385
     20 C           1.7540   -3.6210    0.0000 C.3     1  LIG1        0.0688
     21 O           0.3330   -2.9790    0.0000 O.2     1  LIG1       -0.2701
     22 C           0.3830   -1.3710    0.0000 C.ar    1  LIG1        0.0238
     23 S           2.0830    1.7210    0.0000 S.2     1  LIG1       -0.0109
     24 C           0.3960    2.7670    0.0000 C.3     1  LIG1        0.1733
     25 C          -0.4460    3.2830    0.0000 C.3     1  LIG1        0.1636
     26 N          -0.4420    4.3080    0.0000 N.4     1  LIG1        0.3788
     27 C          -1.2830    4.8420    0.0000 C.3     1  LIG1        0.1389
     28 C          -1.2830    5.8710    0.0000 C.3     1  LIG1        0.0688
     29 C           0.3960    4.8290    0.0000 C.3     1  LIG1        0.1389
     30 C           1.2420    4.2960    0.0000 C.3     1  LIG1        0.0688
     31 H          -2.0880   -2.9710    0.0000 H       1  LIG1        0.1499
@<TRIPOS>BOND
     1     1     2   ar
     2     1     6   ar
     3     1    24    1
     4     2     3   ar
     5     2    23    2
     6     3     4   ar
     7     4     5   ar
     8     4    22   ar
     9     5     6   ar
    10     5     8   ar
    11     6     7    2
    12     8     9   ar
    13     9    10   ar
    14    10    11    1
    15    10    22   ar
    16    11    12   am
    17    11    21    2
    18    12    13    1
    19    12    31    1
    20    13    14    1
    21    14    15    1
    22    14    18    1
    23    15    16    1
    24    15    19    1
    25    16    17    1
    26    17    18    1
    27    19    20    1
    28    24    25    1
    29    25    26    1
    30    26    27    1
    31    26    29    1
    32    27    28    1
    33    29    30    1
