@<TRIPOS>MOLECULE
35151_ChemDiv_8017-3817
 22 24 0 0 0
SMALL
GASTEIGER
Energy = 0

@<TRIPOS>ATOM
      1 N           1.6670    0.0000    0.0000 N.2     1  LIG1        0.0477
      2 N           2.6420   -0.2040    0.0000 N.pl3   1  LIG1       -0.1193
      3 C           3.1330    0.6710    0.0000 C.3     1  LIG1        0.1539
      4 C           2.4670    1.4080    0.0000 C.3     1  LIG1        0.1494
      5 C           1.5580    0.9960    0.0000 C.2     1  LIG1        0.3693
      6 N           0.6920    1.4830    0.0000 N.am    1  LIG1        0.0306
      7 C          -0.1710    0.9830    0.0000 C.2     1  LIG1        0.3633
      8 O          -0.1710   -0.0170    0.0000 O.2     1  LIG1       -0.2419
      9 C          -1.0460    1.4750    0.0000 C.3     1  LIG1        0.1799
     10 S          -1.9080    0.9710    0.0000 S.3     1  LIG1       -0.0825
     11 C          -2.7710    1.4710    0.0000 C.ar    1  LIG1        0.1072
     12 N          -3.6210    0.9750    0.0000 N.ar    1  LIG1       -0.2376
     13 C          -4.4830    1.4710    0.0000 C.ar    1  LIG1        0.0994
     14 C          -4.4830    2.4710    0.0000 C.ar    1  LIG1        0.0207
     15 C          -3.6210    2.9630    0.0000 C.ar    1  LIG1        0.0037
     16 C          -2.7580    2.4630    0.0000 C.ar    1  LIG1        0.0255
     17 C           3.0580   -1.1210    0.0000 C.ar    1  LIG1        0.0913
     18 C           4.0580   -1.2170    0.0000 C.ar    1  LIG1        0.0183
     19 C           4.4790   -2.1330    0.0000 C.ar    1  LIG1        0.0014
     20 C           3.8830   -2.9580    0.0000 C.ar    1  LIG1        0.0001
     21 C           2.8830   -2.8580    0.0000 C.ar    1  LIG1        0.0014
     22 C           2.4670   -1.9420    0.0000 C.ar    1  LIG1        0.0183
@<TRIPOS>BOND
     1     1     2    1
     2     1     5    2
     3     2     3    1
     4     2    17    1
     5     3     4    1
     6     4     5    1
     7     5     6    1
     8     6     7   am
     9     7     8    2
    10     7     9    1
    11     9    10    1
    12    10    11    1
    13    11    12   ar
    14    11    16   ar
    15    12    13   ar
    16    13    14   ar
    17    14    15   ar
    18    15    16   ar
    19    17    18   ar
    20    17    22   ar
    21    18    19   ar
    22    19    20   ar
    23    20    21   ar
    24    21    22   ar
