@<TRIPOS>MOLECULE
35152_ChemDiv_C066-0382
 22 24 0 0 0
SMALL
GASTEIGER
Energy = 0

@<TRIPOS>ATOM
      1 C          -0.8710    0.5040    0.0000 C.ar    1  LIG1        0.1564
      2 N          -0.0080    1.0040    0.0000 N.ar    1  LIG1       -0.1403
      3 N          -0.0080    2.0000    0.0000 N.ar    1  LIG1       -0.1054
      4 C          -0.8710    2.5040    0.0000 C.ar    1  LIG1        0.2967
      5 C          -1.7330    2.0000    0.0000 C.ar    1  LIG1        0.0610
      6 C          -1.7330    1.0040    0.0000 C.ar    1  LIG1        0.0286
      7 C          -2.5960    0.5040    0.0000 C.ar    1  LIG1        0.0019
      8 C          -3.4670    1.0040    0.0000 C.ar    1  LIG1        0.0001
      9 C          -3.4670    2.0000    0.0000 C.ar    1  LIG1        0.0002
     10 C          -2.5960    2.5040    0.0000 C.ar    1  LIG1        0.0049
     11 O          -0.8710    3.5000    0.0000 O.2     1  LIG1       -0.2636
     12 C          -0.8710   -0.4960    0.0000 C.2     1  LIG1        0.2685
     13 N          -0.0080   -0.9960    0.0000 N.am    1  LIG1       -0.2748
     14 C           0.8540   -0.4920    0.0000 C.3     1  LIG1        0.0942
     15 C           1.7290   -0.9920    0.0000 C.3     1  LIG1        0.0307
     16 C           1.7290   -1.9960    0.0000 C.3     1  LIG1        0.0833
     17 C           2.5920   -2.4960    0.0000 C.2     1  LIG1        0.2604
     18 O           2.5920   -3.4960    0.0000 O.2     1  LIG1       -0.2717
     19 N           3.4630   -1.9960    0.0000 N.am    1  LIG1       -0.0878
     20 C           0.8540   -2.4960    0.0000 C.3     1  LIG1        0.0307
     21 C          -0.0080   -1.9960    0.0000 C.3     1  LIG1        0.0942
     22 O          -1.7330   -0.9960    0.0000 O.2     1  LIG1       -0.2682
@<TRIPOS>BOND
     1     1     2   ar
     2     1     6   ar
     3     1    12    1
     4     2     3   ar
     5     3     4   ar
     6     4     5   ar
     7     4    11    2
     8     5     6   ar
     9     5    10   ar
    10     6     7   ar
    11     7     8   ar
    12     8     9   ar
    13     9    10   ar
    14    12    13   am
    15    12    22    2
    16    13    14    1
    17    13    21    1
    18    14    15    1
    19    15    16    1
    20    16    17    1
    21    16    20    1
    22    17    18    2
    23    17    19   am
    24    20    21    1
