@<TRIPOS>MOLECULE
35158_ChemDiv_K288-0574
 31 34 0 0 0
SMALL
GASTEIGER
Energy = 0

@<TRIPOS>ATOM
      1 N           2.6080    1.7420    0.0000 N.ar    1  LIG1       -0.2724
      2 C           3.4630    1.2380    0.0000 C.ar    1  LIG1        0.1839
      3 N           3.4630    0.2330    0.0000 N.ar    1  LIG1       -0.2217
      4 C           2.5960   -0.2420    0.0000 C.ar    1  LIG1        0.0881
      5 C           1.7420    0.2500    0.0000 C.ar    1  LIG1        0.0739
      6 C           1.7380    1.2500    0.0000 C.ar    1  LIG1        0.2638
      7 O           0.8750    1.7500    0.0000 O.2     1  LIG1       -0.2669
      8 C           0.8750   -0.2380    0.0000 C.ar    1  LIG1        0.0064
      9 C           0.8710   -1.2420    0.0000 C.ar    1  LIG1        0.0048
     10 C           1.7250   -1.7420    0.0000 C.ar    1  LIG1        0.0551
     11 C           1.7250   -2.7460    0.0000 C.2     1  LIG1        0.2491
     12 N           0.8580   -3.2380    0.0000 N.am    1  LIG1       -0.2761
     13 C          -0.0080   -2.7460    0.0000 C.3     1  LIG1        0.0937
     14 C          -0.8750   -3.2380    0.0000 C.3     1  LIG1        0.0219
     15 C          -0.8750   -4.2330    0.0000 C.3     1  LIG1        0.0078
     16 C          -1.7460   -4.7500    0.0000 C.3     1  LIG1        0.0265
     17 C          -2.6040   -4.2330    0.0000 C.ar    1  LIG1       -0.0222
     18 C          -2.6040   -3.2380    0.0000 C.ar    1  LIG1       -0.0043
     19 C          -3.4710   -2.7460    0.0000 C.ar    1  LIG1       -0.0003
     20 C          -4.3500   -3.2420    0.0000 C.ar    1  LIG1       -0.0000
     21 C          -4.3380   -4.2460    0.0000 C.ar    1  LIG1       -0.0003
     22 C          -3.4710   -4.7500    0.0000 C.ar    1  LIG1       -0.0043
     23 C          -0.0080   -4.7330    0.0000 C.3     1  LIG1        0.0219
     24 C           0.8580   -4.2330    0.0000 C.3     1  LIG1        0.0937
     25 O           2.5960   -3.2380    0.0000 O.2     1  LIG1       -0.2699
     26 C           2.5960   -1.2420    0.0000 C.ar    1  LIG1        0.0238
     27 S           4.3460    1.7420    0.0000 S.2     1  LIG1       -0.0109
     28 C           2.6080    2.7540    0.0000 C.3     1  LIG1        0.1430
     29 C           1.7420    3.2460    0.0000 C.3     1  LIG1        0.1668
     30 O           1.7540    4.2460    0.0000 O.3     1  LIG1       -0.3490
     31 C           0.8920    4.7500    0.0000 C.3     1  LIG1        0.1742
@<TRIPOS>BOND
     1     1     2   ar
     2     1     6   ar
     3     1    28    1
     4     2     3   ar
     5     2    27    2
     6     3     4   ar
     7     4     5   ar
     8     4    26   ar
     9     5     6   ar
    10     5     8   ar
    11     6     7    2
    12     8     9   ar
    13     9    10   ar
    14    10    11    1
    15    10    26   ar
    16    11    12   am
    17    11    25    2
    18    12    13    1
    19    12    24    1
    20    13    14    1
    21    14    15    1
    22    15    16    1
    23    15    23    1
    24    16    17    1
    25    17    18   ar
    26    17    22   ar
    27    18    19   ar
    28    19    20   ar
    29    20    21   ar
    30    21    22   ar
    31    23    24    1
    32    28    29    1
    33    29    30    1
    34    30    31    1
