@<TRIPOS>MOLECULE
35169_ChemDiv_8017-3821
 27 30 0 0 0
SMALL
GASTEIGER
Energy = 0

@<TRIPOS>ATOM
      1 N           2.5460   -1.0000    0.0000 N.2     1  LIG1        0.0477
      2 N           3.5210   -1.2080    0.0000 N.pl3   1  LIG1       -0.1193
      3 C           4.0170   -0.3420    0.0000 C.3     1  LIG1        0.1539
      4 C           3.3460    0.3920    0.0000 C.3     1  LIG1        0.1494
      5 C           2.4460   -0.0210    0.0000 C.2     1  LIG1        0.3693
      6 N           1.5830    0.4710    0.0000 N.am    1  LIG1        0.0306
      7 C           0.7210   -0.0290    0.0000 C.2     1  LIG1        0.3633
      8 O           0.7250   -1.0210    0.0000 O.2     1  LIG1       -0.2419
      9 C          -0.1460    0.4670    0.0000 C.3     1  LIG1        0.1804
     10 S          -1.0040   -0.0330    0.0000 S.3     1  LIG1       -0.0760
     11 C          -1.8580    0.4540    0.0000 C.ar    1  LIG1        0.1369
     12 N          -2.1710    1.4130    0.0000 N.ar    1  LIG1       -0.2320
     13 C          -3.1710    1.4130    0.0000 C.ar    1  LIG1        0.0889
     14 C          -3.4830    0.4540    0.0000 C.ar    1  LIG1        0.0565
     15 S          -2.6750   -0.1290    0.0000 S.2     1  LIG1       -0.0597
     16 C          -3.7630    2.2170    0.0000 C.ar    1  LIG1        0.0182
     17 C          -3.3460    3.1420    0.0000 C.ar    1  LIG1        0.0015
     18 C          -3.9460    3.9580    0.0000 C.ar    1  LIG1        0.0000
     19 C          -4.9460    3.8460    0.0000 C.ar    1  LIG1        0.0000
     20 C          -5.3500    2.9170    0.0000 C.ar    1  LIG1        0.0000
     21 C          -4.7580    2.1130    0.0000 C.ar    1  LIG1        0.0015
     22 C           3.9330   -2.1170    0.0000 C.ar    1  LIG1        0.0913
     23 C           4.9330   -2.2170    0.0000 C.ar    1  LIG1        0.0183
     24 C           5.3460   -3.1290    0.0000 C.ar    1  LIG1        0.0014
     25 C           4.7580   -3.9540    0.0000 C.ar    1  LIG1        0.0001
     26 C           3.7580   -3.8460    0.0000 C.ar    1  LIG1        0.0014
     27 C           3.3460   -2.9330    0.0000 C.ar    1  LIG1        0.0183
@<TRIPOS>BOND
     1     1     2    1
     2     1     5    2
     3     2     3    1
     4     2    22    1
     5     3     4    1
     6     4     5    1
     7     5     6    1
     8     6     7   am
     9     7     8    2
    10     7     9    1
    11     9    10    1
    12    10    11    1
    13    11    12   ar
    14    11    15   ar
    15    12    13   ar
    16    13    14   ar
    17    13    16    1
    18    14    15   ar
    19    16    17   ar
    20    16    21   ar
    21    17    18   ar
    22    18    19   ar
    23    19    20   ar
    24    20    21   ar
    25    22    23   ar
    26    22    27   ar
    27    23    24   ar
    28    24    25   ar
    29    25    26   ar
    30    26    27   ar
