@<TRIPOS>MOLECULE
35167_ChemDiv_8017-9087
 35 40 0 0 0
SMALL
GASTEIGER
Energy = 0

@<TRIPOS>ATOM
      1 C          -0.4830    1.9170    0.0000 C.ar    1  LIG1        0.1787
      2 N          -0.9830    2.7790    0.0000 N.ar    1  LIG1       -0.3043
      3 C          -1.9670    2.5750    0.0000 C.ar    1  LIG1        0.0790
      4 C          -2.0710    1.5790    0.0000 C.ar    1  LIG1        0.0998
      5 N          -1.1500    1.1710    0.0000 N.ar    1  LIG1       -0.2252
      6 C          -2.9830    1.1670    0.0000 C.ar    1  LIG1        0.0372
      7 C          -3.7880    1.7540    0.0000 C.ar    1  LIG1        0.0750
      8 N          -4.6710    1.2420    0.0000 N.am    1  LIG1       -0.1790
      9 C          -4.6710    0.2630    0.0000 C.2     1  LIG1        0.2496
     10 C          -3.7880   -0.2420    0.0000 C.3     1  LIG1        0.1353
     11 C          -3.7880   -1.2380    0.0000 C.3     1  LIG1        0.2008
     12 O          -4.5960   -1.8250    0.0000 O.3     1  LIG1       -0.4441
     13 C          -4.2880   -2.7790    0.0000 C.2     1  LIG1        0.3412
     14 C          -3.2880   -2.7790    0.0000 C.ar    1  LIG1        0.0750
     15 C          -2.9830   -1.8250    0.0000 C.ar    1  LIG1        0.0240
     16 C          -2.0000   -1.6170    0.0000 C.ar    1  LIG1       -0.0006
     17 C          -1.3330   -2.3630    0.0000 C.ar    1  LIG1       -0.0002
     18 C          -1.6460   -3.3130    0.0000 C.ar    1  LIG1        0.0002
     19 C          -2.6210   -3.5170    0.0000 C.ar    1  LIG1        0.0062
     20 O          -4.7880   -3.6420    0.0000 O.2     1  LIG1       -0.2449
     21 O          -5.5210   -0.2420    0.0000 O.2     1  LIG1       -0.2728
     22 C          -3.6830    2.7540    0.0000 C.ar    1  LIG1        0.0182
     23 C          -2.7710    3.1630    0.0000 C.ar    1  LIG1        0.0201
     24 C          -0.4830    3.6460    0.0000 C.3     1  LIG1        0.1700
     25 C           0.5170    3.6460    0.0000 C.3     1  LIG1        0.1642
     26 N           1.0170    2.7790    0.0000 N.4     1  LIG1        0.3849
     27 C           0.5170    1.9170    0.0000 C.3     1  LIG1        0.2036
     28 C           2.0170    2.7790    0.0000 C.3     1  LIG1        0.1440
     29 C           2.5170    1.9170    0.0000 C.3     1  LIG1        0.0890
     30 C           3.5170    1.9170    0.0000 C.ar    1  LIG1       -0.0162
     31 C           4.0170    2.7790    0.0000 C.ar    1  LIG1       -0.0041
     32 C           5.0170    2.7790    0.0000 C.ar    1  LIG1       -0.0003
     33 C           5.5170    1.9170    0.0000 C.ar    1  LIG1       -0.0000
     34 C           5.0170    1.0460    0.0000 C.ar    1  LIG1       -0.0003
     35 C           4.0170    1.0460    0.0000 C.ar    1  LIG1       -0.0041
@<TRIPOS>BOND
     1     1     2   ar
     2     1     5   ar
     3     1    27    1
     4     2     3   ar
     5     2    24    1
     6     3     4   ar
     7     3    23   ar
     8     4     5   ar
     9     4     6   ar
    10     6     7   ar
    11     7     8    1
    12     7    22   ar
    13     8     9   am
    14     9    10    1
    15     9    21    2
    16    10    11    1
    17    11    12    1
    18    11    15    1
    19    12    13    1
    20    13    14    1
    21    13    20    2
    22    14    15   ar
    23    14    19   ar
    24    15    16   ar
    25    16    17   ar
    26    17    18   ar
    27    18    19   ar
    28    22    23   ar
    29    24    25    1
    30    25    26    1
    31    26    27    1
    32    26    28    1
    33    28    29    1
    34    29    30    1
    35    30    31   ar
    36    30    35   ar
    37    31    32   ar
    38    32    33   ar
    39    33    34   ar
    40    34    35   ar
