@<TRIPOS>MOLECULE
35162_ChemDiv_K288-0794
 34 37 0 0 0
SMALL
GASTEIGER
Energy = 0

@<TRIPOS>ATOM
      1 N           2.6080    1.2420    0.0000 N.ar    1  LIG1       -0.2688
      2 C           3.4630    0.7420    0.0000 C.ar    1  LIG1        0.1840
      3 N           3.4630   -0.2630    0.0000 N.ar    1  LIG1       -0.2217
      4 C           2.5960   -0.7420    0.0000 C.ar    1  LIG1        0.0881
      5 C           1.7420   -0.2500    0.0000 C.ar    1  LIG1        0.0739
      6 C           1.7380    0.7500    0.0000 C.ar    1  LIG1        0.2639
      7 O           0.8750    1.2540    0.0000 O.2     1  LIG1       -0.2669
      8 C           0.8750   -0.7380    0.0000 C.ar    1  LIG1        0.0064
      9 C           0.8710   -1.7420    0.0000 C.ar    1  LIG1        0.0048
     10 C           1.7290   -2.2420    0.0000 C.ar    1  LIG1        0.0551
     11 C           1.7290   -3.2460    0.0000 C.2     1  LIG1        0.2491
     12 N           0.8580   -3.7380    0.0000 N.am    1  LIG1       -0.2761
     13 C          -0.0080   -3.2460    0.0000 C.3     1  LIG1        0.0937
     14 C          -0.8750   -3.7380    0.0000 C.3     1  LIG1        0.0219
     15 C          -0.8750   -4.7330    0.0000 C.3     1  LIG1        0.0078
     16 C          -1.7460   -5.2500    0.0000 C.3     1  LIG1        0.0265
     17 C          -2.6040   -4.7330    0.0000 C.ar    1  LIG1       -0.0222
     18 C          -2.6040   -3.7380    0.0000 C.ar    1  LIG1       -0.0043
     19 C          -3.4710   -3.2460    0.0000 C.ar    1  LIG1       -0.0003
     20 C          -4.3500   -3.7420    0.0000 C.ar    1  LIG1       -0.0000
     21 C          -4.3380   -4.7500    0.0000 C.ar    1  LIG1       -0.0003
     22 C          -3.4710   -5.2500    0.0000 C.ar    1  LIG1       -0.0043
     23 C          -0.0080   -5.2330    0.0000 C.3     1  LIG1        0.0219
     24 C           0.8580   -4.7330    0.0000 C.3     1  LIG1        0.0937
     25 O           2.5960   -3.7380    0.0000 O.2     1  LIG1       -0.2699
     26 C           2.5960   -1.7420    0.0000 C.ar    1  LIG1        0.0238
     27 S           4.3460    1.2420    0.0000 S.2     1  LIG1       -0.0109
     28 C           2.6080    2.2540    0.0000 C.3     1  LIG1        0.1733
     29 C           1.7420    2.7500    0.0000 C.3     1  LIG1        0.1636
     30 N           1.7540    3.7540    0.0000 N.4     1  LIG1        0.3788
     31 C           0.8920    4.2500    0.0000 C.3     1  LIG1        0.1389
     32 C           0.8880    5.2500    0.0000 C.3     1  LIG1        0.0688
     33 C           2.6080    4.2460    0.0000 C.3     1  LIG1        0.1389
     34 C           3.4790    3.7380    0.0000 C.3     1  LIG1        0.0688
@<TRIPOS>BOND
     1     1     2   ar
     2     1     6   ar
     3     1    28    1
     4     2     3   ar
     5     2    27    2
     6     3     4   ar
     7     4     5   ar
     8     4    26   ar
     9     5     6   ar
    10     5     8   ar
    11     6     7    2
    12     8     9   ar
    13     9    10   ar
    14    10    11    1
    15    10    26   ar
    16    11    12   am
    17    11    25    2
    18    12    13    1
    19    12    24    1
    20    13    14    1
    21    14    15    1
    22    15    16    1
    23    15    23    1
    24    16    17    1
    25    17    18   ar
    26    17    22   ar
    27    18    19   ar
    28    19    20   ar
    29    20    21   ar
    30    21    22   ar
    31    23    24    1
    32    28    29    1
    33    29    30    1
    34    30    31    1
    35    30    33    1
    36    31    32    1
    37    33    34    1
