@<TRIPOS>MOLECULE
35166_ChemDiv_K289-0450
 37 39 0 0 0
SMALL
GASTEIGER
Energy = 0

@<TRIPOS>ATOM
      1 N           1.7250   -0.2580    0.0000 N.ar    1  LIG1       -0.2757
      2 C           0.8630   -0.7540    0.0000 C.ar    1  LIG1        0.1738
      3 N           0.0000   -0.2580    0.0000 N.ar    1  LIG1       -0.2224
      4 C           0.0000    0.7500    0.0000 C.ar    1  LIG1        0.0881
      5 C           0.8630    1.2460    0.0000 C.ar    1  LIG1        0.0739
      6 C           1.7250    0.7500    0.0000 C.ar    1  LIG1        0.2637
      7 O           2.6000    1.2540    0.0000 O.2     1  LIG1       -0.2669
      8 C           0.8630    2.2460    0.0000 C.ar    1  LIG1        0.0064
      9 C           0.0000    2.7420    0.0000 C.ar    1  LIG1        0.0048
     10 C          -0.8710    2.2460    0.0000 C.ar    1  LIG1        0.0551
     11 C          -1.7380    2.7580    0.0000 C.2     1  LIG1        0.2491
     12 N          -2.5960    2.2580    0.0000 N.am    1  LIG1       -0.2761
     13 C          -3.4580    2.7580    0.0000 C.3     1  LIG1        0.0942
     14 C          -4.3290    2.2580    0.0000 C.3     1  LIG1        0.0307
     15 C          -4.3290    1.2540    0.0000 C.3     1  LIG1        0.0833
     16 C          -5.1960    0.7500    0.0000 C.2     1  LIG1        0.2604
     17 O          -5.1880   -0.2460    0.0000 O.2     1  LIG1       -0.2717
     18 N          -6.0630    1.2460    0.0000 N.am    1  LIG1       -0.0878
     19 C          -3.4580    0.7540    0.0000 C.3     1  LIG1        0.0307
     20 C          -2.5960    1.2540    0.0000 C.3     1  LIG1        0.0942
     21 O          -1.7290    3.7540    0.0000 O.2     1  LIG1       -0.2699
     22 C          -0.8710    1.2460    0.0000 C.ar    1  LIG1        0.0238
     23 S           0.8630   -1.7540    0.0000 S.3     1  LIG1       -0.0693
     24 C           0.0000   -2.2500    0.0000 C.3     1  LIG1        0.1299
     25 C           0.0000   -3.2540    0.0000 C.2     1  LIG1        0.1731
     26 C           0.8670   -3.7500    0.0000 C.3     1  LIG1        0.1746
     27 C           1.7250   -3.2540    0.0000 C.2     1  LIG1        0.3246
     28 O           1.7250   -2.2500    0.0000 O.2     1  LIG1       -0.2496
     29 O           2.6000   -3.7500    0.0000 O.3     1  LIG1       -0.4482
     30 C           3.4630   -3.2540    0.0000 C.3     1  LIG1        0.2086
     31 C           4.3250   -3.7500    0.0000 C.3     1  LIG1        0.0513
     32 O          -0.8580   -3.7500    0.0000 O.2     1  LIG1       -0.2945
     33 C           2.6000   -0.7630    0.0000 C.3     1  LIG1        0.1110
     34 C           3.4630   -0.2630    0.0000 C.3     1  LIG1        0.0247
     35 C           4.3250   -0.7710    0.0000 C.3     1  LIG1        0.0020
     36 C           5.2000   -0.2790    0.0000 C.3     1  LIG1        0.0001
     37 C           6.0630   -0.7880    0.0000 C.3     1  LIG1        0.0000
@<TRIPOS>BOND
     1     1     2   ar
     2     1     6   ar
     3     1    33    1
     4     2     3   ar
     5     2    23    1
     6     3     4   ar
     7     4     5   ar
     8     4    22   ar
     9     5     6   ar
    10     5     8   ar
    11     6     7    2
    12     8     9   ar
    13     9    10   ar
    14    10    11    1
    15    10    22   ar
    16    11    12   am
    17    11    21    2
    18    12    13    1
    19    12    20    1
    20    13    14    1
    21    14    15    1
    22    15    16    1
    23    15    19    1
    24    16    17    2
    25    16    18   am
    26    19    20    1
    27    23    24    1
    28    24    25    1
    29    25    26    1
    30    25    32    2
    31    26    27    1
    32    27    28    2
    33    27    29    1
    34    29    30    1
    35    30    31    1
    36    33    34    1
    37    34    35    1
    38    35    36    1
    39    36    37    1
