@<TRIPOS>MOLECULE
35160_ChemDiv_K288-0744
 34 38 0 0 0
SMALL
GASTEIGER
Energy = 0

@<TRIPOS>ATOM
      1 N           1.1920    2.1540    0.0000 N.ar    1  LIG1       -0.2708
      2 C           2.0460    1.6500    0.0000 C.ar    1  LIG1        0.1841
      3 N           2.0460    0.6460    0.0000 N.ar    1  LIG1       -0.2217
      4 C           1.1790    0.1710    0.0000 C.ar    1  LIG1        0.0881
      5 C           0.3250    0.6630    0.0000 C.ar    1  LIG1        0.0739
      6 C           0.3210    1.6630    0.0000 C.ar    1  LIG1        0.2640
      7 O          -0.5420    2.1630    0.0000 O.2     1  LIG1       -0.2669
      8 C          -0.5420    0.1750    0.0000 C.ar    1  LIG1        0.0064
      9 C          -0.5460   -0.8290    0.0000 C.ar    1  LIG1        0.0048
     10 C           0.3080   -1.3330    0.0000 C.ar    1  LIG1        0.0549
     11 C           0.3080   -2.3380    0.0000 C.2     1  LIG1        0.2460
     12 N          -0.5580   -2.8290    0.0000 N.am    1  LIG1       -0.2959
     13 C          -0.5580   -3.7630    0.0000 C.3     1  LIG1        0.1470
     14 C           0.2500   -4.2330    0.0000 C.3     1  LIG1        0.1070
     15 N           1.0670   -3.7630    0.0000 N.4     1  LIG1        0.3742
     16 C           1.8790   -4.2330    0.0000 C.3     1  LIG1        0.1385
     17 C           1.8790   -5.1630    0.0000 C.3     1  LIG1        0.0687
     18 C           0.2500   -5.1630    0.0000 C.3     1  LIG1        0.0646
     19 C           1.0670   -2.8290    0.0000 C.3     1  LIG1        0.1385
     20 C           1.8790   -2.3670    0.0000 C.3     1  LIG1        0.0688
     21 O           1.1790   -2.8290    0.0000 O.2     1  LIG1       -0.2701
     22 C           1.1790   -0.8290    0.0000 C.ar    1  LIG1        0.0238
     23 S           2.9290    2.1540    0.0000 S.2     1  LIG1       -0.0109
     24 C           1.1920    3.1670    0.0000 C.3     1  LIG1        0.1378
     25 C           0.3250    3.6580    0.0000 C.ar    1  LIG1        0.0038
     26 C          -0.5420    3.1710    0.0000 C.ar    1  LIG1        0.0378
     27 C          -1.4000    3.6750    0.0000 C.ar    1  LIG1        0.1762
     28 C          -1.3960    4.6750    0.0000 C.ar    1  LIG1        0.1764
     29 O          -2.3540    4.9790    0.0000 O.3     1  LIG1       -0.4346
     30 C          -2.9330    4.1830    0.0000 C.3     1  LIG1        0.4294
     31 O          -2.3540    3.3710    0.0000 O.3     1  LIG1       -0.4346
     32 C          -0.5250    5.1630    0.0000 C.ar    1  LIG1        0.0399
     33 C           0.3330    4.6580    0.0000 C.ar    1  LIG1        0.0009
     34 H          -1.3630   -2.3670    0.0000 H       1  LIG1        0.1499
@<TRIPOS>BOND
     1     1     2   ar
     2     1     6   ar
     3     1    24    1
     4     2     3   ar
     5     2    23    2
     6     3     4   ar
     7     4     5   ar
     8     4    22   ar
     9     5     6   ar
    10     5     8   ar
    11     6     7    2
    12     8     9   ar
    13     9    10   ar
    14    10    11    1
    15    10    22   ar
    16    11    12   am
    17    11    21    2
    18    12    13    1
    19    12    34    1
    20    13    14    1
    21    14    15    1
    22    14    18    1
    23    15    16    1
    24    15    19    1
    25    16    17    1
    26    17    18    1
    27    19    20    1
    28    24    25    1
    29    25    26   ar
    30    25    33   ar
    31    26    27   ar
    32    27    28   ar
    33    27    31    1
    34    28    29    1
    35    28    32   ar
    36    29    30    1
    37    30    31    1
    38    32    33   ar
