@<TRIPOS>MOLECULE
35178_ChemDiv_C066-0463
 36 40 0 0 0
SMALL
GASTEIGER
Energy = 0

@<TRIPOS>ATOM
      1 N          -1.0960    1.8000    0.0000 N.ar    1  LIG1       -0.1943
      2 N          -1.0960    0.7960    0.0000 N.ar    1  LIG1       -0.1579
      3 C          -1.9710    0.2920    0.0000 C.ar    1  LIG1        0.1562
      4 C          -2.8420    0.7960    0.0000 C.ar    1  LIG1        0.0285
      5 C          -2.8420    1.8000    0.0000 C.ar    1  LIG1        0.0596
      6 C          -1.9710    2.2960    0.0000 C.ar    1  LIG1        0.2803
      7 O          -1.9710    3.3130    0.0000 O.2     1  LIG1       -0.2652
      8 C          -3.7170    2.2960    0.0000 C.ar    1  LIG1        0.0048
      9 C          -4.5830    1.8000    0.0000 C.ar    1  LIG1        0.0002
     10 C          -4.5830    0.7960    0.0000 C.ar    1  LIG1        0.0001
     11 C          -3.7170    0.2920    0.0000 C.ar    1  LIG1        0.0019
     12 C          -1.9710   -0.7170    0.0000 C.2     1  LIG1        0.2847
     13 N          -1.0960   -1.2170    0.0000 N.am    1  LIG1       -0.1903
     14 C          -1.0960   -2.2250    0.0000 C.3     1  LIG1        0.2021
     15 C          -0.2290   -2.7250    0.0000 C.2     1  LIG1        0.2694
     16 N           0.6380   -2.2250    0.0000 N.am    1  LIG1       -0.1528
     17 C           1.5000   -2.7250    0.0000 C.ar    1  LIG1        0.1858
     18 N           1.6080   -3.7250    0.0000 N.ar    1  LIG1       -0.2225
     19 C           2.5880   -3.9330    0.0000 C.ar    1  LIG1        0.0893
     20 C           3.0960   -3.0710    0.0000 C.ar    1  LIG1        0.0498
     21 S           2.4210   -2.3250    0.0000 S.2     1  LIG1       -0.0497
     22 C           4.0790   -3.0710    0.0000 C.ar    1  LIG1        0.0081
     23 C           4.5790   -3.9250    0.0000 C.ar    1  LIG1        0.0006
     24 C           4.0790   -4.8000    0.0000 C.ar    1  LIG1        0.0016
     25 C           3.0790   -4.8000    0.0000 C.ar    1  LIG1        0.0197
     26 O          -0.2330   -3.7250    0.0000 O.2     1  LIG1       -0.2710
     27 O          -2.8420   -1.2170    0.0000 O.2     1  LIG1       -0.2666
     28 C          -0.2290    2.2960    0.0000 C.ar    1  LIG1        0.0870
     29 C           0.6380    1.8000    0.0000 C.ar    1  LIG1        0.0337
     30 C           1.5000    2.2960    0.0000 C.ar    1  LIG1        0.0930
     31 C           1.5000    3.3000    0.0000 C.ar    1  LIG1        0.1493
     32 C           0.6210    3.8000    0.0000 C.ar    1  LIG1        0.0393
     33 C          -0.2330    3.2960    0.0000 C.ar    1  LIG1        0.0224
     34 O           2.3670    3.8000    0.0000 O.3     1  LIG1       -0.4706
     35 C           2.3580    4.8000    0.0000 C.3     1  LIG1        0.2525
     36 CL          2.2080    1.7380    0.0000 Cl      1  LIG1       -0.0790
@<TRIPOS>BOND
     1     1     2   ar
     2     1     6   ar
     3     1    28    1
     4     2     3   ar
     5     3     4   ar
     6     3    12    1
     7     4     5   ar
     8     4    11   ar
     9     5     6   ar
    10     5     8   ar
    11     6     7    2
    12     8     9   ar
    13     9    10   ar
    14    10    11   ar
    15    12    13   am
    16    12    27    2
    17    13    14    1
    18    14    15    1
    19    15    16   am
    20    15    26    2
    21    16    17    1
    22    17    18   ar
    23    17    21   ar
    24    18    19   ar
    25    19    20   ar
    26    19    25   ar
    27    20    21   ar
    28    20    22   ar
    29    22    23   ar
    30    23    24   ar
    31    24    25   ar
    32    28    29   ar
    33    28    33   ar
    34    29    30   ar
    35    30    31   ar
    36    30    36    1
    37    31    32   ar
    38    31    34    1
    39    32    33   ar
    40    34    35    1
