@<TRIPOS>MOLECULE
35173_ChemDiv_8017-3840
 13 15 0 0 0
SMALL
GASTEIGER
Energy = 0

@<TRIPOS>ATOM
      1 C           0.5330    0.3000    0.0000 C.ar    1  LIG1        0.0495
      2 C           0.5330   -0.6380    0.0000 C.ar    1  LIG1        0.1297
      3 N          -0.2830   -1.1040    0.0000 N.ar    1  LIG1       -0.2420
      4 C          -1.0960   -0.6380    0.0000 C.ar    1  LIG1        0.0556
      5 C          -1.0960    0.3000    0.0000 C.ar    1  LIG1       -0.0085
      6 C          -0.2830    0.7710    0.0000 C.ar    1  LIG1        0.0010
      7 C          -2.0380    0.6380    0.0000 C.3     1  LIG1        0.0279
      8 C          -2.6250   -0.1670    0.0000 C.3     1  LIG1        0.0110
      9 C          -2.0380   -0.9750    0.0000 C.3     1  LIG1        0.0458
     10 S           1.3460   -1.1040    0.0000 S.2     1  LIG1        0.0329
     11 N           2.1580   -0.6380    0.0000 N.ar    1  LIG1       -0.2009
     12 C           2.1580    0.3000    0.0000 C.ar    1  LIG1        0.1251
     13 BR          2.6210    1.1080    0.0000 Br      1  LIG1       -0.0273
@<TRIPOS>BOND
     1     1     2   ar
     2     1     6   ar
     3     1    12   ar
     4     2     3   ar
     5     2    10   ar
     6     3     4   ar
     7     4     5   ar
     8     4     9    1
     9     5     6   ar
    10     5     7    1
    11     7     8    1
    12     8     9    1
    13    10    11   ar
    14    11    12   ar
    15    12    13    1
