@<TRIPOS>MOLECULE
35175_ChemDiv_8017-3864
 29 33 0 0 0
SMALL
GASTEIGER
Energy = 0

@<TRIPOS>ATOM
      1 S          -1.9210   -1.1380    0.0000 S.O2    1  LIG1       -0.0578
      2 C          -1.4460   -2.0040    0.0000 C.ar    1  LIG1        0.0895
      3 C          -0.4460   -2.0170    0.0000 C.ar    1  LIG1        0.0200
      4 C           0.0420   -2.8880    0.0000 C.ar    1  LIG1        0.0387
      5 C          -0.4710   -3.7540    0.0000 C.ar    1  LIG1        0.1454
      6 O           0.2000   -4.5130    0.0000 O.2     1  LIG1       -0.4535
      7 C           1.1170   -4.1040    0.0000 C.ar    1  LIG1        0.1453
      8 C           1.0290   -3.1040    0.0000 C.ar    1  LIG1        0.0375
      9 C           1.8420   -2.5250    0.0000 C.ar    1  LIG1        0.0031
     10 C           2.7580   -2.9420    0.0000 C.ar    1  LIG1        0.0002
     11 C           2.8580   -3.9500    0.0000 C.ar    1  LIG1        0.0031
     12 C           2.0290   -4.5330    0.0000 C.ar    1  LIG1        0.0375
     13 C          -1.4710   -3.7290    0.0000 C.ar    1  LIG1        0.0388
     14 C          -1.9580   -2.8630    0.0000 C.ar    1  LIG1        0.0200
     15 N          -2.3380   -0.2290    0.0000 N.pl3   1  LIG1       -0.5358
     16 C          -1.7500    0.5880    0.0000 C.ar    1  LIG1       -0.1122
     17 C          -2.1580    1.5000    0.0000 C.ar    1  LIG1       -0.0223
     18 C          -1.5750    2.3040    0.0000 C.ar    1  LIG1        0.0173
     19 C          -0.5830    2.2000    0.0000 C.ar    1  LIG1        0.0827
     20 N           0.0040    3.0040    0.0000 N.ar    1  LIG1       -0.2285
     21 N           1.0000    3.0040    0.0000 N.ar    1  LIG1       -0.1694
     22 C           1.3130    3.9500    0.0000 C.ar    1  LIG1        0.0809
     23 C           0.5040    4.5330    0.0000 C.ar    1  LIG1        0.0371
     24 C          -0.3000    3.9500    0.0000 C.ar    1  LIG1        0.1016
     25 C           2.2580    4.2500    0.0000 C.3     1  LIG1        0.0540
     26 C          -0.1750    1.3000    0.0000 C.ar    1  LIG1        0.0173
     27 C          -0.7500    0.4880    0.0000 C.ar    1  LIG1       -0.0223
     28 O          -1.0460   -0.7500    0.0000 O.2     1  LIG1       -0.1842
     29 O          -2.8630   -1.5670    0.0000 O.2     1  LIG1       -0.1842
@<TRIPOS>BOND
     1     1     2    1
     2     1    15    1
     3     1    28    2
     4     1    29    2
     5     2     3   ar
     6     2    14   ar
     7     3     4   ar
     8     4     5   ar
     9     4     8   ar
    10     5     6   ar
    11     5    13   ar
    12     6     7   ar
    13     7     8   ar
    14     7    12   ar
    15     8     9   ar
    16     9    10   ar
    17    10    11   ar
    18    11    12   ar
    19    13    14   ar
    20    15    16    1
    21    16    17   ar
    22    16    27   ar
    23    17    18   ar
    24    18    19   ar
    25    19    20    1
    26    19    26   ar
    27    20    21   ar
    28    20    24   ar
    29    21    22   ar
    30    22    23   ar
    31    22    25    1
    32    23    24   ar
    33    26    27   ar
