@<TRIPOS>MOLECULE
35177_ChemDiv_8017-3871
 33 38 0 0 0
SMALL
GASTEIGER
Energy = 0

@<TRIPOS>ATOM
      1 C          -3.3920    2.4080    0.0000 C.3     1  LIG1        0.0512
      2 C          -2.3920    2.4540    0.0000 C.ar    1  LIG1        0.1222
      3 O          -1.7670    1.6670    0.0000 O.2     1  LIG1       -0.4531
      4 C          -0.8290    2.0170    0.0000 C.ar    1  LIG1        0.1999
      5 C           0.0040    1.4540    0.0000 C.2     1  LIG1        0.3037
      6 N           0.9040    1.8920    0.0000 N.am    1  LIG1       -0.1728
      7 C           1.7290    1.3420    0.0000 C.ar    1  LIG1        0.0738
      8 C           2.6960    1.6040    0.0000 C.ar    1  LIG1        0.0168
      9 C           3.4040    0.9080    0.0000 C.ar    1  LIG1        0.0059
     10 C           3.1540   -0.0580    0.0000 C.ar    1  LIG1        0.0551
     11 C           3.8670   -0.7540    0.0000 C.2     1  LIG1        0.2649
     12 N           4.8290   -0.4920    0.0000 N.am    1  LIG1       -0.1991
     13 C           5.5420   -1.1960    0.0000 C.3     1  LIG1        0.1448
     14 C           5.2920   -2.1540    0.0000 C.3     1  LIG1        0.1369
     15 O           5.9380   -2.9290    0.0000 O.3     1  LIG1       -0.3544
     16 C           5.4000   -3.7750    0.0000 C.3     1  LIG1        0.1422
     17 C           4.4290   -3.5250    0.0000 C.3     1  LIG1        0.0346
     18 C           4.3670   -2.5250    0.0000 C.3     1  LIG1        0.0340
     19 O           3.6170   -1.7250    0.0000 O.2     1  LIG1       -0.2684
     20 C           2.1880   -0.3170    0.0000 C.ar    1  LIG1        0.0059
     21 C           1.4790    0.3790    0.0000 C.ar    1  LIG1        0.0168
     22 O          -0.0580    0.4580    0.0000 O.2     1  LIG1       -0.2646
     23 C          -0.8710    3.0170    0.0000 C.ar    1  LIG1        0.0450
     24 C          -1.8420    3.2790    0.0000 C.ar    1  LIG1        0.0362
     25 C          -3.3830    3.4040    0.0000 C.3     1  LIG1        0.0071
     26 C          -4.2920    3.7790    0.0000 C.3     1  LIG1        0.0004
     27 C          -5.1670    3.4670    0.0000 C.3     1  LIG1        0.0000
     28 C          -5.1580    2.5040    0.0000 C.3     1  LIG1        0.0004
     29 C          -4.2960    2.1830    0.0000 C.3     1  LIG1        0.0071
     30 C          -5.9420    1.6710    0.0000 C.3     1  LIG1        0.0000
     31 C          -4.9670    1.9500    0.0000 C.3     1  LIG1        0.0004
     32 C          -4.0540    1.5790    0.0000 C.3     1  LIG1        0.0071
     33 C          -4.9670    2.9750    0.0000 C.3     1  LIG1        0.0000
@<TRIPOS>BOND
     1     1     2    1
     2     1    25    1
     3     1    29    1
     4     1    32    1
     5     2     3   ar
     6     2    24   ar
     7     3     4   ar
     8     4     5    1
     9     4    23   ar
    10     5     6   am
    11     5    22    2
    12     6     7    1
    13     7     8   ar
    14     7    21   ar
    15     8     9   ar
    16     9    10   ar
    17    10    11    1
    18    10    20   ar
    19    11    12   am
    20    11    19    2
    21    12    13    1
    22    13    14    1
    23    14    15    1
    24    14    18    1
    25    15    16    1
    26    16    17    1
    27    17    18    1
    28    20    21   ar
    29    23    24   ar
    30    25    26    1
    31    26    27    1
    32    26    33    1
    33    27    28    1
    34    28    29    1
    35    28    30    1
    36    30    31    1
    37    31    32    1
    38    31    33    1
