@<TRIPOS>MOLECULE
35179_ChemDiv_8017-3883
 25 28 0 0 0
SMALL
GASTEIGER
Energy = 0

@<TRIPOS>ATOM
      1 S           1.7210   -0.8130    0.0000 S.O2    1  LIG1        0.0768
      2 N           2.7170   -0.7920    0.0000 N.pl3   1  LIG1       -0.1838
      3 C           3.1920    0.0830    0.0000 C.ar    1  LIG1        0.1028
      4 C           4.1880    0.1000    0.0000 C.ar    1  LIG1        0.1533
      5 O           4.7170   -0.7420    0.0000 O.3     1  LIG1       -0.4723
      6 C           4.2330   -1.6170    0.0000 C.3     1  LIG1        0.2287
      7 C           3.2460   -1.6420    0.0000 C.3     1  LIG1        0.1631
      8 C           4.6670    0.9710    0.0000 C.ar    1  LIG1        0.0382
      9 C           4.1540    1.8210    0.0000 C.ar    1  LIG1        0.0032
     10 C           3.1500    1.8000    0.0000 C.ar    1  LIG1        0.0015
     11 C           2.6790    0.9330    0.0000 C.ar    1  LIG1        0.0192
     12 C           0.7170   -0.8290    0.0000 C.ar    1  LIG1        0.1254
     13 C           0.2380   -1.7130    0.0000 C.ar    1  LIG1        0.0199
     14 C          -0.7710   -1.7290    0.0000 C.ar    1  LIG1       -0.0028
     15 C          -1.2960   -0.8670    0.0000 C.ar    1  LIG1       -0.0202
     16 C          -2.2960   -0.8790    0.0000 C.3     1  LIG1        0.0532
     17 C          -2.8920   -0.0790    0.0000 C.3     1  LIG1        0.0929
     18 C          -3.8460   -0.4040    0.0000 C.2     1  LIG1        0.2418
     19 N          -3.8250   -1.4040    0.0000 N.am    1  LIG1       -0.2051
     20 C          -2.8710   -1.7000    0.0000 C.3     1  LIG1        0.1199
     21 O          -4.7210    0.0960    0.0000 O.2     1  LIG1       -0.2733
     22 C          -0.8000    0.0130    0.0000 C.ar    1  LIG1       -0.0028
     23 C           0.2040    0.0330    0.0000 C.ar    1  LIG1        0.0199
     24 O           1.7040    0.1880    0.0000 O.2     1  LIG1       -0.1497
     25 O           1.7290   -1.8170    0.0000 O.2     1  LIG1       -0.1497
@<TRIPOS>BOND
     1     1     2    1
     2     1    12    1
     3     1    24    2
     4     1    25    2
     5     2     3    1
     6     2     7    1
     7     3     4   ar
     8     3    11   ar
     9     4     5    1
    10     4     8   ar
    11     5     6    1
    12     6     7    1
    13     8     9   ar
    14     9    10   ar
    15    10    11   ar
    16    12    13   ar
    17    12    23   ar
    18    13    14   ar
    19    14    15   ar
    20    15    16    1
    21    15    22   ar
    22    16    17    1
    23    16    20    1
    24    17    18    1
    25    18    19   am
    26    18    21    2
    27    19    20    1
    28    22    23   ar
