@<TRIPOS>MOLECULE
35171_ChemDiv_8017-3839
 15 17 0 0 0
SMALL
GASTEIGER
Energy = 0

@<TRIPOS>ATOM
      1 C           0.8790    0.3080    0.0000 C.ar    1  LIG1        0.0495
      2 C           0.8790   -0.6420    0.0000 C.ar    1  LIG1        0.1297
      3 N           0.0540   -1.1170    0.0000 N.ar    1  LIG1       -0.2420
      4 C          -0.7580   -0.6420    0.0000 C.ar    1  LIG1        0.0556
      5 C          -0.7580    0.3080    0.0000 C.ar    1  LIG1       -0.0085
      6 C           0.0540    0.7750    0.0000 C.ar    1  LIG1        0.0010
      7 C          -1.5830    0.7750    0.0000 C.3     1  LIG1        0.0276
      8 C          -2.5250    0.7750    0.0000 C.3     1  LIG1        0.0047
      9 C          -2.9960   -0.0420    0.0000 C.3     1  LIG1        0.0007
     10 C          -2.5250   -1.1170    0.0000 C.3     1  LIG1        0.0063
     11 C          -1.5830   -1.1170    0.0000 C.3     1  LIG1        0.0455
     12 S           1.7000   -1.1170    0.0000 S.2     1  LIG1        0.0329
     13 N           2.5170   -0.6420    0.0000 N.ar    1  LIG1       -0.2009
     14 C           2.5170    0.3080    0.0000 C.ar    1  LIG1        0.1251
     15 BR          2.9920    1.1210    0.0000 Br      1  LIG1       -0.0273
@<TRIPOS>BOND
     1     1     2   ar
     2     1     6   ar
     3     1    14   ar
     4     2     3   ar
     5     2    12   ar
     6     3     4   ar
     7     4     5   ar
     8     4    11    1
     9     5     6   ar
    10     5     7    1
    11     7     8    1
    12     8     9    1
    13     9    10    1
    14    10    11    1
    15    12    13   ar
    16    13    14   ar
    17    14    15    1
