@<TRIPOS>MOLECULE
35187_ChemDiv_8017-9195
 24 26 0 0 0
SMALL
GASTEIGER
Energy = 0

@<TRIPOS>ATOM
      1 C           1.2790    2.0130    0.0000 C.2     1  LIG1        0.3435
      2 N           2.1540    1.5170    0.0000 N.am    1  LIG1       -0.1610
      3 C           2.1670    0.5170    0.0000 C.ar    1  LIG1        0.0750
      4 C           3.0290    0.0170    0.0000 C.ar    1  LIG1        0.0166
      5 C           3.0420   -0.9710    0.0000 C.ar    1  LIG1        0.0013
      6 C           2.1880   -1.4790    0.0000 C.ar    1  LIG1        0.0001
      7 C           1.3130   -0.9830    0.0000 C.ar    1  LIG1        0.0013
      8 C           1.3040    0.0080    0.0000 C.ar    1  LIG1        0.0166
      9 N           0.4170    1.5040    0.0000 N.am    1  LIG1       -0.1866
     10 C           0.4250    0.4960    0.0000 C.3     1  LIG1        0.1212
     11 C          -0.4330   -0.0080    0.0000 C.3     1  LIG1        0.0505
     12 C          -1.3000   -0.5080    0.0000 C.3     1  LIG1        0.0687
     13 C          -1.3000   -1.5170    0.0000 C.3     1  LIG1        0.1392
     14 N          -0.4330   -2.0080    0.0000 N.4     1  LIG1        0.3820
     15 C           0.4290   -1.5170    0.0000 C.3     1  LIG1        0.1392
     16 C           0.4290   -0.5080    0.0000 C.3     1  LIG1        0.0687
     17 C          -0.4330   -3.0080    0.0000 C.3     1  LIG1        0.2022
     18 C          -1.3080    0.4920    0.0000 C.ar    1  LIG1       -0.0207
     19 C          -2.1710   -0.0080    0.0000 C.ar    1  LIG1       -0.0042
     20 C          -3.0380    0.4790    0.0000 C.ar    1  LIG1       -0.0003
     21 C          -3.0460    1.4830    0.0000 C.ar    1  LIG1       -0.0000
     22 C          -2.1830    1.9920    0.0000 C.ar    1  LIG1       -0.0003
     23 C          -1.3130    1.4960    0.0000 C.ar    1  LIG1       -0.0042
     24 O           1.2750    3.0130    0.0000 O.2     1  LIG1       -0.2488
@<TRIPOS>BOND
     1     1     2   am
     2     1     9   am
     3     1    24    2
     4     2     3    1
     5     3     4   ar
     6     3     8   ar
     7     4     5   ar
     8     5     6   ar
     9     6     7   ar
    10     7     8   ar
    11     9    10    1
    12    10    11    1
    13    11    12    1
    14    11    16    1
    15    11    18    1
    16    12    13    1
    17    13    14    1
    18    14    15    1
    19    14    17    1
    20    15    16    1
    21    18    19   ar
    22    18    23   ar
    23    19    20   ar
    24    20    21   ar
    25    21    22   ar
    26    22    23   ar
