@<TRIPOS>MOLECULE
35185_ChemDiv_8017-9192
 31 34 0 0 0
SMALL
GASTEIGER
Energy = 0

@<TRIPOS>ATOM
      1 S           0.4630   -0.5040    0.0000 S.O2    1  LIG1       -0.0578
      2 N          -0.4000   -1.0040    0.0000 N.pl3   1  LIG1       -0.5357
      3 C          -1.2710   -0.5040    0.0000 C.ar    1  LIG1       -0.1095
      4 C          -2.1330   -1.0040    0.0000 C.ar    1  LIG1        0.0130
      5 C          -2.1330   -2.0040    0.0000 C.2     1  LIG1        0.1757
      6 C          -2.9960   -2.5040    0.0000 C.3     1  LIG1        0.0953
      7 C          -3.8580   -2.0040    0.0000 C.ar    1  LIG1       -0.0145
      8 C          -4.7210   -2.5040    0.0000 C.ar    1  LIG1       -0.0038
      9 C          -5.5830   -2.0040    0.0000 C.ar    1  LIG1       -0.0003
     10 C          -5.5830   -1.0040    0.0000 C.ar    1  LIG1       -0.0000
     11 C          -4.7210   -0.5040    0.0000 C.ar    1  LIG1       -0.0003
     12 C          -3.8580   -1.0040    0.0000 C.ar    1  LIG1       -0.0038
     13 O          -1.2710   -2.5040    0.0000 O.2     1  LIG1       -0.2910
     14 C          -2.9960   -0.5040    0.0000 C.ar    1  LIG1        0.0010
     15 C          -2.9960    0.4880    0.0000 C.ar    1  LIG1       -0.0000
     16 C          -2.1330    0.9880    0.0000 C.ar    1  LIG1       -0.0019
     17 C          -1.2710    0.4880    0.0000 C.ar    1  LIG1       -0.0238
     18 C           1.3290   -0.0040    0.0000 C.ar    1  LIG1        0.0894
     19 C           1.3290    0.9880    0.0000 C.ar    1  LIG1        0.0182
     20 C           2.1920    1.4880    0.0000 C.ar    1  LIG1        0.0162
     21 C           3.0540    0.9880    0.0000 C.ar    1  LIG1        0.0539
     22 N           3.9630    1.5580    0.0000 N.am    1  LIG1       -0.2586
     23 C           4.7670    0.9710    0.0000 C.2     1  LIG1        0.2294
     24 O           4.7670   -0.0290    0.0000 O.2     1  LIG1       -0.2745
     25 C           5.5790    1.5580    0.0000 C.3     1  LIG1        0.0874
     26 C           5.2670    2.5080    0.0000 C.3     1  LIG1        0.0315
     27 C           4.2670    2.5080    0.0000 C.3     1  LIG1        0.0987
     28 C           3.0540   -0.0130    0.0000 C.ar    1  LIG1        0.0162
     29 C           2.1920   -0.5040    0.0000 C.ar    1  LIG1        0.0182
     30 O          -0.0330    0.3580    0.0000 O.2     1  LIG1       -0.1842
     31 O           0.9630   -1.3750    0.0000 O.2     1  LIG1       -0.1842
@<TRIPOS>BOND
     1     1     2    1
     2     1    18    1
     3     1    30    2
     4     1    31    2
     5     2     3    1
     6     3     4   ar
     7     3    17   ar
     8     4     5    1
     9     4    14   ar
    10     5     6    1
    11     5    13    2
    12     6     7    1
    13     7     8   ar
    14     7    12   ar
    15     8     9   ar
    16     9    10   ar
    17    10    11   ar
    18    11    12   ar
    19    14    15   ar
    20    15    16   ar
    21    16    17   ar
    22    18    19   ar
    23    18    29   ar
    24    19    20   ar
    25    20    21   ar
    26    21    22    1
    27    21    28   ar
    28    22    23   am
    29    22    27    1
    30    23    24    2
    31    23    25    1
    32    25    26    1
    33    26    27    1
    34    28    29   ar
