@<TRIPOS>MOLECULE
35181_ChemDiv_8017-3934
 30 34 0 0 0
SMALL
GASTEIGER
Energy = 0

@<TRIPOS>ATOM
      1 N          -3.6630    1.0460    0.0000 N.am    1  LIG1       -0.2729
      2 C          -3.0880    0.2460    0.0000 C.3     1  LIG1        0.1539
      3 C          -3.4080   -0.7080    0.0000 C.2     1  LIG1        0.2636
      4 N          -2.7460   -1.4500    0.0000 N.am    1  LIG1       -0.1778
      5 C          -1.7630   -1.2420    0.0000 C.ar    1  LIG1        0.0734
      6 C          -1.4460   -0.3040    0.0000 C.ar    1  LIG1        0.0167
      7 C          -0.4710   -0.1080    0.0000 C.ar    1  LIG1        0.0059
      8 C           0.2000   -0.8540    0.0000 C.ar    1  LIG1        0.0551
      9 C           1.1880   -0.6670    0.0000 C.2     1  LIG1        0.2647
     10 N           1.5040    0.2830    0.0000 N.am    1  LIG1       -0.2051
     11 C           2.4880    0.4790    0.0000 C.3     1  LIG1        0.0789
     12 C           3.5380    0.3790    0.0000 C.3     1  LIG1        0.0200
     13 C           4.3790    0.9710    0.0000 C.3     1  LIG1        0.0017
     14 C           4.1630    1.9330    0.0000 C.3     1  LIG1        0.0001
     15 C           3.1040    2.0040    0.0000 C.3     1  LIG1        0.0017
     16 C           2.2790    1.4420    0.0000 C.3     1  LIG1        0.0200
     17 C           3.8040    1.3790    0.0000 C.3     1  LIG1        0.0001
     18 C           4.0370    0.4920    0.0000 C.3     1  LIG1        0.0017
     19 C           3.2420   -0.0670    0.0000 C.3     1  LIG1        0.0200
     20 C           5.1670    0.3290    0.0000 C.3     1  LIG1        0.0001
     21 O           1.8420   -1.4130    0.0000 O.2     1  LIG1       -0.2684
     22 C          -0.1210   -1.8040    0.0000 C.ar    1  LIG1        0.0059
     23 C          -1.1000   -2.0000    0.0000 C.ar    1  LIG1        0.0167
     24 O          -4.3830   -0.9080    0.0000 O.2     1  LIG1       -0.2712
     25 C          -2.1460    0.5460    0.0000 C.3     1  LIG1        0.0310
     26 C          -2.1330    1.5330    0.0000 C.3     1  LIG1        0.0237
     27 C          -3.0750    1.8540    0.0000 C.3     1  LIG1        0.0939
     28 C          -4.6630    1.0540    0.0000 C.2     1  LIG1        0.2264
     29 O          -5.1580    1.9170    0.0000 O.2     1  LIG1       -0.2748
     30 C          -5.1710    0.1830    0.0000 C.3     1  LIG1        0.0948
@<TRIPOS>BOND
     1     1     2    1
     2     1    27    1
     3     1    28   am
     4     2     3    1
     5     2    25    1
     6     3     4   am
     7     3    24    2
     8     4     5    1
     9     5     6   ar
    10     5    23   ar
    11     6     7   ar
    12     7     8   ar
    13     8     9    1
    14     8    22   ar
    15     9    10   am
    16     9    21    2
    17    10    11    1
    18    11    12    1
    19    11    16    1
    20    11    19    1
    21    12    13    1
    22    13    14    1
    23    13    20    1
    24    14    15    1
    25    15    16    1
    26    15    17    1
    27    17    18    1
    28    18    19    1
    29    18    20    1
    30    22    23   ar
    31    25    26    1
    32    26    27    1
    33    28    29    2
    34    28    30    1
