@<TRIPOS>MOLECULE
35189_ChemDiv_C270-0401
 27 29 0 0 0
SMALL
GASTEIGER
Energy = 0

@<TRIPOS>ATOM
      1 C          -2.1960   -1.7250    0.0000 C.2     1  LIG1        0.3435
      2 N          -3.0540   -1.1960    0.0000 N.am    1  LIG1       -0.1613
      3 C          -3.9330   -1.6790    0.0000 C.ar    1  LIG1        0.0710
      4 C          -4.7790   -1.1500    0.0000 C.ar    1  LIG1       -0.0065
      5 C          -4.7540   -0.1630    0.0000 C.3     1  LIG1        0.0324
      6 C          -5.6580   -1.6330    0.0000 C.ar    1  LIG1       -0.0030
      7 C          -5.6790   -2.6330    0.0000 C.ar    1  LIG1       -0.0002
      8 C          -4.8250   -3.1460    0.0000 C.ar    1  LIG1        0.0013
      9 C          -3.9460   -2.6750    0.0000 C.ar    1  LIG1        0.0163
     10 O          -2.2250   -2.7250    0.0000 O.2     1  LIG1       -0.2488
     11 N          -1.3290   -1.2420    0.0000 N.am    1  LIG1       -0.1867
     12 C          -0.4670   -1.7540    0.0000 C.3     1  LIG1        0.1230
     13 C           0.4080   -1.2710    0.0000 C.3     1  LIG1        0.0861
     14 C           1.2710   -1.7880    0.0000 C.3     1  LIG1        0.1404
     15 N           2.1500   -1.3000    0.0000 N.4     1  LIG1        0.3773
     16 C           2.1630   -0.3040    0.0000 C.3     1  LIG1        0.1386
     17 C           3.0420    0.1790    0.0000 C.3     1  LIG1        0.0632
     18 C           3.9000   -0.3330    0.0000 C.3     1  LIG1        0.0162
     19 C           4.7790    0.1500    0.0000 C.3     1  LIG1        0.0268
     20 C           4.7920    1.1540    0.0000 C.ar    1  LIG1       -0.0222
     21 C           3.9330    1.6540    0.0000 C.ar    1  LIG1       -0.0043
     22 C           3.9420    2.6580    0.0000 C.ar    1  LIG1       -0.0003
     23 C           4.8130    3.1500    0.0000 C.ar    1  LIG1       -0.0000
     24 C           5.6750    2.6380    0.0000 C.ar    1  LIG1       -0.0003
     25 C           5.6670    1.6380    0.0000 C.ar    1  LIG1       -0.0043
     26 C           3.8880   -1.3330    0.0000 C.3     1  LIG1        0.0632
     27 C           3.0040   -1.8170    0.0000 C.3     1  LIG1        0.1386
@<TRIPOS>BOND
     1     1     2   am
     2     1    10    2
     3     1    11   am
     4     2     3    1
     5     3     4   ar
     6     3     9   ar
     7     4     5    1
     8     4     6   ar
     9     6     7   ar
    10     7     8   ar
    11     8     9   ar
    12    11    12    1
    13    12    13    1
    14    13    14    1
    15    14    15    1
    16    15    16    1
    17    15    27    1
    18    16    17    1
    19    17    18    1
    20    18    19    1
    21    18    26    1
    22    19    20    1
    23    20    21   ar
    24    20    25   ar
    25    21    22   ar
    26    22    23   ar
    27    23    24   ar
    28    24    25   ar
    29    26    27    1
