@<TRIPOS>MOLECULE
35188_ChemDiv_A0062466
 27 30 0 0 0
SMALL
GASTEIGER
Energy = 0

@<TRIPOS>ATOM
      1 N          -1.3130   -0.4040    0.0000 N.ar    1  LIG1       -0.2538
      2 C          -1.3130    0.5920    0.0000 C.ar    1  LIG1        0.1776
      3 N          -2.1750    1.0920    0.0000 N.ar    1  LIG1       -0.2260
      4 C          -3.0380    0.5920    0.0000 C.ar    1  LIG1        0.0722
      5 C          -3.0380   -0.4040    0.0000 C.ar    1  LIG1        0.0955
      6 C          -2.1750   -0.9040    0.0000 C.ar    1  LIG1        0.2729
      7 O          -2.1750   -1.9040    0.0000 O.2     1  LIG1       -0.2660
      8 S          -3.9880   -0.7170    0.0000 S.3     1  LIG1       -0.1075
      9 C          -4.5670    0.0920    0.0000 C.3     1  LIG1        0.0687
     10 C          -3.9880    0.8960    0.0000 C.3     1  LIG1        0.0585
     11 S          -0.4380    1.0960    0.0000 S.3     1  LIG1       -0.0670
     12 C           0.4380    0.5960    0.0000 C.3     1  LIG1        0.1520
     13 C           1.3000    1.1040    0.0000 C.2     1  LIG1        0.2587
     14 N           2.1670    0.6080    0.0000 N.am    1  LIG1       -0.1535
     15 C           3.0250    1.1040    0.0000 C.ar    1  LIG1        0.1859
     16 N           3.9790    0.8040    0.0000 N.ar    1  LIG1       -0.2209
     17 C           4.5630    1.6080    0.0000 C.ar    1  LIG1        0.1079
     18 C           3.9790    2.4210    0.0000 C.ar    1  LIG1        0.0588
     19 S           3.0250    2.1080    0.0000 S.2     1  LIG1       -0.0491
     20 O           1.2880    2.1040    0.0000 O.2     1  LIG1       -0.2720
     21 C          -0.4420   -0.9040    0.0000 C.ar    1  LIG1        0.0687
     22 C          -0.4420   -1.9130    0.0000 C.ar    1  LIG1        0.0182
     23 C           0.4210   -2.4130    0.0000 C.ar    1  LIG1        0.0082
     24 C           1.2880   -1.9130    0.0000 C.ar    1  LIG1        0.0347
     25 C           1.2880   -0.9040    0.0000 C.ar    1  LIG1        0.0082
     26 C           0.4250   -0.4040    0.0000 C.ar    1  LIG1        0.0182
     27 BR          2.1670   -2.4170    0.0000 Br      1  LIG1       -0.0490
@<TRIPOS>BOND
     1     1     2   ar
     2     1     6   ar
     3     1    21    1
     4     2     3   ar
     5     2    11    1
     6     3     4   ar
     7     4     5   ar
     8     4    10    1
     9     5     6   ar
    10     5     8    1
    11     6     7    2
    12     8     9    1
    13     9    10    1
    14    11    12    1
    15    12    13    1
    16    13    14   am
    17    13    20    2
    18    14    15    1
    19    15    16   ar
    20    15    19   ar
    21    16    17   ar
    22    17    18   ar
    23    18    19   ar
    24    21    22   ar
    25    21    26   ar
    26    22    23   ar
    27    23    24   ar
    28    24    25   ar
    29    24    27    1
    30    25    26   ar
