@<TRIPOS>MOLECULE
35183_ChemDiv_8017-3985
 14 15 0 0 0
SMALL
GASTEIGER
Energy = 0

@<TRIPOS>ATOM
      1 N          -0.7580   -0.3330    0.0000 N.ar    1  LIG1       -0.1860
      2 C           0.0540   -0.9210    0.0000 C.ar    1  LIG1        0.1499
      3 S          -0.2580   -1.8710    0.0000 S.2     1  LIG1       -0.0447
      4 C          -1.2580   -1.8710    0.0000 C.ar    1  LIG1        0.1102
      5 N          -1.5630   -0.9210    0.0000 N.ar    1  LIG1       -0.1615
      6 C          -1.8460   -2.6790    0.0000 C.3     1  LIG1        0.0613
      7 S           1.0040   -0.6170    0.0000 S.2     1  LIG1       -0.0231
      8 C          -0.7580    0.6710    0.0000 C.3     1  LIG1        0.2763
      9 N           0.1130    1.1710    0.0000 N.4     1  LIG1        0.4007
     10 C           0.1040    2.1710    0.0000 C.3     1  LIG1        0.1742
     11 C           0.9630    2.6830    0.0000 C.3     1  LIG1        0.2048
     12 O           1.8290    2.1830    0.0000 O.3     1  LIG1       -0.3411
     13 C           1.8420    1.1830    0.0000 C.3     1  LIG1        0.2048
     14 C           0.9790    0.6830    0.0000 C.3     1  LIG1        0.1742
@<TRIPOS>BOND
     1     1     2   ar
     2     1     5   ar
     3     1     8    1
     4     2     3   ar
     5     2     7    2
     6     3     4   ar
     7     4     5   ar
     8     4     6    1
     9     8     9    1
    10     9    10    1
    11     9    14    1
    12    10    11    1
    13    11    12    1
    14    12    13    1
    15    13    14    1
