@<TRIPOS>MOLECULE
35193_ChemDiv_D012-0527
 24 26 0 0 0
SMALL
GASTEIGER
Energy = 0

@<TRIPOS>ATOM
      1 C           0.4330    0.2580    0.0000 C.2     1  LIG1        0.3275
      2 N          -0.4330   -0.2420    0.0000 N.am    1  LIG1       -0.2626
      3 C          -0.4330   -1.2460    0.0000 C.3     1  LIG1        0.0950
      4 C          -1.2960   -1.7460    0.0000 C.3     1  LIG1        0.0219
      5 C          -2.1630   -1.2460    0.0000 C.3     1  LIG1        0.0078
      6 C          -3.0250   -1.7460    0.0000 C.3     1  LIG1        0.0265
      7 C          -3.8920   -1.2460    0.0000 C.ar    1  LIG1       -0.0222
      8 C          -3.8920   -0.2420    0.0000 C.ar    1  LIG1       -0.0043
      9 C          -4.7540    0.2460    0.0000 C.ar    1  LIG1       -0.0003
     10 C          -5.6250   -0.2540    0.0000 C.ar    1  LIG1       -0.0000
     11 C          -5.6210   -1.2580    0.0000 C.ar    1  LIG1       -0.0003
     12 C          -4.7540   -1.7540    0.0000 C.ar    1  LIG1       -0.0043
     13 C          -2.1630   -0.2420    0.0000 C.3     1  LIG1        0.0219
     14 C          -1.2960    0.2580    0.0000 C.3     1  LIG1        0.0950
     15 N           1.2960   -0.2540    0.0000 N.am    1  LIG1       -0.1621
     16 C           2.1630    0.2580    0.0000 C.ar    1  LIG1        0.0779
     17 C           3.0250   -0.2420    0.0000 C.ar    1  LIG1        0.0535
     18 C           3.8920    0.2630    0.0000 C.ar    1  LIG1        0.1400
     19 O           4.7540   -0.2290    0.0000 O.3     1  LIG1       -0.4714
     20 C           5.6210    0.2710    0.0000 C.3     1  LIG1        0.2525
     21 C           3.8880    1.2630    0.0000 C.ar    1  LIG1        0.0370
     22 C           3.0130    1.7580    0.0000 C.ar    1  LIG1        0.0044
     23 C           2.1580    1.2500    0.0000 C.ar    1  LIG1        0.0169
     24 O           0.4420    1.2580    0.0000 O.2     1  LIG1       -0.2504
@<TRIPOS>BOND
     1     1     2   am
     2     1    15   am
     3     1    24    2
     4     2     3    1
     5     2    14    1
     6     3     4    1
     7     4     5    1
     8     5     6    1
     9     5    13    1
    10     6     7    1
    11     7     8   ar
    12     7    12   ar
    13     8     9   ar
    14     9    10   ar
    15    10    11   ar
    16    11    12   ar
    17    13    14    1
    18    15    16    1
    19    16    17   ar
    20    16    23   ar
    21    17    18   ar
    22    18    19    1
    23    18    21   ar
    24    19    20    1
    25    21    22   ar
    26    22    23   ar
