@<TRIPOS>MOLECULE
35197_ChemDiv_8017-9404
 12 12 0 0 0
SMALL
GASTEIGER
Energy = 0

@<TRIPOS>ATOM
      1 C           1.0000   -0.8630    0.0000 C.1     1  LIG1       -0.0466
      2 C           0.0000   -0.8630    0.0000 C.1     1  LIG1       -0.0564
      3 C          -0.5000    0.0000    0.0000 C.3     1  LIG1        0.1794
      4 O          -0.0080    0.8670    0.0000 O.3     1  LIG1       -0.2125
      5 C          -1.0000   -0.8630    0.0000 C.3     1  LIG1        0.0430
      6 C          -2.0000   -0.8630    0.0000 C.3     1  LIG1        0.0036
      7 C          -2.5000    0.0000    0.0000 C.3     1  LIG1        0.0002
      8 C          -2.0080    0.8670    0.0000 C.3     1  LIG1        0.0036
      9 C          -1.0080    0.8670    0.0000 C.3     1  LIG1        0.0430
     10 C           1.5000    0.0000    0.0000 C.2     1  LIG1        0.1161
     11 O           1.0000    0.8670    0.0000 O.co2   1  LIG1       -0.5366
     12 O           2.5000    0.0000    0.0000 O.co2   1  LIG1       -0.5366
@<TRIPOS>BOND
     1     1     2    3
     2     1    10    1
     3     2     3    1
     4     3     4    1
     5     3     5    1
     6     3     9    1
     7     5     6    1
     8     6     7    1
     9     7     8    1
    10     8     9    1
    11    10    11   ar
    12    10    12   ar
