@<TRIPOS>MOLECULE
35191_ChemDiv_D012-0526
 26 29 0 0 0
SMALL
GASTEIGER
Energy = 0

@<TRIPOS>ATOM
      1 C           0.8710    0.2540    0.0000 C.2     1  LIG1        0.3275
      2 N           0.0000   -0.2460    0.0000 N.am    1  LIG1       -0.2626
      3 C          -0.8670    0.2670    0.0000 C.3     1  LIG1        0.0950
      4 C          -1.7250   -0.2460    0.0000 C.3     1  LIG1        0.0219
      5 C          -1.7250   -1.2500    0.0000 C.3     1  LIG1        0.0078
      6 C          -2.5960   -1.7500    0.0000 C.3     1  LIG1        0.0265
      7 C          -3.4630   -1.2500    0.0000 C.ar    1  LIG1       -0.0222
      8 C          -4.3290   -1.7540    0.0000 C.ar    1  LIG1       -0.0043
      9 C          -5.1960   -1.2540    0.0000 C.ar    1  LIG1       -0.0003
     10 C          -5.2080   -0.2500    0.0000 C.ar    1  LIG1       -0.0000
     11 C          -4.3290    0.2500    0.0000 C.ar    1  LIG1       -0.0003
     12 C          -3.4630   -0.2460    0.0000 C.ar    1  LIG1       -0.0043
     13 C          -0.8670   -1.7420    0.0000 C.3     1  LIG1        0.0219
     14 C           0.0000   -1.2500    0.0000 C.3     1  LIG1        0.0950
     15 N           1.7380   -0.2500    0.0000 N.am    1  LIG1       -0.1622
     16 C           2.6040    0.2540    0.0000 C.ar    1  LIG1        0.0749
     17 C           3.4710   -0.2380    0.0000 C.ar    1  LIG1        0.0154
     18 C           4.3290    0.2670    0.0000 C.ar    1  LIG1        0.0013
     19 C           4.3210    1.2670    0.0000 C.ar    1  LIG1        0.0001
     20 C           3.4500    1.7580    0.0000 C.ar    1  LIG1        0.0013
     21 C           2.5880    1.2540    0.0000 C.ar    1  LIG1        0.0166
     22 C           5.1960   -0.2210    0.0000 C.ar    1  LIG1        0.0000
     23 C           5.2040   -1.2080    0.0000 C.ar    1  LIG1        0.0000
     24 C           4.3460   -1.7250    0.0000 C.ar    1  LIG1        0.0000
     25 C           3.4790   -1.2250    0.0000 C.ar    1  LIG1        0.0013
     26 O           0.8710    1.2580    0.0000 O.2     1  LIG1       -0.2504
@<TRIPOS>BOND
     1     1     2   am
     2     1    15   am
     3     1    26    2
     4     2     3    1
     5     2    14    1
     6     3     4    1
     7     4     5    1
     8     5     6    1
     9     5    13    1
    10     6     7    1
    11     7     8   ar
    12     7    12   ar
    13     8     9   ar
    14     9    10   ar
    15    10    11   ar
    16    11    12   ar
    17    13    14    1
    18    15    16    1
    19    16    17   ar
    20    16    21   ar
    21    17    18   ar
    22    17    25   ar
    23    18    19   ar
    24    18    22   ar
    25    19    20   ar
    26    20    21   ar
    27    22    23   ar
    28    23    24   ar
    29    24    25   ar
