@<TRIPOS>MOLECULE
35198_ChemDiv_A0062552
 32 36 0 0 0
SMALL
GASTEIGER
Energy = 0

@<TRIPOS>ATOM
      1 N          -1.0790   -0.4000    0.0000 N.ar    1  LIG1       -0.2538
      2 C          -1.0790    0.5920    0.0000 C.ar    1  LIG1        0.1776
      3 N          -1.9500    1.1040    0.0000 N.ar    1  LIG1       -0.2260
      4 C          -2.8040    0.5920    0.0000 C.ar    1  LIG1        0.0722
      5 C          -2.8040   -0.4210    0.0000 C.ar    1  LIG1        0.0955
      6 C          -1.9500   -0.9080    0.0000 C.ar    1  LIG1        0.2729
      7 O          -1.9500   -1.9040    0.0000 O.2     1  LIG1       -0.2660
      8 S          -3.7540   -0.7000    0.0000 S.3     1  LIG1       -0.1075
      9 C          -4.3290    0.0830    0.0000 C.3     1  LIG1        0.0687
     10 C          -3.7540    0.8960    0.0000 C.3     1  LIG1        0.0585
     11 S          -0.1880    1.1040    0.0000 S.3     1  LIG1       -0.0671
     12 C          -0.1790    2.1210    0.0000 C.3     1  LIG1        0.1503
     13 C           0.6710    2.6080    0.0000 C.2     1  LIG1        0.2408
     14 N           1.5580    2.1210    0.0000 N.am    1  LIG1       -0.2579
     15 C           2.4080    2.6080    0.0000 C.ar    1  LIG1        0.0499
     16 C           3.1630    1.9460    0.0000 C.ar    1  LIG1       -0.0068
     17 C           2.7580    1.0460    0.0000 C.3     1  LIG1        0.0495
     18 C           1.7790    1.1330    0.0000 C.3     1  LIG1        0.1029
     19 C           4.1130    2.2460    0.0000 C.ar    1  LIG1       -0.0030
     20 C           4.3250    3.2330    0.0000 C.ar    1  LIG1       -0.0002
     21 C           3.5710    3.9130    0.0000 C.ar    1  LIG1        0.0013
     22 C           2.6210    3.5790    0.0000 C.ar    1  LIG1        0.0146
     23 O           0.6710    3.6250    0.0000 O.2     1  LIG1       -0.2736
     24 C          -0.2080   -0.9080    0.0000 C.ar    1  LIG1        0.0689
     25 C           0.6540   -0.4000    0.0000 C.ar    1  LIG1        0.0208
     26 C           1.5250   -0.9080    0.0000 C.ar    1  LIG1        0.0384
     27 C           1.5080   -1.9040    0.0000 C.ar    1  LIG1        0.1386
     28 C           0.6540   -2.4130    0.0000 C.ar    1  LIG1        0.0384
     29 C          -0.2170   -1.9040    0.0000 C.ar    1  LIG1        0.0208
     30 O           2.3790   -2.4130    0.0000 O.3     1  LIG1       -0.4755
     31 C           2.3670   -3.4040    0.0000 C.3     1  LIG1        0.2055
     32 C           3.2250   -3.9080    0.0000 C.3     1  LIG1        0.0512
@<TRIPOS>BOND
     1     1     2   ar
     2     1     6   ar
     3     1    24    1
     4     2     3   ar
     5     2    11    1
     6     3     4   ar
     7     4     5   ar
     8     4    10    1
     9     5     6   ar
    10     5     8    1
    11     6     7    2
    12     8     9    1
    13     9    10    1
    14    11    12    1
    15    12    13    1
    16    13    14   am
    17    13    23    2
    18    14    15    1
    19    14    18    1
    20    15    16   ar
    21    15    22   ar
    22    16    17    1
    23    16    19   ar
    24    17    18    1
    25    19    20   ar
    26    20    21   ar
    27    21    22   ar
    28    24    25   ar
    29    24    29   ar
    30    25    26   ar
    31    26    27   ar
    32    27    28   ar
    33    27    30    1
    34    28    29   ar
    35    30    31    1
    36    31    32    1
