@<TRIPOS>MOLECULE
35195_ChemDiv_D216-0400
 23 25 0 0 0
SMALL
GASTEIGER
Energy = 0

@<TRIPOS>ATOM
      1 C           0.0040    0.2250    0.0000 C.2     1  LIG1        0.3275
      2 N          -0.8580   -0.2710    0.0000 N.am    1  LIG1       -0.2623
      3 C          -1.7250    0.2380    0.0000 C.3     1  LIG1        0.0993
      4 C          -2.5880   -0.2630    0.0000 C.3     1  LIG1        0.0423
      5 C          -3.4500    0.2250    0.0000 C.ar    1  LIG1       -0.0208
      6 C          -4.3210   -0.2710    0.0000 C.ar    1  LIG1       -0.0042
      7 C          -5.1830    0.2250    0.0000 C.ar    1  LIG1       -0.0003
      8 C          -5.1830    1.2250    0.0000 C.ar    1  LIG1       -0.0000
      9 C          -4.3210    1.7330    0.0000 C.ar    1  LIG1       -0.0003
     10 C          -3.4500    1.2330    0.0000 C.ar    1  LIG1       -0.0042
     11 C          -2.5880   -1.2710    0.0000 C.3     1  LIG1        0.0078
     12 C          -1.7250   -1.7630    0.0000 C.3     1  LIG1        0.0219
     13 C          -0.8580   -1.2710    0.0000 C.3     1  LIG1        0.0950
     14 N           0.8670   -0.2710    0.0000 N.am    1  LIG1       -0.1622
     15 C           1.7290    0.2380    0.0000 C.ar    1  LIG1        0.0751
     16 C           2.6040   -0.2580    0.0000 C.ar    1  LIG1        0.0198
     17 C           3.4670    0.2500    0.0000 C.ar    1  LIG1        0.0382
     18 C           3.4540    1.2500    0.0000 C.ar    1  LIG1        0.1388
     19 C           2.5790    1.7380    0.0000 C.ar    1  LIG1        0.0382
     20 C           1.7170    1.2330    0.0000 C.ar    1  LIG1        0.0198
     21 O           4.3130    1.7630    0.0000 O.3     1  LIG1       -0.4714
     22 C           5.1790    1.2710    0.0000 C.3     1  LIG1        0.2525
     23 O           0.0040    1.2250    0.0000 O.2     1  LIG1       -0.2504
@<TRIPOS>BOND
     1     1     2   am
     2     1    14   am
     3     1    23    2
     4     2     3    1
     5     2    13    1
     6     3     4    1
     7     4     5    1
     8     4    11    1
     9     5     6   ar
    10     5    10   ar
    11     6     7   ar
    12     7     8   ar
    13     8     9   ar
    14     9    10   ar
    15    11    12    1
    16    12    13    1
    17    14    15    1
    18    15    16   ar
    19    15    20   ar
    20    16    17   ar
    21    17    18   ar
    22    18    19   ar
    23    18    21    1
    24    19    20   ar
    25    21    22    1
