@<TRIPOS>MOLECULE
35190_ChemDiv_A0062469
 28 31 0 0 0
SMALL
GASTEIGER
Energy = 0

@<TRIPOS>ATOM
      1 N          -1.3920   -0.7290    0.0000 N.ar    1  LIG1       -0.2538
      2 C          -1.3920    0.2670    0.0000 C.ar    1  LIG1        0.1776
      3 N          -2.2630    0.7670    0.0000 N.ar    1  LIG1       -0.2260
      4 C          -3.1210    0.2670    0.0000 C.ar    1  LIG1        0.0722
      5 C          -3.1210   -0.7290    0.0000 C.ar    1  LIG1        0.0955
      6 C          -2.2630   -1.2290    0.0000 C.ar    1  LIG1        0.2729
      7 O          -2.2630   -2.2250    0.0000 O.2     1  LIG1       -0.2660
      8 S          -4.0670   -1.0420    0.0000 S.3     1  LIG1       -0.1075
      9 C          -4.6500   -0.2330    0.0000 C.3     1  LIG1        0.0687
     10 C          -4.0670    0.5710    0.0000 C.3     1  LIG1        0.0585
     11 S          -0.5250    0.7710    0.0000 S.3     1  LIG1       -0.0670
     12 C           0.3540    0.2710    0.0000 C.3     1  LIG1        0.1520
     13 C           1.2130    0.7790    0.0000 C.2     1  LIG1        0.2588
     14 N           2.0880    0.2830    0.0000 N.am    1  LIG1       -0.1521
     15 C           2.9460    0.7790    0.0000 C.ar    1  LIG1        0.2077
     16 S           3.1580    1.7630    0.0000 S.2     1  LIG1       -0.0330
     17 C           4.1460    1.8580    0.0000 C.ar    1  LIG1        0.1128
     18 N           4.5540    0.9630    0.0000 N.ar    1  LIG1       -0.1440
     19 N           3.8130    0.2830    0.0000 N.ar    1  LIG1       -0.1239
     20 C           4.6460    2.7460    0.0000 C.3     1  LIG1        0.0614
     21 O           1.2000    1.7790    0.0000 O.2     1  LIG1       -0.2720
     22 C          -0.5250   -1.2290    0.0000 C.ar    1  LIG1        0.0687
     23 C          -0.5250   -2.2380    0.0000 C.ar    1  LIG1        0.0182
     24 C           0.3380   -2.7380    0.0000 C.ar    1  LIG1        0.0082
     25 C           1.2080   -2.2380    0.0000 C.ar    1  LIG1        0.0347
     26 C           1.2080   -1.2290    0.0000 C.ar    1  LIG1        0.0082
     27 C           0.3380   -0.7290    0.0000 C.ar    1  LIG1        0.0182
     28 BR          2.0880   -2.7420    0.0000 Br      1  LIG1       -0.0490
@<TRIPOS>BOND
     1     1     2   ar
     2     1     6   ar
     3     1    22    1
     4     2     3   ar
     5     2    11    1
     6     3     4   ar
     7     4     5   ar
     8     4    10    1
     9     5     6   ar
    10     5     8    1
    11     6     7    2
    12     8     9    1
    13     9    10    1
    14    11    12    1
    15    12    13    1
    16    13    14   am
    17    13    21    2
    18    14    15    1
    19    15    16   ar
    20    15    19   ar
    21    16    17   ar
    22    17    18   ar
    23    17    20    1
    24    18    19   ar
    25    22    23   ar
    26    22    27   ar
    27    23    24   ar
    28    24    25   ar
    29    25    26   ar
    30    25    28    1
    31    26    27   ar
