@<TRIPOS>MOLECULE
35199_ChemDiv_8017-9478
 32 35 0 0 0
SMALL
GASTEIGER
Energy = 0

@<TRIPOS>ATOM
      1 C           0.0380   -1.7750    0.0000 C.ar    1  LIG1        0.1938
      2 C           0.9460   -1.7130    0.0000 C.ar    1  LIG1        0.1925
      3 N           1.2790   -2.6790    0.0000 N.ar    1  LIG1       -0.2109
      4 N           0.5290   -3.3170    0.0000 N.ar    1  LIG1       -0.0622
      5 N          -0.2210   -2.7750    0.0000 N.ar    1  LIG1       -0.1226
      6 C           2.2920   -2.9670    0.0000 C.3     1  LIG1        0.1570
      7 C           3.0040   -2.2420    0.0000 C.ar    1  LIG1        0.0024
      8 C           3.9830   -2.5170    0.0000 C.ar    1  LIG1        0.0008
      9 C           4.6960   -1.7420    0.0000 C.ar    1  LIG1        0.0366
     10 C           4.4080   -0.7750    0.0000 C.ar    1  LIG1        0.1387
     11 C           3.4290   -0.5500    0.0000 C.ar    1  LIG1        0.0366
     12 C           2.7330   -1.2750    0.0000 C.ar    1  LIG1        0.0008
     13 O           5.0920   -0.0330    0.0000 O.3     1  LIG1       -0.4714
     14 C           4.7710    0.8880    0.0000 C.3     1  LIG1        0.2525
     15 N           1.5080   -0.8540    0.0000 N.pl3   1  LIG1       -0.1056
     16 C          -0.5080   -0.9290    0.0000 C.2     1  LIG1        0.2914
     17 N          -0.0040   -0.0170    0.0000 N.am    1  LIG1       -0.1740
     18 C          -0.5670    0.7830    0.0000 C.ar    1  LIG1        0.0739
     19 C          -0.1210    1.6460    0.0000 C.ar    1  LIG1        0.0197
     20 C          -0.6130    2.4960    0.0000 C.ar    1  LIG1        0.0382
     21 C          -1.7210    2.5080    0.0000 C.ar    1  LIG1        0.1391
     22 O          -2.2630    3.3210    0.0000 O.3     1  LIG1       -0.4706
     23 C          -3.2460    3.2670    0.0000 C.3     1  LIG1        0.2320
     24 C          -3.6830    2.3830    0.0000 C.ar    1  LIG1        0.0212
     25 C          -4.6830    2.2960    0.0000 C.ar    1  LIG1       -0.0007
     26 C          -5.0960    1.4210    0.0000 C.ar    1  LIG1       -0.0002
     27 C          -4.5210    0.5830    0.0000 C.ar    1  LIG1       -0.0000
     28 C          -3.5500    0.6960    0.0000 C.ar    1  LIG1       -0.0002
     29 C          -3.1460    1.5830    0.0000 C.ar    1  LIG1       -0.0007
     30 C          -2.1250    1.6130    0.0000 C.ar    1  LIG1        0.0382
     31 C          -1.5960    0.8130    0.0000 C.ar    1  LIG1        0.0197
     32 O          -1.5580   -1.0040    0.0000 O.2     1  LIG1       -0.2662
@<TRIPOS>BOND
     1     1     2   ar
     2     1     5   ar
     3     1    16    1
     4     2     3   ar
     5     2    15    1
     6     3     4   ar
     7     3     6    1
     8     4     5   ar
     9     6     7    1
    10     7     8   ar
    11     7    12   ar
    12     8     9   ar
    13     9    10   ar
    14    10    11   ar
    15    10    13    1
    16    11    12   ar
    17    13    14    1
    18    16    17   am
    19    16    32    2
    20    17    18    1
    21    18    19   ar
    22    18    31   ar
    23    19    20   ar
    24    20    21   ar
    25    21    22    1
    26    21    30   ar
    27    22    23    1
    28    23    24    1
    29    24    25   ar
    30    24    29   ar
    31    25    26   ar
    32    26    27   ar
    33    27    28   ar
    34    28    29   ar
    35    30    31   ar
