@<TRIPOS>MOLECULE
35200_ChemDiv_A0062553
 33 37 0 0 0
SMALL
GASTEIGER
Energy = 0

@<TRIPOS>ATOM
      1 N          -0.9080   -0.6830    0.0000 N.ar    1  LIG1       -0.2538
      2 C          -0.9380    0.3130    0.0000 C.ar    1  LIG1        0.1776
      3 N          -1.8290    0.7960    0.0000 N.ar    1  LIG1       -0.2260
      4 C          -2.6750    0.2580    0.0000 C.ar    1  LIG1        0.0722
      5 C          -2.6420   -0.7380    0.0000 C.ar    1  LIG1        0.0955
      6 C          -1.7580   -1.1960    0.0000 C.ar    1  LIG1        0.2729
      7 O          -1.7290   -2.2080    0.0000 O.2     1  LIG1       -0.2660
      8 S          -3.5790   -1.0580    0.0000 S.3     1  LIG1       -0.1075
      9 C          -4.1830   -0.3000    0.0000 C.3     1  LIG1        0.0687
     10 C          -3.6290    0.5290    0.0000 C.3     1  LIG1        0.0585
     11 S          -0.0830    0.8630    0.0000 S.3     1  LIG1       -0.0671
     12 C          -0.1290    1.8580    0.0000 C.3     1  LIG1        0.1503
     13 C           0.7080    2.4130    0.0000 C.2     1  LIG1        0.2408
     14 N           1.6080    1.9460    0.0000 N.am    1  LIG1       -0.2582
     15 C           2.4580    2.4880    0.0000 C.ar    1  LIG1        0.0498
     16 C           3.3330    2.0210    0.0000 C.ar    1  LIG1       -0.0084
     17 C           3.3750    1.0130    0.0000 C.3     1  LIG1        0.0294
     18 C           2.5210    0.4790    0.0000 C.3     1  LIG1        0.0266
     19 C           1.6420    0.9500    0.0000 C.3     1  LIG1        0.0986
     20 C           4.1790    2.5540    0.0000 C.ar    1  LIG1       -0.0030
     21 C           4.1500    3.5500    0.0000 C.ar    1  LIG1       -0.0002
     22 C           3.2670    4.0130    0.0000 C.ar    1  LIG1        0.0013
     23 C           2.4250    3.4830    0.0000 C.ar    1  LIG1        0.0146
     24 O           0.6580    3.4130    0.0000 O.2     1  LIG1       -0.2736
     25 C          -0.0170   -1.1500    0.0000 C.ar    1  LIG1        0.0689
     26 C           0.0130   -2.1460    0.0000 C.ar    1  LIG1        0.0208
     27 C           0.9000   -2.6250    0.0000 C.ar    1  LIG1        0.0384
     28 C           1.7500   -2.0880    0.0000 C.ar    1  LIG1        0.1386
     29 C           1.7130   -1.0920    0.0000 C.ar    1  LIG1        0.0384
     30 C           0.8290   -0.6330    0.0000 C.ar    1  LIG1        0.0208
     31 O           2.6380   -2.5540    0.0000 O.3     1  LIG1       -0.4755
     32 C           2.6710   -3.5500    0.0000 C.3     1  LIG1        0.2055
     33 C           3.5630   -4.0130    0.0000 C.3     1  LIG1        0.0512
@<TRIPOS>BOND
     1     1     2   ar
     2     1     6   ar
     3     1    25    1
     4     2     3   ar
     5     2    11    1
     6     3     4   ar
     7     4     5   ar
     8     4    10    1
     9     5     6   ar
    10     5     8    1
    11     6     7    2
    12     8     9    1
    13     9    10    1
    14    11    12    1
    15    12    13    1
    16    13    14   am
    17    13    24    2
    18    14    15    1
    19    14    19    1
    20    15    16   ar
    21    15    23   ar
    22    16    17    1
    23    16    20   ar
    24    17    18    1
    25    18    19    1
    26    20    21   ar
    27    21    22   ar
    28    22    23   ar
    29    25    26   ar
    30    25    30   ar
    31    26    27   ar
    32    27    28   ar
    33    28    29   ar
    34    28    31    1
    35    29    30   ar
    36    31    32    1
    37    32    33    1
