@<TRIPOS>MOLECULE
35201_ChemDiv_8017-3999
 18 21 0 0 0
SMALL
GASTEIGER
Energy = 0

@<TRIPOS>ATOM
      1 N           2.0540    0.6540    0.0000 N.ar    1  LIG1       -0.1283
      2 N           2.6420    1.4670    0.0000 N.ar    1  LIG1       -0.0405
      3 N           3.5920    1.1580    0.0000 N.ar    1  LIG1       -0.1041
      4 C           3.6000    0.1580    0.0000 C.ar    1  LIG1        0.2451
      5 N           2.6500   -0.1500    0.0000 N.ar    1  LIG1       -0.1220
      6 C           1.0670    0.5540    0.0000 C.ar    1  LIG1        0.1076
      7 C           0.6630   -0.3630    0.0000 C.ar    1  LIG1        0.0584
      8 C          -0.3290   -0.4630    0.0000 C.ar    1  LIG1        0.1469
      9 O          -0.9170   -1.2750    0.0000 O.2     1  LIG1       -0.4534
     10 C          -1.8710   -0.9670    0.0000 C.ar    1  LIG1        0.1453
     11 C          -1.8710    0.0380    0.0000 C.ar    1  LIG1        0.0375
     12 C          -0.9170    0.3460    0.0000 C.ar    1  LIG1        0.0376
     13 C          -0.5170    1.2580    0.0000 C.ar    1  LIG1        0.0047
     14 C           0.4790    1.3670    0.0000 C.ar    1  LIG1        0.0212
     15 C          -2.7420    0.5290    0.0000 C.ar    1  LIG1        0.0031
     16 C          -3.5960    0.0290    0.0000 C.ar    1  LIG1        0.0002
     17 C          -3.6040   -0.9670    0.0000 C.ar    1  LIG1        0.0031
     18 C          -2.7330   -1.4630    0.0000 C.ar    1  LIG1        0.0375
@<TRIPOS>BOND
     1     1     2   ar
     2     1     5   ar
     3     1     6    1
     4     2     3   ar
     5     3     4   ar
     6     4     5   ar
     7     6     7   ar
     8     6    14   ar
     9     7     8   ar
    10     8     9   ar
    11     8    12   ar
    12     9    10   ar
    13    10    11   ar
    14    10    18   ar
    15    11    12   ar
    16    11    15   ar
    17    12    13   ar
    18    13    14   ar
    19    15    16   ar
    20    16    17   ar
    21    17    18   ar
