@<TRIPOS>MOLECULE
35205_ChemDiv_8017-4129
 18 20 0 0 0
SMALL
GASTEIGER
Energy = 0

@<TRIPOS>ATOM
      1 C          -0.2330   -0.4790    0.0000 C.ar    1  LIG1        0.1283
      2 N          -0.1330   -1.4710    0.0000 N.ar    1  LIG1       -0.2368
      3 C           0.8460   -1.6710    0.0000 C.ar    1  LIG1        0.0879
      4 C           1.3540   -0.8080    0.0000 C.ar    1  LIG1        0.0485
      5 S           0.6790   -0.0670    0.0000 S.2     1  LIG1       -0.0650
      6 C           2.3420   -0.8080    0.0000 C.ar    1  LIG1        0.0080
      7 C           2.8330   -1.6670    0.0000 C.ar    1  LIG1        0.0006
      8 C           2.3420   -2.5330    0.0000 C.ar    1  LIG1        0.0016
      9 C           1.3420   -2.5330    0.0000 C.ar    1  LIG1        0.0196
     10 C          -1.1080    0.0250    0.0000 C.ar    1  LIG1        0.1061
     11 C          -1.1080    1.0330    0.0000 C.ar    1  LIG1        0.0337
     12 C          -0.2460    1.5380    0.0000 C.2     1  LIG1        0.0744
     13 O          -0.2460    2.5380    0.0000 O.co2   1  LIG1       -0.5445
     14 O           0.6330    1.0460    0.0000 O.co2   1  LIG1       -0.5445
     15 C          -1.9750    1.5330    0.0000 C.ar    1  LIG1        0.0043
     16 C          -2.8380    1.0250    0.0000 C.ar    1  LIG1        0.0207
     17 C          -2.8380    0.0250    0.0000 C.ar    1  LIG1        0.0989
     18 N          -1.9750   -0.4790    0.0000 N.ar    1  LIG1       -0.2418
@<TRIPOS>BOND
     1     1     2   ar
     2     1     5   ar
     3     1    10    1
     4     2     3   ar
     5     3     4   ar
     6     3     9   ar
     7     4     5   ar
     8     4     6   ar
     9     6     7   ar
    10     7     8   ar
    11     8     9   ar
    12    10    11   ar
    13    10    18   ar
    14    11    12    1
    15    11    15   ar
    16    12    13   ar
    17    12    14   ar
    18    15    16   ar
    19    16    17   ar
    20    17    18   ar
