@<TRIPOS>MOLECULE
35207_ChemDiv_8017-4185
 18 20 0 0 0
SMALL
GASTEIGER
Energy = 0

@<TRIPOS>ATOM
      1 N           0.0920    0.8040    0.0000 N.ar    1  LIG1       -0.1759
      2 C          -0.1830   -0.1540    0.0000 C.ar    1  LIG1        0.1847
      3 N          -1.1960   -0.1540    0.0000 N.ar    1  LIG1       -0.2947
      4 C          -1.5040    0.7790    0.0000 C.ar    1  LIG1        0.1418
      5 N          -0.7170    1.3920    0.0000 N.ar    1  LIG1       -0.1498
      6 C          -2.4580    1.1290    0.0000 C.3     1  LIG1        0.0658
      7 C          -3.3040    0.6040    0.0000 C.3     1  LIG1        0.0080
      8 C          -3.4080   -0.4130    0.0000 C.3     1  LIG1        0.0024
      9 C          -2.7040   -1.1000    0.0000 C.3     1  LIG1        0.0246
     10 C          -1.7170   -0.9920    0.0000 C.3     1  LIG1        0.1091
     11 S           0.3790   -0.9540    0.0000 S.2     1  LIG1       -0.0110
     12 C           1.0540    1.0290    0.0000 C.3     1  LIG1        0.2770
     13 N           1.7420    0.2790    0.0000 N.4     1  LIG1        0.3967
     14 C           1.4250   -0.6290    0.0000 C.3     1  LIG1        0.1414
     15 C           2.1000   -1.3880    0.0000 C.3     1  LIG1        0.0630
     16 C           3.1040   -1.1880    0.0000 C.3     1  LIG1        0.0123
     17 C           3.4040   -0.2500    0.0000 C.3     1  LIG1        0.0630
     18 C           2.7250    0.5040    0.0000 C.3     1  LIG1        0.1414
@<TRIPOS>BOND
     1     1     2   ar
     2     1     5   ar
     3     1    12    1
     4     2     3   ar
     5     2    11    2
     6     3     4   ar
     7     3    10    1
     8     4     5   ar
     9     4     6    1
    10     6     7    1
    11     7     8    1
    12     8     9    1
    13     9    10    1
    14    12    13    1
    15    13    14    1
    16    13    18    1
    17    14    15    1
    18    15    16    1
    19    16    17    1
    20    17    18    1
