@<TRIPOS>MOLECULE
35203_ChemDiv_8017-4051
 30 34 0 0 0
SMALL
GASTEIGER
Energy = 0

@<TRIPOS>ATOM
      1 N          -1.9420    0.1290    0.0000 N.am    1  LIG1       -0.2011
      2 C          -1.3540   -0.6790    0.0000 C.2     1  LIG1        0.2589
      3 C          -0.4040   -0.3710    0.0000 C.ar    1  LIG1        0.0588
      4 C          -0.4040    0.6290    0.0000 C.ar    1  LIG1        0.0587
      5 C          -1.3540    0.9420    0.0000 C.2     1  LIG1        0.2589
      6 O          -1.6580    1.8920    0.0000 O.2     1  LIG1       -0.2691
      7 C           0.4540    1.1330    0.0000 C.ar    1  LIG1        0.0048
      8 C           1.3170    0.6460    0.0000 C.ar    1  LIG1        0.0047
      9 C           1.3250   -0.3540    0.0000 C.ar    1  LIG1        0.0540
     10 C           2.1960   -0.8460    0.0000 C.2     1  LIG1        0.2527
     11 N           3.0580   -0.3460    0.0000 N.am    1  LIG1       -0.2568
     12 C           3.1540    0.6630    0.0000 C.3     1  LIG1        0.0845
     13 C           4.1290    0.8710    0.0000 C.3     1  LIG1        0.0478
     14 C           4.6380    0.0170    0.0000 C.ar    1  LIG1       -0.0068
     15 C           3.9670   -0.7330    0.0000 C.ar    1  LIG1        0.0501
     16 C           4.2920   -1.6790    0.0000 C.ar    1  LIG1        0.0146
     17 C           5.2670   -1.8880    0.0000 C.ar    1  LIG1        0.0013
     18 C           5.9380   -1.1290    0.0000 C.ar    1  LIG1       -0.0002
     19 C           5.6170   -0.1790    0.0000 C.ar    1  LIG1       -0.0030
     20 C           2.4040    1.3210    0.0000 C.3     1  LIG1        0.0223
     21 O           2.1960   -1.8420    0.0000 O.2     1  LIG1       -0.2696
     22 C           0.4630   -0.8670    0.0000 C.ar    1  LIG1        0.0092
     23 O          -1.6580   -1.6290    0.0000 O.2     1  LIG1       -0.2691
     24 C          -2.9420    0.1290    0.0000 C.ar    1  LIG1        0.0612
     25 C          -3.4420    1.0080    0.0000 C.ar    1  LIG1        0.0150
     26 C          -4.4290    1.0080    0.0000 C.ar    1  LIG1       -0.0030
     27 C          -4.9420    0.1460    0.0000 C.ar    1  LIG1       -0.0218
     28 C          -4.4420   -0.7290    0.0000 C.ar    1  LIG1       -0.0030
     29 C          -3.4330   -0.7330    0.0000 C.ar    1  LIG1        0.0150
     30 C          -5.9420    0.1460    0.0000 C.3     1  LIG1        0.0310
@<TRIPOS>BOND
     1     1     2   am
     2     1     5   am
     3     1    24    1
     4     2     3    1
     5     2    23    2
     6     3     4   ar
     7     3    22   ar
     8     4     5    1
     9     4     7   ar
    10     5     6    2
    11     7     8   ar
    12     8     9   ar
    13     9    10    1
    14     9    22   ar
    15    10    11   am
    16    10    21    2
    17    11    12    1
    18    11    15    1
    19    12    13    1
    20    12    20    1
    21    13    14    1
    22    14    15   ar
    23    14    19   ar
    24    15    16   ar
    25    16    17   ar
    26    17    18   ar
    27    18    19   ar
    28    24    25   ar
    29    24    29   ar
    30    25    26   ar
    31    26    27   ar
    32    27    28   ar
    33    27    30    1
    34    28    29   ar
