@<TRIPOS>MOLECULE
35209_ChemDiv_8017-4250
 35 39 0 0 0
SMALL
GASTEIGER
Energy = 0

@<TRIPOS>ATOM
      1 N          -3.4790   -0.4960    0.0000 N.ar    1  LIG1       -0.2275
      2 C          -4.3420    0.0040    0.0000 C.ar    1  LIG1        0.1191
      3 C          -4.3420    1.0040    0.0000 C.ar    1  LIG1        0.0508
      4 C          -3.4710    1.5040    0.0000 C.ar    1  LIG1       -0.0146
      5 C          -2.6080    0.9960    0.0000 C.ar    1  LIG1        0.0302
      6 C          -2.6170   -0.0040    0.0000 C.ar    1  LIG1        0.1315
      7 N          -1.7500   -0.5080    0.0000 N.pl3   1  LIG1       -0.2897
      8 C          -0.8880   -0.0040    0.0000 C.3     1  LIG1        0.1137
      9 C          -0.0170   -0.5080    0.0000 C.3     1  LIG1        0.1150
     10 N          -0.0170   -1.5080    0.0000 N.am    1  LIG1       -0.2730
     11 C           0.8500   -2.0130    0.0000 C.2     1  LIG1        0.2703
     12 C           1.7130   -1.5080    0.0000 C.3     1  LIG1        0.2896
     13 O           2.5880   -2.0130    0.0000 O.3     1  LIG1       -0.4656
     14 C           3.4500   -1.5170    0.0000 C.ar    1  LIG1        0.1393
     15 C           3.4420   -0.5170    0.0000 C.ar    1  LIG1        0.0369
     16 C           4.3130   -0.0080    0.0000 C.ar    1  LIG1        0.0030
     17 C           5.1790   -0.5170    0.0000 C.ar    1  LIG1        0.0002
     18 C           5.1790   -1.5170    0.0000 C.ar    1  LIG1        0.0031
     19 C           4.3170   -2.0210    0.0000 C.ar    1  LIG1        0.0369
     20 C           6.0460   -0.0210    0.0000 C.ar    1  LIG1        0.0000
     21 C           6.0540    0.9790    0.0000 C.ar    1  LIG1        0.0000
     22 C           5.1790    1.4830    0.0000 C.ar    1  LIG1        0.0000
     23 C           4.3130    0.9920    0.0000 C.ar    1  LIG1        0.0001
     24 O           0.8500   -3.0130    0.0000 O.2     1  LIG1       -0.2708
     25 C          -0.8880   -2.0130    0.0000 C.3     1  LIG1        0.1150
     26 C          -1.7500   -1.5080    0.0000 C.3     1  LIG1        0.1137
     27 C          -3.4710    2.5080    0.0000 C.3     1  LIG1        0.0313
     28 C          -5.2040    1.5080    0.0000 C.ar    1  LIG1        0.1400
     29 C          -6.0540    1.0040    0.0000 C.ar    1  LIG1        0.0401
     30 C          -6.0540    0.0040    0.0000 C.ar    1  LIG1        0.0416
     31 C          -5.2040   -0.4920    0.0000 C.ar    1  LIG1        0.1564
     32 O          -5.1960   -1.4830    0.0000 O.3     1  LIG1       -0.4699
     33 C          -4.3290   -1.9830    0.0000 C.3     1  LIG1        0.2525
     34 O          -5.1960    2.5170    0.0000 O.3     1  LIG1       -0.4714
     35 C          -6.0540    3.0170    0.0000 C.3     1  LIG1        0.2525
@<TRIPOS>BOND
     1     1     2   ar
     2     1     6   ar
     3     2     3   ar
     4     2    31   ar
     5     3     4   ar
     6     3    28   ar
     7     4     5   ar
     8     4    27    1
     9     5     6   ar
    10     6     7    1
    11     7     8    1
    12     7    26    1
    13     8     9    1
    14     9    10    1
    15    10    11   am
    16    10    25    1
    17    11    12    1
    18    11    24    2
    19    12    13    1
    20    13    14    1
    21    14    15   ar
    22    14    19   ar
    23    15    16   ar
    24    16    17   ar
    25    16    23   ar
    26    17    18   ar
    27    17    20   ar
    28    18    19   ar
    29    20    21   ar
    30    21    22   ar
    31    22    23   ar
    32    25    26    1
    33    28    29   ar
    34    28    34    1
    35    29    30   ar
    36    30    31   ar
    37    31    32    1
    38    32    33    1
    39    34    35    1
