@<TRIPOS>MOLECULE
35218_ChemDiv_A0062566
 30 33 0 0 0
SMALL
GASTEIGER
Energy = 0

@<TRIPOS>ATOM
      1 N          -1.8460    0.4630    0.0000 N.ar    1  LIG1       -0.2538
      2 C          -1.8460    1.4580    0.0000 C.ar    1  LIG1        0.1776
      3 N          -2.7080    1.9580    0.0000 N.ar    1  LIG1       -0.2260
      4 C          -3.5710    1.4580    0.0000 C.ar    1  LIG1        0.0722
      5 C          -3.5710    0.4630    0.0000 C.ar    1  LIG1        0.0955
      6 C          -2.7080   -0.0380    0.0000 C.ar    1  LIG1        0.2729
      7 O          -2.7080   -1.0380    0.0000 O.2     1  LIG1       -0.2660
      8 S          -4.5250    0.1500    0.0000 S.3     1  LIG1       -0.1075
      9 C          -5.1000    0.9670    0.0000 C.3     1  LIG1        0.0687
     10 C          -4.5250    1.7670    0.0000 C.3     1  LIG1        0.0585
     11 S          -0.9710    1.9630    0.0000 S.3     1  LIG1       -0.0670
     12 C          -0.0920    1.4630    0.0000 C.3     1  LIG1        0.1519
     13 C           0.7710    1.9750    0.0000 C.2     1  LIG1        0.2584
     14 N           1.6290    1.4790    0.0000 N.am    1  LIG1       -0.1564
     15 C           2.4920    1.9790    0.0000 C.ar    1  LIG1        0.1958
     16 N           2.7040    2.9540    0.0000 N.ar    1  LIG1       -0.0604
     17 O           3.7040    3.0500    0.0000 O.2     1  LIG1       -0.3565
     18 C           4.1130    2.1540    0.0000 C.ar    1  LIG1        0.1563
     19 C           3.3710    1.4790    0.0000 C.ar    1  LIG1        0.0751
     20 C           5.0960    1.9630    0.0000 C.3     1  LIG1        0.0754
     21 O           0.7540    2.9750    0.0000 O.2     1  LIG1       -0.2720
     22 C          -0.9710   -0.0380    0.0000 C.ar    1  LIG1        0.0689
     23 C          -0.1080    0.4630    0.0000 C.ar    1  LIG1        0.0208
     24 C           0.7540   -0.0380    0.0000 C.ar    1  LIG1        0.0384
     25 C           0.7540   -1.0460    0.0000 C.ar    1  LIG1        0.1386
     26 C          -0.1080   -1.5460    0.0000 C.ar    1  LIG1        0.0384
     27 C          -0.9710   -1.0460    0.0000 C.ar    1  LIG1        0.0208
     28 O           1.6290   -1.5500    0.0000 O.3     1  LIG1       -0.4755
     29 C           1.6250   -2.5500    0.0000 C.3     1  LIG1        0.2055
     30 C           2.4880   -3.0460    0.0000 C.3     1  LIG1        0.0512
@<TRIPOS>BOND
     1     1     2   ar
     2     1     6   ar
     3     1    22    1
     4     2     3   ar
     5     2    11    1
     6     3     4   ar
     7     4     5   ar
     8     4    10    1
     9     5     6   ar
    10     5     8    1
    11     6     7    2
    12     8     9    1
    13     9    10    1
    14    11    12    1
    15    12    13    1
    16    13    14   am
    17    13    21    2
    18    14    15    1
    19    15    16   ar
    20    15    19   ar
    21    16    17   ar
    22    17    18   ar
    23    18    19   ar
    24    18    20    1
    25    22    23   ar
    26    22    27   ar
    27    23    24   ar
    28    24    25   ar
    29    25    26   ar
    30    25    28    1
    31    26    27   ar
    32    28    29    1
    33    29    30    1
