@<TRIPOS>MOLECULE
35215_ChemDiv_8017-4552
 26 29 0 0 0
SMALL
GASTEIGER
Energy = 0

@<TRIPOS>ATOM
      1 S           1.1250   -0.9500    0.0000 S.O2    1  LIG1        0.0634
      2 N           0.1250   -0.9880    0.0000 N.3     1  LIG1       -0.1515
      3 C          -0.4040   -0.1420    0.0000 C.3     1  LIG1        0.1278
      4 C          -1.4040   -0.1790    0.0000 C.3     1  LIG1        0.1610
      5 O          -1.9420    0.6580    0.0000 O.3     1  LIG1       -0.3570
      6 C          -2.9330    0.6210    0.0000 C.3     1  LIG1        0.0928
      7 C          -2.9290    1.6170    0.0000 C.3     1  LIG1        0.0272
      8 C          -3.8330    1.9920    0.0000 C.3     1  LIG1        0.0023
      9 C          -4.5130    1.1920    0.0000 C.3     1  LIG1        0.0002
     10 C          -4.5130    0.1630    0.0000 C.3     1  LIG1        0.0023
     11 C          -3.5960   -0.2040    0.0000 C.3     1  LIG1        0.0272
     12 C          -5.4830   -0.1130    0.0000 C.3     1  LIG1        0.0002
     13 C          -4.7040    0.7170    0.0000 C.3     1  LIG1        0.0023
     14 C          -3.8420    0.4000    0.0000 C.3     1  LIG1        0.0272
     15 C          -4.7130    1.6790    0.0000 C.3     1  LIG1        0.0002
     16 C          -0.3330   -1.8750    0.0000 C.3     1  LIG1        0.1150
     17 C           2.1170   -0.8250    0.0000 C.ar    1  LIG1        0.1224
     18 C           2.7170   -1.6250    0.0000 C.ar    1  LIG1        0.0230
     19 C           3.7170   -1.5000    0.0000 C.ar    1  LIG1        0.0383
     20 C           4.1040   -0.5790    0.0000 C.ar    1  LIG1        0.1388
     21 C           3.4920    0.2210    0.0000 C.ar    1  LIG1        0.0383
     22 C           2.5040    0.0960    0.0000 C.ar    1  LIG1        0.0230
     23 O           5.0920   -0.4500    0.0000 O.3     1  LIG1       -0.4714
     24 C           5.4790    0.4670    0.0000 C.3     1  LIG1        0.2525
     25 O           1.0920    0.0040    0.0000 O.2     1  LIG1       -0.1528
     26 O           1.1750   -1.9880    0.0000 O.2     1  LIG1       -0.1528
@<TRIPOS>BOND
     1     1     2    1
     2     1    17    1
     3     1    25    2
     4     1    26    2
     5     2     3    1
     6     2    16    1
     7     3     4    1
     8     4     5    1
     9     5     6    1
    10     6     7    1
    11     6    11    1
    12     6    14    1
    13     7     8    1
    14     8     9    1
    15     8    15    1
    16     9    10    1
    17    10    11    1
    18    10    12    1
    19    12    13    1
    20    13    14    1
    21    13    15    1
    22    17    18   ar
    23    17    22   ar
    24    18    19   ar
    25    19    20   ar
    26    20    21   ar
    27    20    23    1
    28    21    22   ar
    29    23    24    1
