@<TRIPOS>MOLECULE
35211_ChemDiv_8017-4314
 25 28 0 0 0
SMALL
GASTEIGER
Energy = 0

@<TRIPOS>ATOM
      1 N           0.5420    0.9460    0.0000 N.ar    1  LIG1       -0.1755
      2 C           0.2290   -0.0040    0.0000 C.ar    1  LIG1        0.1849
      3 N          -0.7710   -0.0040    0.0000 N.ar    1  LIG1       -0.2932
      4 C          -1.0750    0.9460    0.0000 C.ar    1  LIG1        0.1649
      5 N          -0.2710    1.5330    0.0000 N.ar    1  LIG1       -0.1452
      6 C          -2.0250    1.2460    0.0000 C.ar    1  LIG1        0.0359
      7 C          -2.7710    0.5750    0.0000 C.ar    1  LIG1        0.0030
      8 C          -3.7210    0.8750    0.0000 C.ar    1  LIG1        0.0001
      9 C          -3.9330    1.8630    0.0000 C.ar    1  LIG1        0.0000
     10 C          -3.1960    2.5330    0.0000 C.ar    1  LIG1        0.0001
     11 C          -2.2380    2.2330    0.0000 C.ar    1  LIG1        0.0030
     12 C          -1.3710   -0.8170    0.0000 C.3     1  LIG1        0.0888
     13 C          -2.3580   -0.7130    0.0000 C.3     1  LIG1        0.0227
     14 C          -2.9460   -1.5130    0.0000 C.3     1  LIG1        0.0019
     15 C          -2.5460   -2.4170    0.0000 C.3     1  LIG1        0.0001
     16 C          -1.5580   -2.5290    0.0000 C.3     1  LIG1        0.0019
     17 C          -0.9630   -1.7290    0.0000 C.3     1  LIG1        0.0227
     18 S           0.8170   -0.8170    0.0000 S.2     1  LIG1       -0.0110
     19 C           1.4920    1.2500    0.0000 C.3     1  LIG1        0.2772
     20 N           2.2290    0.5830    0.0000 N.4     1  LIG1        0.4007
     21 C           2.0170   -0.3920    0.0000 C.3     1  LIG1        0.1742
     22 C           2.7540   -1.0670    0.0000 C.3     1  LIG1        0.2048
     23 O           3.7130   -0.7670    0.0000 O.3     1  LIG1       -0.3411
     24 C           3.9290    0.2210    0.0000 C.3     1  LIG1        0.2048
     25 C           3.1880    0.8880    0.0000 C.3     1  LIG1        0.1742
@<TRIPOS>BOND
     1     1     2   ar
     2     1     5   ar
     3     1    19    1
     4     2     3   ar
     5     2    18    2
     6     3     4   ar
     7     3    12    1
     8     4     5   ar
     9     4     6    1
    10     6     7   ar
    11     6    11   ar
    12     7     8   ar
    13     8     9   ar
    14     9    10   ar
    15    10    11   ar
    16    12    13    1
    17    12    17    1
    18    13    14    1
    19    14    15    1
    20    15    16    1
    21    16    17    1
    22    19    20    1
    23    20    21    1
    24    20    25    1
    25    21    22    1
    26    22    23    1
    27    23    24    1
    28    24    25    1
