@<TRIPOS>MOLECULE
35213_ChemDiv_8017-4351
 16 16 0 0 0
SMALL
GASTEIGER
Energy = 0

@<TRIPOS>ATOM
      1 C          -0.8330   -0.2330    0.0000 C.ar    1  LIG1        0.1113
      2 C          -0.8330   -1.2420    0.0000 C.ar    1  LIG1        0.2831
      3 N          -1.7080   -1.7290    0.0000 N.ar    1  LIG1       -0.2121
      4 C          -2.5830   -1.2210    0.0000 C.ar    1  LIG1        0.0624
      5 C          -2.5830   -0.2580    0.0000 C.ar    1  LIG1        0.0134
      6 C          -1.7080    0.2580    0.0000 C.ar    1  LIG1        0.0209
      7 C          -1.7080    1.2750    0.0000 C.3     1  LIG1        0.2089
      8 O          -2.5580    1.7630    0.0000 O.3     1  LIG1       -0.2152
      9 C          -3.4830   -1.7080    0.0000 C.3     1  LIG1        0.0522
     10 O           0.0080   -1.7580    0.0000 O.2     1  LIG1       -0.2651
     11 C           0.0460    0.2580    0.0000 C.2     1  LIG1        0.2693
     12 O           0.0460    1.2750    0.0000 O.2     1  LIG1       -0.2682
     13 N           0.8830   -0.2330    0.0000 N.am    1  LIG1       -0.1987
     14 C           1.7580    0.2880    0.0000 C.3     1  LIG1        0.1509
     15 C           2.6330   -0.1830    0.0000 C.3     1  LIG1        0.2054
     16 O           3.4790    0.3380    0.0000 O.3     1  LIG1       -0.2184
@<TRIPOS>BOND
     1     1     2   ar
     2     1     6   ar
     3     1    11    1
     4     2     3   ar
     5     2    10    2
     6     3     4   ar
     7     4     5   ar
     8     4     9    1
     9     5     6   ar
    10     6     7    1
    11     7     8    1
    12    11    12    2
    13    11    13   am
    14    13    14    1
    15    14    15    1
    16    15    16    1
