@<TRIPOS>MOLECULE
35227_ChemDiv_8018-0073
 21 23 0 0 0
SMALL
GASTEIGER
Energy = 0

@<TRIPOS>ATOM
      1 C          -0.7040   -1.1880    0.0000 C.3     1  LIG1        0.2024
      2 C          -0.7040   -0.1880    0.0000 C.3     1  LIG1        0.1695
      3 N           0.0080    0.5210    0.0000 N.ar    1  LIG1       -0.2268
      4 N           1.0080    0.5210    0.0000 N.ar    1  LIG1       -0.1451
      5 C           1.3130    1.4710    0.0000 C.ar    1  LIG1        0.2210
      6 N           0.5040    2.0580    0.0000 N.ar    1  LIG1       -0.2007
      7 C          -0.3080    1.4710    0.0000 C.ar    1  LIG1        0.1973
      8 C           0.2960   -1.1880    0.0000 C.ar    1  LIG1        0.0124
      9 C           0.7920   -2.0540    0.0000 C.ar    1  LIG1        0.0008
     10 C           1.7920   -2.0540    0.0000 C.ar    1  LIG1        0.0294
     11 C           2.2960   -1.1880    0.0000 C.ar    1  LIG1        0.1401
     12 C           1.7920   -0.3170    0.0000 C.ar    1  LIG1        0.0294
     13 C           0.7920   -0.3170    0.0000 C.ar    1  LIG1        0.0008
     14 F           3.2960   -1.1880    0.0000 F       1  LIG1       -0.2042
     15 C          -1.5710   -0.6880    0.0000 C.ar    1  LIG1        0.0923
     16 N          -2.4330   -1.1880    0.0000 N.ar    1  LIG1       -0.2453
     17 C          -3.3000   -0.6880    0.0000 C.ar    1  LIG1        0.0986
     18 C          -3.3000    0.3130    0.0000 C.ar    1  LIG1        0.0207
     19 C          -2.4330    0.8130    0.0000 C.ar    1  LIG1        0.0029
     20 C          -1.5710    0.3130    0.0000 C.ar    1  LIG1        0.0176
     21 O          -1.4080   -1.8920    0.0000 O.3     1  LIG1       -0.2130
@<TRIPOS>BOND
     1     1     2    1
     2     1     8    1
     3     1    15    1
     4     1    21    1
     5     2     3    1
     6     3     4   ar
     7     3     7   ar
     8     4     5   ar
     9     5     6   ar
    10     6     7   ar
    11     8     9   ar
    12     8    13   ar
    13     9    10   ar
    14    10    11   ar
    15    11    12   ar
    16    11    14    1
    17    12    13   ar
    18    15    16   ar
    19    15    20   ar
    20    16    17   ar
    21    17    18   ar
    22    18    19   ar
    23    19    20   ar
