@<TRIPOS>MOLECULE
35223_ChemDiv_8017-9959
 18 20 0 0 0
SMALL
GASTEIGER
Energy = 0

@<TRIPOS>ATOM
      1 C          -0.5000   -0.4290    0.0000 C.2     1  LIG1        0.0932
      2 C           0.4960   -0.4290    0.0000 C.2     1  LIG1        0.0932
      3 N           0.9960   -1.2920    0.0000 N.2     1  LIG1       -0.2668
      4 C           0.4960   -2.1630    0.0000 C.3     1  LIG1        0.1517
      5 C          -0.5000   -2.1630    0.0000 C.3     1  LIG1        0.1517
      6 N          -1.0000   -1.2920    0.0000 N.2     1  LIG1       -0.2668
      7 C           0.9960    0.4290    0.0000 C.ar    1  LIG1        0.0187
      8 C           1.9960    0.4290    0.0000 C.ar    1  LIG1        0.0015
      9 C           2.4960    1.2960    0.0000 C.ar    1  LIG1        0.0000
     10 C           1.9960    2.1670    0.0000 C.ar    1  LIG1        0.0000
     11 C           0.9960    2.1670    0.0000 C.ar    1  LIG1        0.0000
     12 C           0.4960    1.2960    0.0000 C.ar    1  LIG1        0.0015
     13 C          -1.0000    0.4290    0.0000 C.ar    1  LIG1        0.0187
     14 C          -2.0000    0.4290    0.0000 C.ar    1  LIG1        0.0015
     15 C          -2.5000    1.2960    0.0000 C.ar    1  LIG1        0.0000
     16 C          -2.0000    2.1670    0.0000 C.ar    1  LIG1        0.0000
     17 C          -1.0000    2.1670    0.0000 C.ar    1  LIG1        0.0000
     18 C          -0.5000    1.2960    0.0000 C.ar    1  LIG1        0.0015
@<TRIPOS>BOND
     1     1     2    1
     2     1     6    2
     3     1    13    1
     4     2     3    2
     5     2     7    1
     6     3     4    1
     7     4     5    1
     8     5     6    1
     9     7     8   ar
    10     7    12   ar
    11     8     9   ar
    12     9    10   ar
    13    10    11   ar
    14    11    12   ar
    15    13    14   ar
    16    13    18   ar
    17    14    15   ar
    18    15    16   ar
    19    16    17   ar
    20    17    18   ar
