@<TRIPOS>MOLECULE
35229_ChemDiv_8018-0095
 36 41 0 0 0
SMALL
GASTEIGER
Energy = 0

@<TRIPOS>ATOM
      1 N          -6.0330   -0.7210    0.0000 N.ar    1  LIG1       -0.2467
      2 C          -6.0420   -1.7170    0.0000 C.ar    1  LIG1        0.3339
      3 N          -5.1880   -2.2210    0.0000 N.ar    1  LIG1       -0.2791
      4 C          -4.3250   -1.7210    0.0000 C.ar    1  LIG1        0.0685
      5 C          -4.3250   -0.7290    0.0000 C.ar    1  LIG1        0.0723
      6 C          -5.1790   -0.2250    0.0000 C.ar    1  LIG1        0.2656
      7 O          -5.1750    0.7710    0.0000 O.2     1  LIG1       -0.2668
      8 C          -3.4630   -0.2210    0.0000 C.ar    1  LIG1        0.0108
      9 C          -2.6000   -0.7170    0.0000 C.ar    1  LIG1        0.0556
     10 C          -1.7290   -0.2170    0.0000 C.2     1  LIG1        0.2690
     11 N          -0.8630   -0.7080    0.0000 N.am    1  LIG1       -0.1754
     12 C           0.0000   -0.2080    0.0000 C.ar    1  LIG1        0.0737
     13 C          -0.0040    0.7830    0.0000 C.ar    1  LIG1        0.0168
     14 C           0.8580    1.2920    0.0000 C.ar    1  LIG1        0.0059
     15 C           1.7250    0.7920    0.0000 C.ar    1  LIG1        0.0551
     16 C           2.5960    1.2960    0.0000 C.2     1  LIG1        0.2647
     17 N           3.4630    0.8040    0.0000 N.am    1  LIG1       -0.2051
     18 C           4.3250    1.3080    0.0000 C.3     1  LIG1        0.0789
     19 C           5.3500    1.5540    0.0000 C.3     1  LIG1        0.0200
     20 C           5.9630    2.3880    0.0000 C.3     1  LIG1        0.0017
     21 C           5.4380    3.2250    0.0000 C.3     1  LIG1        0.0001
     22 C           4.4130    2.9420    0.0000 C.3     1  LIG1        0.0017
     23 C           3.8210    2.1460    0.0000 C.3     1  LIG1        0.0200
     24 C           5.2830    2.5830    0.0000 C.3     1  LIG1        0.0001
     25 C           5.7880    1.8170    0.0000 C.3     1  LIG1        0.0017
     26 C           5.2210    1.0330    0.0000 C.3     1  LIG1        0.0200
     27 C           6.9080    2.0290    0.0000 C.3     1  LIG1        0.0001
     28 O           2.5880    2.3040    0.0000 O.2     1  LIG1       -0.2684
     29 C           1.7330   -0.2080    0.0000 C.ar    1  LIG1        0.0059
     30 C           0.8710   -0.7080    0.0000 C.ar    1  LIG1        0.0168
     31 O          -1.7380    0.7920    0.0000 O.2     1  LIG1       -0.2680
     32 C          -2.5920   -1.7210    0.0000 C.ar    1  LIG1        0.0061
     33 C          -3.4630   -2.2210    0.0000 C.ar    1  LIG1        0.0176
     34 C          -5.1920   -3.2210    0.0000 C.3     1  LIG1        0.1351
     35 O          -6.9080   -2.2080    0.0000 O.2     1  LIG1       -0.2462
     36 C          -6.9000   -0.2080    0.0000 C.3     1  LIG1        0.1382
@<TRIPOS>BOND
     1     1     2   ar
     2     1     6   ar
     3     1    36    1
     4     2     3   ar
     5     2    35    2
     6     3     4   ar
     7     3    34    1
     8     4     5   ar
     9     4    33   ar
    10     5     6   ar
    11     5     8   ar
    12     6     7    2
    13     8     9   ar
    14     9    10    1
    15     9    32   ar
    16    10    11   am
    17    10    31    2
    18    11    12    1
    19    12    13   ar
    20    12    30   ar
    21    13    14   ar
    22    14    15   ar
    23    15    16    1
    24    15    29   ar
    25    16    17   am
    26    16    28    2
    27    17    18    1
    28    18    19    1
    29    18    23    1
    30    18    26    1
    31    19    20    1
    32    20    21    1
    33    20    27    1
    34    21    22    1
    35    22    23    1
    36    22    24    1
    37    24    25    1
    38    25    26    1
    39    25    27    1
    40    29    30   ar
    41    32    33   ar
