@<TRIPOS>MOLECULE
35222_ChemDiv_C280-1077
 27 30 0 0 0
SMALL
GASTEIGER
Energy = 0

@<TRIPOS>ATOM
      1 N          -0.1460   -2.9830    0.0000 N.ar    1  LIG1       -0.2733
      2 C          -0.1460   -1.9920    0.0000 C.ar    1  LIG1        0.1737
      3 N          -1.0170   -1.4790    0.0000 N.ar    1  LIG1       -0.2262
      4 C          -1.8710   -1.9920    0.0000 C.ar    1  LIG1        0.0722
      5 C          -1.8710   -2.9830    0.0000 C.ar    1  LIG1        0.0951
      6 C          -1.0170   -3.4920    0.0000 C.ar    1  LIG1        0.2692
      7 O          -1.0170   -4.4830    0.0000 O.2     1  LIG1       -0.2663
      8 S          -2.8210   -3.2830    0.0000 S.3     1  LIG1       -0.1075
      9 C          -3.3920   -2.4710    0.0000 C.3     1  LIG1        0.0687
     10 C          -2.8210   -1.6920    0.0000 C.3     1  LIG1        0.0585
     11 S           0.7420   -1.4790    0.0000 S.3     1  LIG1       -0.0674
     12 C           1.6170   -1.9920    0.0000 C.3     1  LIG1        0.1500
     13 C           2.4880   -1.5000    0.0000 C.2     1  LIG1        0.2372
     14 N           2.4960   -0.4880    0.0000 N.am    1  LIG1       -0.2753
     15 C           1.6250    0.0000    0.0000 C.3     1  LIG1        0.1148
     16 C           1.6460    1.0130    0.0000 C.3     1  LIG1        0.1123
     17 N           2.4960    1.5040    0.0000 N.pl3   1  LIG1       -0.3041
     18 C           3.3670    1.0130    0.0000 C.3     1  LIG1        0.1123
     19 C           3.3670    0.0000    0.0000 C.3     1  LIG1        0.1148
     20 C           2.5170    2.5170    0.0000 C.ar    1  LIG1        0.0479
     21 C           3.3880    2.9880    0.0000 C.ar    1  LIG1        0.0145
     22 C           3.3880    4.0040    0.0000 C.ar    1  LIG1        0.0013
     23 C           2.5250    4.4830    0.0000 C.ar    1  LIG1        0.0001
     24 C           1.6540    4.0040    0.0000 C.ar    1  LIG1        0.0013
     25 C           1.6540    2.9880    0.0000 C.ar    1  LIG1        0.0145
     26 O           3.3380   -1.9920    0.0000 O.2     1  LIG1       -0.2739
     27 C           0.7420   -3.4920    0.0000 C.3     1  LIG1        0.1355
@<TRIPOS>BOND
     1     1     2   ar
     2     1     6   ar
     3     1    27    1
     4     2     3   ar
     5     2    11    1
     6     3     4   ar
     7     4     5   ar
     8     4    10    1
     9     5     6   ar
    10     5     8    1
    11     6     7    2
    12     8     9    1
    13     9    10    1
    14    11    12    1
    15    12    13    1
    16    13    14   am
    17    13    26    2
    18    14    15    1
    19    14    19    1
    20    15    16    1
    21    16    17    1
    22    17    18    1
    23    17    20    1
    24    18    19    1
    25    20    21   ar
    26    20    25   ar
    27    21    22   ar
    28    22    23   ar
    29    23    24   ar
    30    24    25   ar
