@<TRIPOS>MOLECULE
35225_ChemDiv_8018-0030
 21 24 0 0 0
SMALL
GASTEIGER
Energy = 0

@<TRIPOS>ATOM
      1 N           0.8670    0.9710    0.0000 N.ar    1  LIG1       -0.2579
      2 C           1.4540    1.7790    0.0000 C.ar    1  LIG1        0.4222
      3 O           0.8670    2.5920    0.0000 O.2     1  LIG1       -0.4068
      4 C          -0.0830    2.2790    0.0000 C.ar    1  LIG1        0.1660
      5 C          -0.0830    1.2790    0.0000 C.ar    1  LIG1        0.1003
      6 C          -0.9460    0.7790    0.0000 C.ar    1  LIG1        0.0205
      7 C          -1.8170    1.2790    0.0000 C.ar    1  LIG1        0.0017
      8 C          -1.8170    2.2790    0.0000 C.ar    1  LIG1        0.0032
      9 C          -0.9460    2.7830    0.0000 C.ar    1  LIG1        0.0392
     10 O           2.4500    1.7790    0.0000 O.2     1  LIG1       -0.2226
     11 C           1.1710    0.0250    0.0000 C.3     1  LIG1        0.1395
     12 C           0.5040   -0.7170    0.0000 C.ar    1  LIG1        0.0100
     13 C           0.8210   -1.6670    0.0000 C.ar    1  LIG1        0.0356
     14 C           0.1460   -2.4130    0.0000 C.ar    1  LIG1        0.0466
     15 C          -0.8330   -2.2000    0.0000 C.ar    1  LIG1        0.1769
     16 C          -1.1420   -1.2500    0.0000 C.ar    1  LIG1        0.1762
     17 C          -0.4710   -0.5040    0.0000 C.ar    1  LIG1        0.0383
     18 O          -2.1420   -1.2420    0.0000 O.3     1  LIG1       -0.4346
     19 C          -2.4540   -2.1920    0.0000 C.3     1  LIG1        0.4294
     20 O          -1.6460   -2.7790    0.0000 O.3     1  LIG1       -0.4346
     21 BR          1.7960   -1.8750    0.0000 Br      1  LIG1       -0.0492
@<TRIPOS>BOND
     1     1     2   ar
     2     1     5   ar
     3     1    11    1
     4     2     3   ar
     5     2    10    2
     6     3     4   ar
     7     4     5   ar
     8     4     9   ar
     9     5     6   ar
    10     6     7   ar
    11     7     8   ar
    12     8     9   ar
    13    11    12    1
    14    12    13   ar
    15    12    17   ar
    16    13    14   ar
    17    13    21    1
    18    14    15   ar
    19    15    16   ar
    20    15    20    1
    21    16    17   ar
    22    16    18    1
    23    18    19    1
    24    19    20    1
