@<TRIPOS>MOLECULE
35220_ChemDiv_C280-0992
 28 31 0 0 0
SMALL
GASTEIGER
Energy = 0

@<TRIPOS>ATOM
      1 C          -1.7710   -1.0420    0.0000 C.ar    1  LIG1        0.0951
      2 C          -0.9210   -1.5420    0.0000 C.ar    1  LIG1        0.2691
      3 N          -0.0420   -1.0420    0.0000 N.ar    1  LIG1       -0.2749
      4 C          -0.0420   -0.0380    0.0000 C.ar    1  LIG1        0.1736
      5 N          -0.9210    0.4630    0.0000 N.ar    1  LIG1       -0.2262
      6 C          -1.7710   -0.0380    0.0000 C.ar    1  LIG1        0.0722
      7 C          -2.7210    0.2710    0.0000 C.3     1  LIG1        0.0576
      8 C          -3.3040   -0.5290    0.0000 C.3     1  LIG1        0.0581
      9 S          -2.7210   -1.3460    0.0000 S.3     1  LIG1       -0.1084
     10 C          -4.3040   -0.5130    0.0000 C.3     1  LIG1        0.0124
     11 S           0.8330    0.4710    0.0000 S.3     1  LIG1       -0.0674
     12 C           1.6960   -0.0290    0.0000 C.3     1  LIG1        0.1500
     13 C           2.5670    0.4710    0.0000 C.2     1  LIG1        0.2371
     14 N           2.5670    1.4710    0.0000 N.am    1  LIG1       -0.2788
     15 C           1.8130    2.1330    0.0000 C.3     1  LIG1        0.0935
     16 C           2.2330    3.0500    0.0000 C.3     1  LIG1        0.0233
     17 C           3.2170    2.9500    0.0000 C.3     1  LIG1        0.0233
     18 C           3.4250    1.9710    0.0000 C.3     1  LIG1        0.0935
     19 O           3.4290   -0.0290    0.0000 O.2     1  LIG1       -0.2739
     20 C           0.8330   -1.5460    0.0000 C.3     1  LIG1        0.1156
     21 C           1.6960   -1.0460    0.0000 C.3     1  LIG1        0.0510
     22 C           2.5670   -1.5460    0.0000 C.ar    1  LIG1       -0.0202
     23 C           2.5670   -2.5460    0.0000 C.ar    1  LIG1       -0.0042
     24 C           3.4250   -3.0460    0.0000 C.ar    1  LIG1       -0.0003
     25 C           4.3000   -2.5460    0.0000 C.ar    1  LIG1       -0.0000
     26 C           4.3000   -1.5460    0.0000 C.ar    1  LIG1       -0.0003
     27 C           3.4290   -1.0460    0.0000 C.ar    1  LIG1       -0.0042
     28 O          -0.9210   -2.5420    0.0000 O.2     1  LIG1       -0.2663
@<TRIPOS>BOND
     1     1     2   ar
     2     1     6   ar
     3     1     9    1
     4     2     3   ar
     5     2    28    2
     6     3     4   ar
     7     3    20    1
     8     4     5   ar
     9     4    11    1
    10     5     6   ar
    11     6     7    1
    12     7     8    1
    13     8     9    1
    14     8    10    1
    15    11    12    1
    16    12    13    1
    17    13    14   am
    18    13    19    2
    19    14    15    1
    20    14    18    1
    21    15    16    1
    22    16    17    1
    23    17    18    1
    24    20    21    1
    25    21    22    1
    26    22    23   ar
    27    22    27   ar
    28    23    24   ar
    29    24    25   ar
    30    25    26   ar
    31    26    27   ar
