@<TRIPOS>MOLECULE
35239_ChemDiv_8017-4908
 24 26 0 0 0
SMALL
GASTEIGER
Energy = 0

@<TRIPOS>ATOM
      1 N           1.9420    2.2290    0.0000 N.ar    1  LIG1       -0.1770
      2 C           1.9880    1.2330    0.0000 C.ar    1  LIG1        0.2401
      3 N           1.1500    0.6960    0.0000 N.ar    1  LIG1       -0.1965
      4 C           0.2670    1.1580    0.0000 C.ar    1  LIG1        0.1559
      5 N           0.2210    2.1460    0.0000 N.ar    1  LIG1       -0.1952
      6 C           1.0500    2.6830    0.0000 C.ar    1  LIG1        0.2601
      7 N           1.0000    3.6920    0.0000 N.pl3   1  LIG1       -0.0859
      8 C          -0.5710    0.6210    0.0000 C.3     1  LIG1        0.1236
      9 S          -1.4670    1.0790    0.0000 S.3     1  LIG1       -0.1240
     10 C          -2.3080    0.5330    0.0000 C.3     1  LIG1        0.1222
     11 C          -3.2040    0.9920    0.0000 C.ar    1  LIG1        0.1339
     12 O          -4.0960    0.5420    0.0000 O.2     1  LIG1       -0.4538
     13 C          -4.7960    1.2540    0.0000 C.ar    1  LIG1        0.1792
     14 C          -4.3420    2.1460    0.0000 C.ar    1  LIG1        0.0435
     15 C          -3.3540    1.9830    0.0000 C.ar    1  LIG1        0.0371
     16 N           2.8750    0.7710    0.0000 N.pl3   1  LIG1       -0.2034
     17 C           2.9170   -0.2210    0.0000 C.3     1  LIG1        0.1200
     18 C           3.8130   -0.6880    0.0000 C.3     1  LIG1        0.0498
     19 C           3.8630   -1.6920    0.0000 C.ar    1  LIG1       -0.0204
     20 C           4.7500   -2.1500    0.0000 C.ar    1  LIG1       -0.0042
     21 C           4.7920   -3.1420    0.0000 C.ar    1  LIG1       -0.0003
     22 C           3.9540   -3.6880    0.0000 C.ar    1  LIG1       -0.0000
     23 C           3.0670   -3.2290    0.0000 C.ar    1  LIG1       -0.0003
     24 C           3.0170   -2.2290    0.0000 C.ar    1  LIG1       -0.0042
@<TRIPOS>BOND
     1     1     2   ar
     2     1     6   ar
     3     2     3   ar
     4     2    16    1
     5     3     4   ar
     6     4     5   ar
     7     4     8    1
     8     5     6   ar
     9     6     7    1
    10     8     9    1
    11     9    10    1
    12    10    11    1
    13    11    12   ar
    14    11    15   ar
    15    12    13   ar
    16    13    14   ar
    17    14    15   ar
    18    16    17    1
    19    17    18    1
    20    18    19    1
    21    19    20   ar
    22    19    24   ar
    23    20    21   ar
    24    21    22   ar
    25    22    23   ar
    26    23    24   ar
