@<TRIPOS>MOLECULE
35231_ChemDiv_8018-0208
 33 37 0 0 0
SMALL
GASTEIGER
Energy = 0

@<TRIPOS>ATOM
      1 N           0.8540    3.2250    0.0000 N.ar    1  LIG1       -0.2118
      2 C          -0.0960    2.9250    0.0000 C.ar    1  LIG1        0.1201
      3 C          -0.0960    1.9290    0.0000 C.ar    1  LIG1        0.1795
      4 C          -0.9540    1.4170    0.0000 C.ar    1  LIG1        0.1095
      5 N          -0.9540    0.4290    0.0000 N.am    1  LIG1       -0.1761
      6 C          -0.0960   -0.0880    0.0000 C.2     1  LIG1        0.2460
      7 C          -0.0960   -1.0750    0.0000 C.3     1  LIG1        0.0915
      8 C           0.8290   -1.4920    0.0000 C.3     1  LIG1        0.0315
      9 C           0.9290   -2.4920    0.0000 C.ar    1  LIG1       -0.0260
     10 C           1.9290   -2.7000    0.0000 C.ar    1  LIG1       -0.0261
     11 C           2.4210   -1.8290    0.0000 C.3     1  LIG1        0.0264
     12 C           1.7460   -1.0750    0.0000 C.3     1  LIG1        0.0095
     13 C           2.2750   -3.6880    0.0000 C.ar    1  LIG1       -0.0046
     14 C           1.5830   -4.4170    0.0000 C.ar    1  LIG1       -0.0003
     15 C           0.5580   -4.2380    0.0000 C.ar    1  LIG1       -0.0003
     16 C           0.2920   -3.2500    0.0000 C.ar    1  LIG1       -0.0046
     17 O           0.7710    0.4290    0.0000 O.2     1  LIG1       -0.2730
     18 C          -1.8210    1.9290    0.0000 C.ar    1  LIG1        0.0262
     19 C          -1.8210    2.9250    0.0000 C.ar    1  LIG1        0.0786
     20 C          -2.6830    3.4250    0.0000 C.2     1  LIG1        0.3414
     21 O          -2.6710    4.4170    0.0000 O.2     1  LIG1       -0.2449
     22 O          -3.5580    2.9250    0.0000 O.3     1  LIG1       -0.4413
     23 C          -4.4040    3.4250    0.0000 C.3     1  LIG1        0.2560
     24 C          -0.9540    3.4000    0.0000 C.ar    1  LIG1        0.0288
     25 O           0.8540    1.6130    0.0000 O.2     1  LIG1       -0.4367
     26 C           1.4290    2.4130    0.0000 C.ar    1  LIG1        0.2102
     27 C           2.4210    2.4130    0.0000 C.3     1  LIG1        0.1116
     28 C           2.9080    1.5670    0.0000 C.ar    1  LIG1       -0.0129
     29 C           2.4210    0.7000    0.0000 C.ar    1  LIG1       -0.0038
     30 C           2.9330   -0.1580    0.0000 C.ar    1  LIG1       -0.0003
     31 C           3.9130   -0.1580    0.0000 C.ar    1  LIG1       -0.0000
     32 C           4.4000    0.7250    0.0000 C.ar    1  LIG1       -0.0003
     33 C           3.8880    1.5670    0.0000 C.ar    1  LIG1       -0.0038
@<TRIPOS>BOND
     1     1     2   ar
     2     1    26   ar
     3     2     3   ar
     4     2    24   ar
     5     3     4   ar
     6     3    25   ar
     7     4     5    1
     8     4    18   ar
     9     5     6   am
    10     6     7    1
    11     6    17    2
    12     7     8    1
    13     8     9    1
    14     8    12    1
    15     9    10   ar
    16     9    16   ar
    17    10    11    1
    18    10    13   ar
    19    11    12    1
    20    13    14   ar
    21    14    15   ar
    22    15    16   ar
    23    18    19   ar
    24    19    20    1
    25    19    24   ar
    26    20    21    2
    27    20    22    1
    28    22    23    1
    29    25    26   ar
    30    26    27    1
    31    27    28    1
    32    28    29   ar
    33    28    33   ar
    34    29    30   ar
    35    30    31   ar
    36    31    32   ar
    37    32    33   ar
