@<TRIPOS>MOLECULE
35233_ChemDiv_8017-4598
 18 20 0 0 0
SMALL
GASTEIGER
Energy = 0

@<TRIPOS>ATOM
      1 N          -0.7920   -0.5420    0.0000 N.ar    1  LIG1       -0.2507
      2 N          -1.6670   -1.0420    0.0000 N.ar    1  LIG1       -0.1737
      3 C          -2.4040   -0.3750    0.0000 C.ar    1  LIG1        0.0801
      4 C          -1.9960    0.5460    0.0000 C.ar    1  LIG1        0.0308
      5 C          -1.0040    0.4330    0.0000 C.ar    1  LIG1        0.0575
      6 C          -0.3290    1.1750    0.0000 C.3     1  LIG1        0.0518
      7 C          -3.3920   -0.5790    0.0000 C.3     1  LIG1        0.0540
      8 C           0.0670   -1.0540    0.0000 C.3     1  LIG1        0.1540
      9 C           0.9290   -0.5420    0.0000 C.ar    1  LIG1        0.0115
     10 C           1.8000   -1.0380    0.0000 C.ar    1  LIG1        0.0357
     11 C           2.6540   -0.5290    0.0000 C.ar    1  LIG1        0.0466
     12 C           2.6420    0.4630    0.0000 C.ar    1  LIG1        0.1769
     13 C           1.7790    0.9580    0.0000 C.ar    1  LIG1        0.1762
     14 C           0.9170    0.4580    0.0000 C.ar    1  LIG1        0.0383
     15 O           1.9790    1.9380    0.0000 O.3     1  LIG1       -0.4346
     16 C           2.9750    2.0460    0.0000 C.3     1  LIG1        0.4294
     17 O           3.3880    1.1330    0.0000 O.3     1  LIG1       -0.4346
     18 BR          1.8040   -2.0420    0.0000 Br      1  LIG1       -0.0492
@<TRIPOS>BOND
     1     1     2   ar
     2     1     5   ar
     3     1     8    1
     4     2     3   ar
     5     3     4   ar
     6     3     7    1
     7     4     5   ar
     8     5     6    1
     9     8     9    1
    10     9    10   ar
    11     9    14   ar
    12    10    11   ar
    13    10    18    1
    14    11    12   ar
    15    12    13   ar
    16    12    17    1
    17    13    14   ar
    18    13    15    1
    19    15    16    1
    20    16    17    1
