@<TRIPOS>MOLECULE
35245_ChemDiv_8017-5169
 31 36 0 0 0
SMALL
GASTEIGER
Energy = 0

@<TRIPOS>ATOM
      1 C           2.0920    0.9710    0.0000 C.ar    1  LIG1        0.1518
      2 N           1.0920    0.9880    0.0000 N.ar    1  LIG1       -0.3024
      3 C           0.8040    1.9460    0.0000 C.ar    1  LIG1        0.0793
      4 C           1.6290    2.5170    0.0000 C.ar    1  LIG1        0.0987
      5 N           2.4170    1.9080    0.0000 N.ar    1  LIG1       -0.2262
      6 C           1.5500    3.5080    0.0000 C.ar    1  LIG1        0.0206
      7 C           0.6420    3.9330    0.0000 C.ar    1  LIG1        0.0016
      8 C          -0.1830    3.3580    0.0000 C.ar    1  LIG1        0.0016
      9 C          -0.0960    2.3710    0.0000 C.ar    1  LIG1        0.0188
     10 C           0.4920    0.1960    0.0000 C.3     1  LIG1        0.1946
     11 C           0.5750   -0.8080    0.0000 C.2     1  LIG1        0.2645
     12 N          -0.2500   -1.3790    0.0000 N.am    1  LIG1       -0.2056
     13 C          -1.2380   -1.1830    0.0000 C.3     1  LIG1        0.0953
     14 C          -1.8960   -1.9460    0.0000 C.3     1  LIG1        0.0185
     15 C          -2.0080   -2.9960    0.0000 C.3     1  LIG1        0.0017
     16 C          -2.9750   -3.1790    0.0000 C.3     1  LIG1        0.0001
     17 C          -3.6580   -3.9290    0.0000 C.3     1  LIG1        0.0000
     18 C          -3.4380   -2.8080    0.0000 C.3     1  LIG1        0.0001
     19 C          -2.5380   -2.6210    0.0000 C.3     1  LIG1        0.0017
     20 C          -3.9580   -1.9960    0.0000 C.3     1  LIG1        0.0000
     21 C          -3.3830   -1.2710    0.0000 C.3     1  LIG1        0.0001
     22 C          -2.4130   -1.1040    0.0000 C.3     1  LIG1        0.0017
     23 C          -3.5330   -2.3040    0.0000 C.3     1  LIG1        0.0000
     24 C          -1.5630   -0.2420    0.0000 C.3     1  LIG1        0.0217
     25 C          -0.9130    0.5210    0.0000 C.3     1  LIG1        0.0018
     26 O           1.4790   -1.2330    0.0000 O.2     1  LIG1       -0.2712
     27 C           2.6630    0.1460    0.0000 C.ar    1  LIG1        0.0841
     28 S           2.3290   -0.8040    0.0000 S.2     1  LIG1       -0.0614
     29 C           3.1290   -1.4080    0.0000 C.ar    1  LIG1        0.1346
     30 N           3.9540   -0.8330    0.0000 N.ar    1  LIG1       -0.2346
     31 C           3.6630    0.1250    0.0000 C.ar    1  LIG1        0.1090
@<TRIPOS>BOND
     1     1     2   ar
     2     1     5   ar
     3     1    27    1
     4     2     3   ar
     5     2    10    1
     6     3     4   ar
     7     3     9   ar
     8     4     5   ar
     9     4     6   ar
    10     6     7   ar
    11     7     8   ar
    12     8     9   ar
    13    10    11    1
    14    11    12   am
    15    11    26    2
    16    12    13    1
    17    13    14    1
    18    13    24    1
    19    14    15    1
    20    14    19    1
    21    14    22    1
    22    15    16    1
    23    16    17    1
    24    16    23    1
    25    17    18    1
    26    18    19    1
    27    18    20    1
    28    20    21    1
    29    21    22    1
    30    21    23    1
    31    24    25    1
    32    27    28   ar
    33    27    31   ar
    34    28    29   ar
    35    29    30   ar
    36    30    31   ar
