@<TRIPOS>MOLECULE
35241_ChemDiv_8017-4976
 25 27 0 0 0
SMALL
GASTEIGER
Energy = 0

@<TRIPOS>ATOM
      1 N          -2.6330    1.4380    0.0000 N.ar    1  LIG1       -0.2520
      2 N          -3.5330    1.0000    0.0000 N.ar    1  LIG1       -0.1734
      3 C          -4.2250    1.7250    0.0000 C.ar    1  LIG1        0.0862
      4 C          -3.7500    2.6080    0.0000 C.ar    1  LIG1        0.0629
      5 C          -2.7710    2.4210    0.0000 C.ar    1  LIG1        0.0634
      6 C          -2.0460    3.1130    0.0000 C.3     1  LIG1        0.0523
      7 BR         -4.1830    3.5080    0.0000 Br      1  LIG1       -0.0465
      8 C          -5.2210    1.5960    0.0000 C.3     1  LIG1        0.0545
      9 C          -1.7460    0.9580    0.0000 C.3     1  LIG1        0.1637
     10 C          -0.8960    1.4830    0.0000 C.3     1  LIG1        0.2195
     11 C           0.0000    1.0080    0.0000 C.3     1  LIG1        0.2401
     12 O           0.0290   -0.0170    0.0000 O.3     1  LIG1       -0.4726
     13 C           0.9040   -0.5170    0.0000 C.ar    1  LIG1        0.1387
     14 C           0.9040   -1.5040    0.0000 C.ar    1  LIG1        0.0369
     15 C           1.7540   -2.0040    0.0000 C.ar    1  LIG1        0.0031
     16 C           2.6290   -1.5040    0.0000 C.ar    1  LIG1        0.0002
     17 C           3.4920   -2.0040    0.0000 C.ar    1  LIG1        0.0000
     18 C           4.3540   -1.5040    0.0000 C.ar    1  LIG1        0.0000
     19 C           5.2130   -2.0040    0.0000 C.ar    1  LIG1        0.0000
     20 C           5.2170   -3.0040    0.0000 C.ar    1  LIG1        0.0000
     21 C           4.3420   -3.5040    0.0000 C.ar    1  LIG1        0.0000
     22 C           3.4920   -3.0040    0.0000 C.ar    1  LIG1        0.0000
     23 C           2.6290   -0.5170    0.0000 C.ar    1  LIG1        0.0031
     24 C           1.7540   -0.0170    0.0000 C.ar    1  LIG1        0.0369
     25 O          -0.9250    2.4830    0.0000 O.3     1  LIG1       -0.2170
@<TRIPOS>BOND
     1     1     2   ar
     2     1     5   ar
     3     1     9    1
     4     2     3   ar
     5     3     4   ar
     6     3     8    1
     7     4     5   ar
     8     4     7    1
     9     5     6    1
    10     9    10    1
    11    10    11    1
    12    10    25    1
    13    11    12    1
    14    12    13    1
    15    13    14   ar
    16    13    24   ar
    17    14    15   ar
    18    15    16   ar
    19    16    17    1
    20    16    23   ar
    21    17    18   ar
    22    17    22   ar
    23    18    19   ar
    24    19    20   ar
    25    20    21   ar
    26    21    22   ar
    27    23    24   ar
