@<TRIPOS>MOLECULE
35243_ChemDiv_8017-4984
 28 33 0 0 0
SMALL
GASTEIGER
Energy = 0

@<TRIPOS>ATOM
      1 C          -2.6920   -0.0330    0.0000 C.3     1  LIG1        0.0457
      2 N          -1.7290   -0.0330    0.0000 N.4     1  LIG1        0.3718
      3 C          -1.2290    0.8290    0.0000 C.3     1  LIG1        0.1600
      4 C          -0.2330    0.8290    0.0000 C.3     1  LIG1        0.1565
      5 N           0.2670   -0.0330    0.0000 N.am    1  LIG1       -0.2665
      6 C           1.2750   -0.0330    0.0000 C.2     1  LIG1        0.2491
      7 C           1.7750    0.8290    0.0000 C.3     1  LIG1        0.1931
      8 N           2.7750    0.8210    0.0000 N.ar    1  LIG1       -0.3004
      9 C           3.3630    1.6330    0.0000 C.ar    1  LIG1        0.1789
     10 N           4.3130    1.3290    0.0000 N.ar    1  LIG1       -0.2239
     11 C           4.3130    0.3210    0.0000 C.ar    1  LIG1        0.0988
     12 C           3.3630    0.0170    0.0000 C.ar    1  LIG1        0.0793
     13 C           3.1540   -0.9630    0.0000 C.ar    1  LIG1        0.0188
     14 C           3.8920   -1.6290    0.0000 C.ar    1  LIG1        0.0016
     15 C           4.8500   -1.3250    0.0000 C.ar    1  LIG1        0.0016
     16 C           5.0540   -0.3460    0.0000 C.ar    1  LIG1        0.0206
     17 O           1.7750   -0.9040    0.0000 O.2     1  LIG1       -0.2728
     18 C          -0.2330   -0.9040    0.0000 C.3     1  LIG1        0.1565
     19 C          -1.2290   -0.9040    0.0000 C.3     1  LIG1        0.1600
     20 C          -3.2830   -0.4500    0.0000 C.3     1  LIG1        0.0512
     21 C          -4.4670   -0.1080    0.0000 C.3     1  LIG1        0.0055
     22 C          -5.0580   -0.7920    0.0000 C.3     1  LIG1        0.0004
     23 C          -4.0920   -0.5170    0.0000 C.3     1  LIG1        0.0055
     24 C          -3.2540   -0.7920    0.0000 C.3     1  LIG1        0.0512
     25 C          -4.0920    0.6080    0.0000 C.3     1  LIG1        0.0004
     26 C          -3.5790    1.4960    0.0000 C.3     1  LIG1        0.0055
     27 C          -2.6920    0.9830    0.0000 C.3     1  LIG1        0.0512
     28 C          -4.4670    0.9830    0.0000 C.3     1  LIG1        0.0004
@<TRIPOS>BOND
     1     1     2    1
     2     1    20    1
     3     1    24    1
     4     1    27    1
     5     2     3    1
     6     2    19    1
     7     3     4    1
     8     4     5    1
     9     5     6   am
    10     5    18    1
    11     6     7    1
    12     6    17    2
    13     7     8    1
    14     8     9   ar
    15     8    12   ar
    16     9    10   ar
    17    10    11   ar
    18    11    12   ar
    19    11    16   ar
    20    12    13   ar
    21    13    14   ar
    22    14    15   ar
    23    15    16   ar
    24    18    19    1
    25    20    21    1
    26    21    22    1
    27    21    28    1
    28    22    23    1
    29    23    24    1
    30    23    25    1
    31    25    26    1
    32    26    27    1
    33    26    28    1
