@<TRIPOS>MOLECULE
35249_ChemDiv_8018-0213
 19 21 0 0 0
SMALL
GASTEIGER
Energy = 0

@<TRIPOS>ATOM
      1 P           1.7170   -0.7540    0.0000 P.3     1  LIG1        0.1780
      2 N           0.8540   -1.2500    0.0000 N.pl3   1  LIG1       -0.2608
      3 C          -0.0080   -0.7540    0.0000 C.ar    1  LIG1        0.0869
      4 C          -0.0080    0.2460    0.0000 C.ar    1  LIG1        0.0692
      5 C           0.8540    0.7500    0.0000 C.2     1  LIG1        0.2271
      6 N           1.7170    0.2460    0.0000 N.2     1  LIG1       -0.1919
      7 O           0.8540    1.7500    0.0000 O.2     1  LIG1       -0.4561
      8 C           1.7170    2.2580    0.0000 C.3     1  LIG1        0.2542
      9 C          -0.9580    0.5580    0.0000 C.ar    1  LIG1       -0.0139
     10 C          -1.5460   -0.2540    0.0000 C.ar    1  LIG1        0.0047
     11 S          -0.9580   -1.0670    0.0000 S.2     1  LIG1       -0.0766
     12 C          -2.5460   -0.1540    0.0000 C.3     1  LIG1        0.0327
     13 C          -2.9460    0.7710    0.0000 C.3     1  LIG1        0.0055
     14 C          -2.3580    1.5750    0.0000 C.3     1  LIG1        0.0050
     15 C          -1.3580    1.4710    0.0000 C.3     1  LIG1        0.0268
     16 C           0.8540   -2.2540    0.0000 C.3     1  LIG1        0.1191
     17 S           2.6790   -0.4920    0.0000 S.2     1  LIG1       -0.0112
     18 S           1.9750   -1.7170    0.0000 S.3     1  LIG1       -0.0760
     19 C           2.9420   -1.9790    0.0000 C.3     1  LIG1        0.0773
@<TRIPOS>BOND
     1     1     2    1
     2     1     6    1
     3     1    17    2
     4     1    18    1
     5     2     3    1
     6     2    16    1
     7     3     4   ar
     8     3    11   ar
     9     4     5    1
    10     4     9   ar
    11     5     6    2
    12     5     7    1
    13     7     8    1
    14     9    10   ar
    15     9    15    1
    16    10    11   ar
    17    10    12    1
    18    12    13    1
    19    13    14    1
    20    14    15    1
    21    18    19    1
