@<TRIPOS>MOLECULE
35250_ChemDiv_C034-0485
 26 29 0 0 0
SMALL
GASTEIGER
Energy = 0

@<TRIPOS>ATOM
      1 N          -0.6750    1.9670    0.0000 N.am    1  LIG1       -0.2206
      2 C          -0.5710    2.9670    0.0000 C.2     1  LIG1        0.2321
      3 C           0.4130    3.1790    0.0000 C.3     1  LIG1        0.0900
      4 C           0.9130    2.3000    0.0000 C.3     1  LIG1        0.0900
      5 C           0.2420    1.5460    0.0000 C.2     1  LIG1        0.2321
      6 O           0.4420    0.5790    0.0000 O.2     1  LIG1       -0.2744
      7 C           1.9250    2.2960    0.0000 C.3     1  LIG1        0.0308
      8 C           2.4290    3.1790    0.0000 C.2     1  LIG1       -0.0305
      9 C           1.9290    4.0420    0.0000 C.2     1  LIG1       -0.0305
     10 C           0.9130    4.0420    0.0000 C.3     1  LIG1        0.0308
     11 C           0.9250    3.0380    0.0000 C.3     1  LIG1        0.0052
     12 C           1.8380    3.2250    0.0000 C.3     1  LIG1        0.0052
     13 O          -1.3250    3.6460    0.0000 O.2     1  LIG1       -0.2744
     14 C          -1.5540    1.4670    0.0000 C.3     1  LIG1        0.1874
     15 C          -1.5580    0.4750    0.0000 C.2     1  LIG1        0.2624
     16 N          -2.4330   -0.0250    0.0000 N.am    1  LIG1       -0.1991
     17 C          -2.4330   -1.0290    0.0000 C.3     1  LIG1        0.1415
     18 C          -1.5580   -1.5250    0.0000 C.ar    1  LIG1       -0.0004
     19 C          -0.6920   -1.0380    0.0000 C.ar    1  LIG1        0.0006
     20 C           0.1750   -1.5420    0.0000 C.ar    1  LIG1        0.0366
     21 C           0.1750   -2.5330    0.0000 C.ar    1  LIG1        0.1387
     22 C          -0.6920   -3.0380    0.0000 C.ar    1  LIG1        0.0366
     23 C          -1.5580   -2.5330    0.0000 C.ar    1  LIG1        0.0006
     24 O           1.0460   -3.0380    0.0000 O.3     1  LIG1       -0.4714
     25 C           1.0380   -4.0420    0.0000 C.3     1  LIG1        0.2525
     26 O          -0.6790   -0.0250    0.0000 O.2     1  LIG1       -0.2715
@<TRIPOS>BOND
     1     1     2   am
     2     1     5   am
     3     1    14    1
     4     2     3    1
     5     2    13    2
     6     3     4    1
     7     3    10    1
     8     4     5    1
     9     4     7    1
    10     5     6    2
    11     7     8    1
    12     7    12    1
    13     8     9    2
    14     9    10    1
    15    10    11    1
    16    11    12    1
    17    14    15    1
    18    15    16   am
    19    15    26    2
    20    16    17    1
    21    17    18    1
    22    18    19   ar
    23    18    23   ar
    24    19    20   ar
    25    20    21   ar
    26    21    22   ar
    27    21    24    1
    28    22    23   ar
    29    24    25    1
