@<TRIPOS>MOLECULE
35255_ChemDiv_8018-0223
 29 32 0 0 0
SMALL
GASTEIGER
Energy = 0

@<TRIPOS>ATOM
      1 N           1.6000    0.2920    0.0000 N.ar    1  LIG1       -0.1754
      2 C           1.2880   -0.6540    0.0000 C.ar    1  LIG1        0.1887
      3 N           0.2880   -0.6540    0.0000 N.ar    1  LIG1       -0.2703
      4 C          -0.0170    0.2920    0.0000 C.ar    1  LIG1        0.1903
      5 N           0.7880    0.8830    0.0000 N.ar    1  LIG1       -0.1456
      6 C          -0.9670    0.6040    0.0000 C.3     1  LIG1        0.2706
      7 O          -1.1790    1.5790    0.0000 O.3     1  LIG1       -0.4673
      8 C          -2.1210    1.8880    0.0000 C.ar    1  LIG1        0.1389
      9 C          -2.8580    1.2080    0.0000 C.ar    1  LIG1        0.0324
     10 C          -3.8170    1.5080    0.0000 C.ar    1  LIG1       -0.0228
     11 C          -4.0330    2.4960    0.0000 C.ar    1  LIG1       -0.0256
     12 C          -3.2920    3.1710    0.0000 C.ar    1  LIG1       -0.0015
     13 C          -2.3330    2.8670    0.0000 C.ar    1  LIG1        0.0366
     14 C          -4.9920    2.7960    0.0000 C.3     1  LIG1        0.0307
     15 C          -4.5540    0.8330    0.0000 C.3     1  LIG1        0.0308
     16 C          -0.3040   -1.4630    0.0000 C.ar    1  LIG1        0.0670
     17 C          -1.2920   -1.3540    0.0000 C.ar    1  LIG1        0.0176
     18 C          -1.8790   -2.1540    0.0000 C.ar    1  LIG1        0.0015
     19 C          -1.4710   -3.0670    0.0000 C.ar    1  LIG1        0.0001
     20 C          -0.4790   -3.1670    0.0000 C.ar    1  LIG1        0.0015
     21 C           0.1040   -2.3670    0.0000 C.ar    1  LIG1        0.0176
     22 S           1.8750   -1.4670    0.0000 S.2     1  LIG1       -0.0107
     23 C           2.5500    0.6040    0.0000 C.3     1  LIG1        0.2772
     24 N           3.2920   -0.0630    0.0000 N.4     1  LIG1        0.4007
     25 C           3.0750   -1.0380    0.0000 C.3     1  LIG1        0.1742
     26 C           3.8170   -1.7130    0.0000 C.3     1  LIG1        0.2048
     27 O           4.7670   -1.4130    0.0000 O.3     1  LIG1       -0.3411
     28 C           4.9880   -0.4290    0.0000 C.3     1  LIG1        0.2048
     29 C           4.2420    0.2420    0.0000 C.3     1  LIG1        0.1742
@<TRIPOS>BOND
     1     1     2   ar
     2     1     5   ar
     3     1    23    1
     4     2     3   ar
     5     2    22    2
     6     3     4   ar
     7     3    16    1
     8     4     5   ar
     9     4     6    1
    10     6     7    1
    11     7     8    1
    12     8     9   ar
    13     8    13   ar
    14     9    10   ar
    15    10    11   ar
    16    10    15    1
    17    11    12   ar
    18    11    14    1
    19    12    13   ar
    20    16    17   ar
    21    16    21   ar
    22    17    18   ar
    23    18    19   ar
    24    19    20   ar
    25    20    21   ar
    26    23    24    1
    27    24    25    1
    28    24    29    1
    29    25    26    1
    30    26    27    1
    31    27    28    1
    32    28    29    1
