@<TRIPOS>MOLECULE
35251_ChemDiv_8018-0214
 19 21 0 0 0
SMALL
GASTEIGER
Energy = 0

@<TRIPOS>ATOM
      1 C          -0.9130    1.0710    0.0000 C.ar    1  LIG1        0.1722
      2 C          -0.9130    0.0710    0.0000 C.ar    1  LIG1        0.1183
      3 C          -0.0460   -0.4290    0.0000 C.2     1  LIG1        0.1264
      4 N           0.8170    0.0710    0.0000 N.2     1  LIG1       -0.2169
      5 P           0.8170    1.0710    0.0000 P.3     1  LIG1        0.1922
      6 N          -0.0460    1.5710    0.0000 N.pl3   1  LIG1       -0.1693
      7 S           1.3040    1.9330    0.0000 S.2     1  LIG1       -0.0100
      8 S           1.6750    0.5710    0.0000 S.3     1  LIG1       -0.0757
      9 C           2.5380    1.0710    0.0000 C.3     1  LIG1        0.0653
     10 C           3.4080    0.5710    0.0000 C.3     1  LIG1        0.0130
     11 S          -0.0460   -1.4290    0.0000 S.3     1  LIG1       -0.0935
     12 C           0.8130   -1.9290    0.0000 C.3     1  LIG1        0.0637
     13 C           1.6750   -1.4250    0.0000 C.3     1  LIG1        0.0130
     14 N          -1.8630   -0.2420    0.0000 N.ar    1  LIG1       -0.3122
     15 C          -2.4580    0.5710    0.0000 C.ar    1  LIG1        0.1219
     16 N          -1.8630    1.3750    0.0000 N.ar    1  LIG1       -0.2144
     17 C          -3.4130    0.2580    0.0000 C.3     1  LIG1        0.0660
     18 C          -3.4130   -0.7420    0.0000 C.3     1  LIG1        0.0324
     19 C          -2.4580   -1.0540    0.0000 C.3     1  LIG1        0.1077
@<TRIPOS>BOND
     1     1     2   ar
     2     1     6    1
     3     1    16   ar
     4     2     3    1
     5     2    14   ar
     6     3     4    2
     7     3    11    1
     8     4     5    1
     9     5     6    1
    10     5     7    2
    11     5     8    1
    12     8     9    1
    13     9    10    1
    14    11    12    1
    15    12    13    1
    16    14    15   ar
    17    14    19    1
    18    15    16   ar
    19    15    17    1
    20    17    18    1
    21    18    19    1
