@<TRIPOS>MOLECULE
35253_ChemDiv_8018-0219
 10 11 0 0 0
SMALL
GASTEIGER
Energy = 0

@<TRIPOS>ATOM
      1 N          -0.0710    0.1420    0.0000 N.ar    1  LIG1       -0.2565
      2 C           0.7420    0.7290    0.0000 C.ar    1  LIG1        0.1957
      3 N           0.4290    1.6790    0.0000 N.ar    1  LIG1       -0.1192
      4 N          -0.5710    1.6790    0.0000 N.ar    1  LIG1       -0.0876
      5 C          -0.8830    0.7290    0.0000 C.ar    1  LIG1        0.3694
      6 O          -1.7460    0.2290    0.0000 O.2     1  LIG1       -0.2428
      7 S           1.5500    0.1420    0.0000 S.3     1  LIG1       -0.0745
      8 C           1.2420   -0.8040    0.0000 C.3     1  LIG1        0.0776
      9 C           0.2420   -0.8040    0.0000 C.3     1  LIG1        0.1237
     10 C           1.7420   -1.6750    0.0000 C.3     1  LIG1        0.0141
@<TRIPOS>BOND
     1     1     2   ar
     2     1     5   ar
     3     1     9    1
     4     2     3   ar
     5     2     7    1
     6     3     4   ar
     7     4     5   ar
     8     5     6    2
     9     7     8    1
    10     8     9    1
    11     8    10    1
