@<TRIPOS>MOLECULE
35259_ChemDiv_8018-0290
 10 10 0 0 0
SMALL
GASTEIGER
Energy = 0

@<TRIPOS>ATOM
      1 N           0.4330    0.2580    0.0000 N.ar    1  LIG1       -0.2230
      2 C          -0.4380    0.7580    0.0000 C.ar    1  LIG1        0.2102
      3 N          -1.3000    0.2580    0.0000 N.ar    1  LIG1       -0.1221
      4 N          -1.3000   -0.7460    0.0000 N.ar    1  LIG1       -0.1492
      5 C          -0.4290   -1.2460    0.0000 C.ar    1  LIG1        0.0945
      6 C           0.4330   -0.7460    0.0000 C.ar    1  LIG1        0.0768
      7 C           1.3040   -1.2460    0.0000 C.3     1  LIG1        0.0535
      8 C          -0.4380   -2.2460    0.0000 C.3     1  LIG1        0.0553
      9 S          -0.4380    1.7580    0.0000 S.3     1  LIG1       -0.0731
     10 C          -1.3080    2.2500    0.0000 C.3     1  LIG1        0.0773
@<TRIPOS>BOND
     1     1     2   ar
     2     1     6   ar
     3     2     3   ar
     4     2     9    1
     5     3     4   ar
     6     4     5   ar
     7     5     6   ar
     8     5     8    1
     9     6     7    1
    10     9    10    1
