@<TRIPOS>MOLECULE
35264_ChemDiv_C036-0031
 30 33 0 0 0
SMALL
GASTEIGER
Energy = 0

@<TRIPOS>ATOM
      1 S           0.9500    2.6420    0.0000 S.O2    1  LIG1        0.0635
      2 N          -0.1250    2.3080    0.0000 N.3     1  LIG1       -0.1492
      3 C          -0.3960    1.3960    0.0000 C.3     1  LIG1        0.1582
      4 C          -1.3540    1.0710    0.0000 C.3     1  LIG1        0.1587
      5 N          -2.1960    1.6080    0.0000 N.4     1  LIG1        0.3856
      6 C          -3.0580    1.1170    0.0000 C.3     1  LIG1        0.2269
      7 C          -3.0580    0.1830    0.0000 C.2     1  LIG1        0.3033
      8 N          -3.8710   -0.2790    0.0000 N.am    1  LIG1       -0.1741
      9 C          -3.8790   -1.2040    0.0000 C.ar    1  LIG1        0.0768
     10 C          -3.0580   -1.6830    0.0000 C.ar    1  LIG1        0.0568
     11 C          -3.0460   -2.6540    0.0000 C.ar    1  LIG1        0.1777
     12 C          -3.9080   -3.1540    0.0000 C.ar    1  LIG1        0.1765
     13 O          -3.0960   -4.5460    0.0000 O.3     1  LIG1       -0.4346
     14 C          -2.2460   -4.0500    0.0000 C.3     1  LIG1        0.4294
     15 O          -2.2290   -3.1170    0.0000 O.3     1  LIG1       -0.4346
     16 C          -4.7290   -2.6380    0.0000 C.ar    1  LIG1        0.0415
     17 C          -4.7420   -1.7000    0.0000 C.ar    1  LIG1        0.0199
     18 O          -2.2580   -0.2920    0.0000 O.2     1  LIG1       -0.2665
     19 C          -2.2500    2.5670    0.0000 C.3     1  LIG1        0.1408
     20 C          -1.6130    3.0790    0.0000 C.3     1  LIG1        0.0818
     21 C          -0.6380    2.9750    0.0000 C.3     1  LIG1        0.1022
     22 C           1.9000    3.0750    0.0000 C.ar    1  LIG1        0.1222
     23 C           1.9920    4.1040    0.0000 C.ar    1  LIG1        0.0204
     24 C           2.9500    4.5460    0.0000 C.ar    1  LIG1        0.0081
     25 C           3.7830    3.9420    0.0000 C.ar    1  LIG1        0.0346
     26 C           3.6790    2.9000    0.0000 C.ar    1  LIG1        0.0081
     27 C           2.7500    2.4710    0.0000 C.ar    1  LIG1        0.0204
     28 BR          4.7380    4.3790    0.0000 Br      1  LIG1       -0.0490
     29 O           0.5880    3.5500    0.0000 O.2     1  LIG1       -0.1528
     30 O           1.3580    1.7420    0.0000 O.2     1  LIG1       -0.1528
@<TRIPOS>BOND
     1     1     2    1
     2     1    22    1
     3     1    29    2
     4     1    30    2
     5     2     3    1
     6     2    21    1
     7     3     4    1
     8     4     5    1
     9     5     6    1
    10     5    19    1
    11     6     7    1
    12     7     8   am
    13     7    18    2
    14     8     9    1
    15     9    10   ar
    16     9    17   ar
    17    10    11   ar
    18    11    12   ar
    19    11    15    1
    20    12    13    1
    21    12    16   ar
    22    13    14    1
    23    14    15    1
    24    16    17   ar
    25    19    20    1
    26    20    21    1
    27    22    23   ar
    28    22    27   ar
    29    23    24   ar
    30    24    25   ar
    31    25    26   ar
    32    25    28    1
    33    26    27   ar
