@<TRIPOS>MOLECULE
35269_ChemDiv_8017-5292
 21 24 0 0 0
SMALL
GASTEIGER
Energy = 0

@<TRIPOS>ATOM
      1 C          -0.0080   -0.0250    0.0000 C.ar    1  LIG1        0.0745
      2 C          -0.0080   -1.0290    0.0000 C.ar    1  LIG1        0.1507
      3 C          -0.8750   -1.5250    0.0000 C.ar    1  LIG1        0.0522
      4 C          -1.7380   -1.0290    0.0000 C.ar    1  LIG1        0.0874
      5 N          -1.7460   -0.0250    0.0000 N.ar    1  LIG1       -0.2079
      6 C          -0.8750    0.4830    0.0000 C.ar    1  LIG1        0.2784
      7 O          -0.8750    1.4830    0.0000 O.2     1  LIG1       -0.2654
      8 C          -2.5960   -1.5250    0.0000 C.ar    1  LIG1        0.0193
      9 C          -2.5960   -2.5170    0.0000 C.ar    1  LIG1        0.0015
     10 C          -1.7330   -3.0170    0.0000 C.ar    1  LIG1        0.0002
     11 C          -0.8710   -2.5170    0.0000 C.ar    1  LIG1        0.0045
     12 O           0.8540   -1.5290    0.0000 O.3     1  LIG1       -0.4242
     13 C           1.7250   -1.0290    0.0000 C.2     1  LIG1        0.3221
     14 C           1.7250   -0.0250    0.0000 C.3     1  LIG1        0.1189
     15 C           0.8540    0.4830    0.0000 C.3     1  LIG1        0.0640
     16 C           0.8500    1.4830    0.0000 C.ar    1  LIG1       -0.0106
     17 C           1.6540    2.0710    0.0000 C.ar    1  LIG1        0.0315
     18 S           1.3420    3.0210    0.0000 S.2     1  LIG1       -0.0863
     19 C           0.3420    3.0210    0.0000 C.ar    1  LIG1        0.0351
     20 C           0.0380    2.0630    0.0000 C.ar    1  LIG1        0.0035
     21 O           2.5920   -1.5290    0.0000 O.2     1  LIG1       -0.2497
@<TRIPOS>BOND
     1     1     2   ar
     2     1     6   ar
     3     1    15    1
     4     2     3   ar
     5     2    12    1
     6     3     4   ar
     7     3    11   ar
     8     4     5   ar
     9     4     8   ar
    10     5     6   ar
    11     6     7    2
    12     8     9   ar
    13     9    10   ar
    14    10    11   ar
    15    12    13    1
    16    13    14    1
    17    13    21    2
    18    14    15    1
    19    15    16    1
    20    16    17   ar
    21    16    20   ar
    22    17    18   ar
    23    18    19   ar
    24    19    20   ar
