@<TRIPOS>MOLECULE
35265_ChemDiv_8017-5265
 23 26 0 0 0
SMALL
GASTEIGER
Energy = 0

@<TRIPOS>ATOM
      1 C           0.0040   -0.4500    0.0000 C.ar    1  LIG1        0.0717
      2 C           0.0040   -1.4540    0.0000 C.ar    1  LIG1        0.1598
      3 N          -0.8500   -1.9630    0.0000 N.ar    1  LIG1       -0.1807
      4 C          -1.7250   -1.4670    0.0000 C.ar    1  LIG1        0.2390
      5 N          -1.7380   -0.4670    0.0000 N.ar    1  LIG1       -0.2633
      6 C          -0.8710    0.0460    0.0000 C.ar    1  LIG1        0.2621
      7 O          -0.8830    1.0460    0.0000 O.2     1  LIG1       -0.2671
      8 C          -2.6080    0.0250    0.0000 C.3     1  LIG1        0.1366
      9 N          -2.4580   -2.1500    0.0000 N.ar    1  LIG1       -0.1875
     10 C          -2.0330   -3.0540    0.0000 C.ar    1  LIG1        0.2226
     11 N          -1.0460   -2.9290    0.0000 N.ar    1  LIG1       -0.1386
     12 N           0.8670   -1.9540    0.0000 N.am    1  LIG1       -0.1604
     13 C           1.7420   -1.4500    0.0000 C.2     1  LIG1        0.2475
     14 C           1.7380   -0.4420    0.0000 C.3     1  LIG1        0.0962
     15 C           0.8670    0.0580    0.0000 C.3     1  LIG1        0.0612
     16 C           0.8670    1.0500    0.0000 C.ar    1  LIG1       -0.0172
     17 C           1.7290    1.5500    0.0000 C.ar    1  LIG1        0.0028
     18 C           1.7290    2.5500    0.0000 C.ar    1  LIG1        0.0343
     19 BR          2.5880    3.0580    0.0000 Br      1  LIG1       -0.0490
     20 C           0.8630    3.0460    0.0000 C.ar    1  LIG1        0.0067
     21 C          -0.0080    2.5460    0.0000 C.ar    1  LIG1        0.0002
     22 C           0.0000    1.5460    0.0000 C.ar    1  LIG1       -0.0039
     23 O           2.6040   -1.9500    0.0000 O.2     1  LIG1       -0.2729
@<TRIPOS>BOND
     1     1     2   ar
     2     1     6   ar
     3     1    15    1
     4     2     3   ar
     5     2    12    1
     6     3     4   ar
     7     3    11   ar
     8     4     5   ar
     9     4     9   ar
    10     5     6   ar
    11     5     8    1
    12     6     7    2
    13     9    10   ar
    14    10    11   ar
    15    12    13   am
    16    13    14    1
    17    13    23    2
    18    14    15    1
    19    15    16    1
    20    16    17   ar
    21    16    22   ar
    22    17    18   ar
    23    18    19    1
    24    18    20   ar
    25    20    21   ar
    26    21    22   ar
