@<TRIPOS>MOLECULE
35262_ChemDiv_C036-0011
 21 22 0 0 0
SMALL
GASTEIGER
Energy = 0

@<TRIPOS>ATOM
      1 S           0.5540    0.4920    0.0000 S.O2    1  LIG1        0.0635
      2 N          -0.5250    0.1580    0.0000 N.3     1  LIG1       -0.1492
      3 C          -0.8000   -0.7580    0.0000 C.3     1  LIG1        0.1582
      4 C          -1.7580   -1.0790    0.0000 C.3     1  LIG1        0.1587
      5 N          -2.6000   -0.5420    0.0000 N.4     1  LIG1        0.3857
      6 C          -3.4630   -1.0330    0.0000 C.3     1  LIG1        0.2283
      7 C          -3.4630   -1.8250    0.0000 C.2     1  LIG1        0.3184
      8 O          -4.3460   -2.4000    0.0000 O.2     1  LIG1       -0.2652
      9 N          -2.4380   -2.3540    0.0000 N.am    1  LIG1       -0.0826
     10 C          -2.6500    0.4170    0.0000 C.3     1  LIG1        0.1408
     11 C          -2.0130    0.9290    0.0000 C.3     1  LIG1        0.0818
     12 C          -1.0380    0.8250    0.0000 C.3     1  LIG1        0.1022
     13 C           1.5000    0.9250    0.0000 C.ar    1  LIG1        0.1222
     14 C           1.5920    1.9630    0.0000 C.ar    1  LIG1        0.0204
     15 C           2.5540    2.4040    0.0000 C.ar    1  LIG1        0.0081
     16 C           3.3880    1.7960    0.0000 C.ar    1  LIG1        0.0346
     17 C           3.2790    0.7500    0.0000 C.ar    1  LIG1        0.0081
     18 C           2.3500    0.3210    0.0000 C.ar    1  LIG1        0.0204
     19 BR          4.3420    2.2380    0.0000 Br      1  LIG1       -0.0490
     20 O           0.1880    1.4000    0.0000 O.2     1  LIG1       -0.1528
     21 O           0.9630   -0.4080    0.0000 O.2     1  LIG1       -0.1528
@<TRIPOS>BOND
     1     1     2    1
     2     1    13    1
     3     1    20    2
     4     1    21    2
     5     2     3    1
     6     2    12    1
     7     3     4    1
     8     4     5    1
     9     5     6    1
    10     5    10    1
    11     6     7    1
    12     7     8    2
    13     7     9   am
    14    10    11    1
    15    11    12    1
    16    13    14   ar
    17    13    18   ar
    18    14    15   ar
    19    15    16   ar
    20    16    17   ar
    21    16    19    1
    22    17    18   ar
