@<TRIPOS>MOLECULE
35263_ChemDiv_8018-0343
 14 15 0 0 0
SMALL
GASTEIGER
Energy = 0

@<TRIPOS>ATOM
      1 C          -1.7290    1.2540    0.0000 C.2     1  LIG1        0.3632
      2 N          -1.7330    0.2540    0.0000 N.am    1  LIG1       -0.1595
      3 C          -0.8670   -0.2420    0.0000 C.ar    1  LIG1        0.0782
      4 C          -0.0040    0.2540    0.0000 C.ar    1  LIG1        0.0567
      5 C           0.8540   -0.2420    0.0000 C.ar    1  LIG1        0.1737
      6 C           0.8540   -1.2420    0.0000 C.ar    1  LIG1        0.1725
      7 O           1.7170   -1.7500    0.0000 O.3     1  LIG1       -0.4684
      8 C           2.5920   -1.2500    0.0000 C.3     1  LIG1        0.2526
      9 C           2.5920   -0.2420    0.0000 C.3     1  LIG1        0.2526
     10 O           1.7250    0.2580    0.0000 O.3     1  LIG1       -0.4683
     11 C          -0.0040   -1.7420    0.0000 C.ar    1  LIG1        0.0414
     12 C          -0.8670   -1.2420    0.0000 C.ar    1  LIG1        0.0200
     13 O          -0.8670    1.7460    0.0000 O.2     1  LIG1       -0.2471
     14 N          -2.5960    1.7540    0.0000 N.am    1  LIG1       -0.0676
@<TRIPOS>BOND
     1     1     2   am
     2     1    13    2
     3     1    14   am
     4     2     3    1
     5     3     4   ar
     6     3    12   ar
     7     4     5   ar
     8     5     6   ar
     9     5    10    1
    10     6     7    1
    11     6    11   ar
    12     7     8    1
    13     8     9    1
    14     9    10    1
    15    11    12   ar
