@<TRIPOS>MOLECULE
35274_ChemDiv_C066-0941
 22 24 0 0 0
SMALL
GASTEIGER
Energy = 0

@<TRIPOS>ATOM
      1 C           0.8630   -2.5000    0.0000 C.ar    1  LIG1        0.0332
      2 C           0.0000   -2.0000    0.0000 C.ar    1  LIG1        0.0053
      3 C           0.0000   -1.0000    0.0000 C.ar    1  LIG1        0.0334
      4 C           0.8630   -0.5000    0.0000 C.ar    1  LIG1        0.1516
      5 N           1.7250   -1.0000    0.0000 N.ar    1  LIG1       -0.2273
      6 C           1.7250   -2.0000    0.0000 C.ar    1  LIG1        0.1015
      7 N           0.8630    0.4960    0.0000 N.pl3   1  LIG1       -0.1940
      8 C           0.0000    0.9960    0.0000 C.ar    1  LIG1        0.0751
      9 C           0.0000    2.0040    0.0000 C.ar    1  LIG1        0.0534
     10 C          -0.8630    2.5040    0.0000 C.ar    1  LIG1        0.1400
     11 O          -0.8500    3.5040    0.0000 O.3     1  LIG1       -0.4714
     12 C          -1.7130    4.0000    0.0000 C.3     1  LIG1        0.2525
     13 C          -1.7380    2.0040    0.0000 C.ar    1  LIG1        0.0370
     14 C          -1.7380    0.9960    0.0000 C.ar    1  LIG1        0.0044
     15 C          -0.8670    0.4960    0.0000 C.ar    1  LIG1        0.0168
     16 C          -0.8630   -0.5000    0.0000 C.ar    1  LIG1        0.0028
     17 C          -1.7290   -1.0000    0.0000 C.ar    1  LIG1        0.0001
     18 C          -1.7290   -2.0000    0.0000 C.ar    1  LIG1        0.0000
     19 C          -0.8630   -2.5000    0.0000 C.ar    1  LIG1        0.0002
     20 C           0.8630   -3.4960    0.0000 C.2     1  LIG1        0.0744
     21 O           1.7330   -4.0000    0.0000 O.co2   1  LIG1       -0.5445
     22 O           0.0000   -4.0000    0.0000 O.co2   1  LIG1       -0.5445
@<TRIPOS>BOND
     1     1     2   ar
     2     1     6   ar
     3     1    20    1
     4     2     3   ar
     5     2    19   ar
     6     3     4   ar
     7     3    16   ar
     8     4     5   ar
     9     4     7    1
    10     5     6   ar
    11     7     8    1
    12     8     9   ar
    13     8    15   ar
    14     9    10   ar
    15    10    11    1
    16    10    13   ar
    17    11    12    1
    18    13    14   ar
    19    14    15   ar
    20    16    17   ar
    21    17    18   ar
    22    18    19   ar
    23    20    21   ar
    24    20    22   ar
