@<TRIPOS>MOLECULE
35279_ChemDiv_8017-5681
 32 37 0 0 0
SMALL
GASTEIGER
Energy = 0

@<TRIPOS>ATOM
      1 C          -1.1460   -0.7960    0.0000 C.ar    1  LIG1        0.1047
      2 C          -1.1460    0.2080    0.0000 C.ar    1  LIG1        0.0949
      3 N          -0.2830    0.7080    0.0000 N.ar    1  LIG1       -0.2316
      4 C           0.5830    0.2080    0.0000 C.ar    1  LIG1        0.1225
      5 N           0.5830   -0.7960    0.0000 N.ar    1  LIG1       -0.2836
      6 C          -0.2830   -1.2920    0.0000 C.ar    1  LIG1        0.2692
      7 O          -0.2830   -2.2830    0.0000 O.2     1  LIG1       -0.2663
      8 C           1.4460   -1.2920    0.0000 C.3     1  LIG1        0.1102
      9 C           2.3210   -0.8040    0.0000 C.3     1  LIG1        0.0246
     10 C           3.2960   -1.3670    0.0000 C.3     1  LIG1        0.0019
     11 C           4.4710   -1.7040    0.0000 C.3     1  LIG1        0.0001
     12 C           5.0670   -1.2960    0.0000 C.3     1  LIG1        0.0000
     13 C           4.5040   -2.0460    0.0000 C.3     1  LIG1        0.0000
     14 C           3.6710   -1.7710    0.0000 C.3     1  LIG1        0.0000
     15 C           2.7080   -2.0460    0.0000 C.3     1  LIG1        0.0001
     16 C           3.6710   -0.6460    0.0000 C.3     1  LIG1        0.0000
     17 C           4.1830    0.2380    0.0000 C.3     1  LIG1        0.0000
     18 C           3.2960   -0.2710    0.0000 C.3     1  LIG1        0.0001
     19 C           5.0670   -0.2710    0.0000 C.3     1  LIG1        0.0000
     20 C           1.4460    0.7080    0.0000 C.3     1  LIG1        0.0640
     21 C           1.4460    1.7000    0.0000 C.3     1  LIG1        0.0084
     22 C          -2.0880    0.5210    0.0000 C.ar    1  LIG1        0.0405
     23 C          -2.6750   -0.2960    0.0000 C.ar    1  LIG1        0.1117
     24 S          -2.0960   -1.0960    0.0000 S.2     1  LIG1       -0.0617
     25 N          -3.6710   -0.1830    0.0000 N.ar    1  LIG1       -0.2431
     26 C          -4.0710    0.7250    0.0000 C.ar    1  LIG1        0.0597
     27 C          -3.4830    1.5330    0.0000 C.ar    1  LIG1        0.0130
     28 C          -2.4960    1.4250    0.0000 C.ar    1  LIG1        0.0119
     29 C          -1.9960    2.2880    0.0000 C.3     1  LIG1        0.1688
     30 O          -0.9960    2.2880    0.0000 O.3     1  LIG1       -0.3463
     31 C          -0.5000    1.4250    0.0000 C.3     1  LIG1        0.1746
     32 C          -5.0710    0.7250    0.0000 C.3     1  LIG1        0.0521
@<TRIPOS>BOND
     1     1     2   ar
     2     1     6   ar
     3     1    24   ar
     4     2     3   ar
     5     2    22   ar
     6     3     4   ar
     7     4     5   ar
     8     4    20    1
     9     5     6   ar
    10     5     8    1
    11     6     7    2
    12     8     9    1
    13     9    10    1
    14    10    11    1
    15    10    15    1
    16    10    18    1
    17    11    12    1
    18    12    13    1
    19    12    19    1
    20    13    14    1
    21    14    15    1
    22    14    16    1
    23    16    17    1
    24    17    18    1
    25    17    19    1
    26    20    21    1
    27    22    23   ar
    28    22    28   ar
    29    23    24   ar
    30    23    25   ar
    31    25    26   ar
    32    26    27   ar
    33    26    32    1
    34    27    28   ar
    35    28    29    1
    36    29    30    1
    37    30    31    1
