@<TRIPOS>MOLECULE
35275_ChemDiv_8017-5530
 24 28 0 0 0
SMALL
GASTEIGER
Energy = 0

@<TRIPOS>ATOM
      1 N          -0.4290    0.2830    0.0000 N.ar    1  LIG1       -0.2287
      2 C          -1.2960    0.7790    0.0000 C.ar    1  LIG1        0.0825
      3 C          -2.1670    0.2830    0.0000 C.ar    1  LIG1        0.0323
      4 C          -2.1670   -0.7250    0.0000 C.ar    1  LIG1        0.0691
      5 N          -1.3040   -1.2330    0.0000 N.pl3   1  LIG1       -0.2112
      6 C          -0.4290   -0.7330    0.0000 C.3     1  LIG1        0.2192
      7 C           0.4290   -1.2250    0.0000 C.ar    1  LIG1        0.0218
      8 C           1.2920   -0.7250    0.0000 C.ar    1  LIG1        0.0184
      9 C           2.1540   -1.2170    0.0000 C.ar    1  LIG1        0.0811
     10 N           3.0170   -0.7170    0.0000 N.ar    1  LIG1       -0.2438
     11 C           3.8790   -1.2040    0.0000 C.ar    1  LIG1        0.0988
     12 C           3.8880   -2.2170    0.0000 C.ar    1  LIG1        0.0207
     13 C           3.0170   -2.7170    0.0000 C.ar    1  LIG1        0.0031
     14 C           2.1540   -2.2170    0.0000 C.ar    1  LIG1        0.0177
     15 C           1.2920   -2.7170    0.0000 C.ar    1  LIG1        0.0013
     16 C           0.4290   -2.2250    0.0000 C.ar    1  LIG1       -0.0006
     17 C          -3.0290   -1.2170    0.0000 C.ar    1  LIG1        0.0162
     18 C          -3.8920   -0.7250    0.0000 C.ar    1  LIG1        0.0013
     19 C          -3.8920    0.2750    0.0000 C.ar    1  LIG1        0.0001
     20 C          -3.0290    0.7750    0.0000 C.ar    1  LIG1        0.0028
     21 C          -1.0880    1.7670    0.0000 C.ar    1  LIG1        0.0353
     22 C          -0.0880    1.8670    0.0000 C.ar    1  LIG1        0.0805
     23 N           0.3170    0.9460    0.0000 N.ar    1  LIG1       -0.1719
     24 C           0.4210    2.7210    0.0000 C.3     1  LIG1        0.0540
@<TRIPOS>BOND
     1     1     2   ar
     2     1     6    1
     3     1    23   ar
     4     2     3    1
     5     2    21   ar
     6     3     4   ar
     7     3    20   ar
     8     4     5    1
     9     4    17   ar
    10     5     6    1
    11     6     7    1
    12     7     8   ar
    13     7    16   ar
    14     8     9   ar
    15     9    10   ar
    16     9    14   ar
    17    10    11   ar
    18    11    12   ar
    19    12    13   ar
    20    13    14   ar
    21    14    15   ar
    22    15    16   ar
    23    17    18   ar
    24    18    19   ar
    25    19    20   ar
    26    21    22   ar
    27    22    23   ar
    28    22    24    1
