@<TRIPOS>MOLECULE
35271_ChemDiv_8017-5374
 19 21 0 0 0
SMALL
GASTEIGER
Energy = 0

@<TRIPOS>ATOM
      1 P           0.7380    1.3080    0.0000 P.3     1  LIG1        0.2677
      2 C           0.2920    0.4080    0.0000 C.3     1  LIG1        0.2832
      3 O          -0.6830    0.1830    0.0000 O.3     1  LIG1       -0.4629
      4 C          -1.4710    0.8080    0.0000 C.ar    1  LIG1        0.1730
      5 C          -1.4710    1.8130    0.0000 C.ar    1  LIG1        0.1730
      6 O          -0.6830    2.4460    0.0000 O.3     1  LIG1       -0.4629
      7 C           0.2920    2.2210    0.0000 C.3     1  LIG1        0.2832
      8 C          -2.3460    2.3290    0.0000 C.ar    1  LIG1        0.0401
      9 C          -3.2210    1.8130    0.0000 C.ar    1  LIG1        0.0033
     10 C          -3.2210    0.8000    0.0000 C.ar    1  LIG1        0.0033
     11 C          -2.3460    0.3000    0.0000 C.ar    1  LIG1        0.0401
     12 N           1.1290    0.2580    0.0000 N.3     1  LIG1       -0.1551
     13 C           1.9290    0.0080    0.0000 C.3     1  LIG1        0.1603
     14 C           2.1170   -0.8040    0.0000 C.ar    1  LIG1        0.1410
     15 O           3.1130   -1.0170    0.0000 O.2     1  LIG1       -0.4532
     16 C           3.2170   -2.0290    0.0000 C.ar    1  LIG1        0.1792
     17 C           2.2920   -2.4420    0.0000 C.ar    1  LIG1        0.0435
     18 C           1.6130   -1.6880    0.0000 C.ar    1  LIG1        0.0377
     19 O           1.4750    1.9960    0.0000 O.2     1  LIG1       -0.2944
@<TRIPOS>BOND
     1     1     2    1
     2     1     7    1
     3     1    12    1
     4     1    19    2
     5     2     3    1
     6     3     4    1
     7     4     5   ar
     8     4    11   ar
     9     5     6    1
    10     5     8   ar
    11     6     7    1
    12     8     9   ar
    13     9    10   ar
    14    10    11   ar
    15    12    13    1
    16    13    14    1
    17    14    15   ar
    18    14    18   ar
    19    15    16   ar
    20    16    17   ar
    21    17    18   ar
