@<TRIPOS>MOLECULE
35276_ChemDiv_C066-1075
 22 24 0 0 0
SMALL
GASTEIGER
Energy = 0

@<TRIPOS>ATOM
      1 C          -0.4420   -2.2460    0.0000 C.ar    1  LIG1        0.0332
      2 C          -1.3040   -1.7500    0.0000 C.ar    1  LIG1        0.0053
      3 C          -1.3040   -0.7460    0.0000 C.ar    1  LIG1        0.0334
      4 C          -0.4420   -0.2460    0.0000 C.ar    1  LIG1        0.1516
      5 N           0.4330   -0.7460    0.0000 N.ar    1  LIG1       -0.2273
      6 C           0.4330   -1.7500    0.0000 C.ar    1  LIG1        0.1015
      7 N          -0.4420    0.7500    0.0000 N.pl3   1  LIG1       -0.1941
      8 C           0.4250    1.2540    0.0000 C.ar    1  LIG1        0.0723
      9 C           1.2880    0.7500    0.0000 C.ar    1  LIG1        0.0197
     10 C           2.1540    1.2540    0.0000 C.ar    1  LIG1        0.0382
     11 C           2.1540    2.2500    0.0000 C.ar    1  LIG1        0.1388
     12 C           1.2880    2.7540    0.0000 C.ar    1  LIG1        0.0382
     13 C           0.4250    2.2500    0.0000 C.ar    1  LIG1        0.0197
     14 O           3.0250    2.7540    0.0000 O.3     1  LIG1       -0.4714
     15 C           3.0250    3.7540    0.0000 C.3     1  LIG1        0.2525
     16 C          -2.1670   -0.2460    0.0000 C.ar    1  LIG1        0.0028
     17 C          -3.0290   -0.7460    0.0000 C.ar    1  LIG1        0.0001
     18 C          -3.0290   -1.7500    0.0000 C.ar    1  LIG1        0.0000
     19 C          -2.1670   -2.2460    0.0000 C.ar    1  LIG1        0.0002
     20 C          -0.4420   -3.2500    0.0000 C.2     1  LIG1        0.0744
     21 O           0.4250   -3.7500    0.0000 O.co2   1  LIG1       -0.5445
     22 O          -1.3040   -3.7420    0.0000 O.co2   1  LIG1       -0.5445
@<TRIPOS>BOND
     1     1     2   ar
     2     1     6   ar
     3     1    20    1
     4     2     3   ar
     5     2    19   ar
     6     3     4   ar
     7     3    16   ar
     8     4     5   ar
     9     4     7    1
    10     5     6   ar
    11     7     8    1
    12     8     9   ar
    13     8    13   ar
    14     9    10   ar
    15    10    11   ar
    16    11    12   ar
    17    11    14    1
    18    12    13   ar
    19    14    15    1
    20    16    17   ar
    21    17    18   ar
    22    18    19   ar
    23    20    21   ar
    24    20    22   ar
