@<TRIPOS>MOLECULE
35277_ChemDiv_8017-5561
 30 33 0 0 0
SMALL
GASTEIGER
Energy = 0

@<TRIPOS>ATOM
      1 S           0.1170   -2.1040    0.0000 S.O2    1  LIG1        0.0633
      2 C           1.0710   -1.8170    0.0000 C.ar    1  LIG1        0.1223
      3 C           1.8080   -2.5040    0.0000 C.ar    1  LIG1        0.0222
      4 C           2.7670   -2.2040    0.0000 C.ar    1  LIG1        0.0310
      5 C           2.9920   -1.2290    0.0000 C.ar    1  LIG1        0.1402
      6 C           2.2460   -0.5420    0.0000 C.ar    1  LIG1        0.0310
      7 C           1.2920   -0.8420    0.0000 C.ar    1  LIG1        0.0222
      8 F           3.9460   -0.9290    0.0000 F       1  LIG1       -0.2042
      9 N          -0.8670   -2.3250    0.0000 N.3     1  LIG1       -0.1540
     10 C          -1.5420   -1.5790    0.0000 C.3     1  LIG1        0.0976
     11 C          -1.2330   -0.6290    0.0000 C.3     1  LIG1        0.0409
     12 C          -1.9170    0.1130    0.0000 C.3     1  LIG1        0.0970
     13 N          -1.6080    1.0710    0.0000 N.pl3   1  LIG1       -0.2873
     14 C          -0.6290    1.2330    0.0000 C.ar    1  LIG1        0.0475
     15 C          -0.1540    2.1460    0.0000 C.ar    1  LIG1       -0.0082
     16 C          -0.5960    3.1040    0.0000 C.3     1  LIG1        0.0323
     17 C          -1.5710    3.2830    0.0000 C.3     1  LIG1        0.0323
     18 C          -2.2080    2.6830    0.0000 C.ar    1  LIG1       -0.0082
     19 C          -2.2080    1.6710    0.0000 C.ar    1  LIG1        0.0475
     20 C          -3.0790    1.1710    0.0000 C.ar    1  LIG1        0.0145
     21 C          -3.9500    1.6710    0.0000 C.ar    1  LIG1        0.0013
     22 C          -3.9420    2.6750    0.0000 C.ar    1  LIG1       -0.0002
     23 C          -3.0790    3.1830    0.0000 C.ar    1  LIG1       -0.0030
     24 C           0.8670    2.1960    0.0000 C.ar    1  LIG1       -0.0030
     25 C           1.4210    1.3330    0.0000 C.ar    1  LIG1       -0.0002
     26 C           0.9460    0.4130    0.0000 C.ar    1  LIG1        0.0013
     27 C          -0.0790    0.3710    0.0000 C.ar    1  LIG1        0.0145
     28 C          -1.1670   -3.2790    0.0000 C.3     1  LIG1        0.1149
     29 O          -0.0790   -1.1670    0.0000 O.2     1  LIG1       -0.1528
     30 O           0.3460   -3.1250    0.0000 O.2     1  LIG1       -0.1528
@<TRIPOS>BOND
     1     1     2    1
     2     1     9    1
     3     1    29    2
     4     1    30    2
     5     2     3   ar
     6     2     7   ar
     7     3     4   ar
     8     4     5   ar
     9     5     6   ar
    10     5     8    1
    11     6     7   ar
    12     9    10    1
    13     9    28    1
    14    10    11    1
    15    11    12    1
    16    12    13    1
    17    13    14    1
    18    13    19    1
    19    14    15   ar
    20    14    27   ar
    21    15    16    1
    22    15    24   ar
    23    16    17    1
    24    17    18    1
    25    18    19   ar
    26    18    23   ar
    27    19    20   ar
    28    20    21   ar
    29    21    22   ar
    30    22    23   ar
    31    24    25   ar
    32    25    26   ar
    33    26    27   ar
