@<TRIPOS>MOLECULE
35278_ChemDiv_C066-1688
 24 26 0 0 0
SMALL
GASTEIGER
Energy = 0

@<TRIPOS>ATOM
      1 C          -0.4130   -1.2630    0.0000 C.ar    1  LIG1        0.0948
      2 C          -1.2880   -0.7630    0.0000 C.ar    1  LIG1        0.0105
      3 C          -1.2880    0.2380    0.0000 C.ar    1  LIG1        0.0336
      4 C          -0.4290    0.7420    0.0000 C.ar    1  LIG1        0.1517
      5 N           0.4380    0.2420    0.0000 N.ar    1  LIG1       -0.2272
      6 C           0.4540   -0.7580    0.0000 C.ar    1  LIG1        0.1068
      7 N          -0.4420    1.7420    0.0000 N.pl3   1  LIG1       -0.1911
      8 C           0.4250    2.2500    0.0000 C.ar    1  LIG1        0.1060
      9 C           0.4170    3.2420    0.0000 C.ar    1  LIG1        0.1547
     10 C           1.2710    3.7500    0.0000 C.ar    1  LIG1        0.0496
     11 C           2.1500    3.2540    0.0000 C.ar    1  LIG1        0.0608
     12 C           2.1500    2.2580    0.0000 C.ar    1  LIG1        0.0129
     13 C           1.2960    1.7500    0.0000 C.ar    1  LIG1        0.0205
     14 CL          3.0170    3.7670    0.0000 Cl      1  LIG1       -0.0821
     15 O          -0.4540    3.7330    0.0000 O.3     1  LIG1       -0.4701
     16 C          -1.3170    3.2250    0.0000 C.3     1  LIG1        0.2525
     17 C          -2.1540    0.7380    0.0000 C.ar    1  LIG1        0.0028
     18 C          -3.0210    0.2380    0.0000 C.ar    1  LIG1        0.0001
     19 C          -3.0210   -0.7630    0.0000 C.ar    1  LIG1        0.0000
     20 C          -2.1540   -1.2630    0.0000 C.ar    1  LIG1        0.0003
     21 C          -0.4130   -2.2630    0.0000 C.2     1  LIG1        0.3429
     22 O           0.4540   -2.7630    0.0000 O.2     1  LIG1       -0.2448
     23 O          -1.2750   -2.7630    0.0000 O.3     1  LIG1       -0.4413
     24 C          -1.2880   -3.7630    0.0000 C.3     1  LIG1        0.2560
@<TRIPOS>BOND
     1     1     2   ar
     2     1     6   ar
     3     1    21    1
     4     2     3   ar
     5     2    20   ar
     6     3     4   ar
     7     3    17   ar
     8     4     5   ar
     9     4     7    1
    10     5     6   ar
    11     7     8    1
    12     8     9   ar
    13     8    13   ar
    14     9    10   ar
    15     9    15    1
    16    10    11   ar
    17    11    12   ar
    18    11    14    1
    19    12    13   ar
    20    15    16    1
    21    17    18   ar
    22    18    19   ar
    23    19    20   ar
    24    21    22    2
    25    21    23    1
    26    23    24    1
