@<TRIPOS>MOLECULE
35280_ChemDiv_C066-1709
 39 43 0 0 0
SMALL
GASTEIGER
Energy = 0

@<TRIPOS>ATOM
      1 C           3.9210    0.7380    0.0000 C.ar    1  LIG1        0.0743
      2 C           3.0580    0.2380    0.0000 C.ar    1  LIG1        0.0087
      3 C           3.0580   -0.7630    0.0000 C.ar    1  LIG1        0.0335
      4 C           3.9210   -1.2580    0.0000 C.ar    1  LIG1        0.1517
      5 N           4.7880   -0.7630    0.0000 N.ar    1  LIG1       -0.2272
      6 C           4.7880    0.2380    0.0000 C.ar    1  LIG1        0.1049
      7 N           3.9080   -2.2580    0.0000 N.pl3   1  LIG1       -0.1911
      8 C           4.7710   -2.7580    0.0000 C.ar    1  LIG1        0.1059
      9 C           4.7710   -3.7500    0.0000 C.ar    1  LIG1        0.1538
     10 O           3.9040   -4.2420    0.0000 O.3     1  LIG1       -0.4701
     11 C           3.9040   -5.2420    0.0000 C.3     1  LIG1        0.2525
     12 C           5.6290   -4.2500    0.0000 C.ar    1  LIG1        0.0383
     13 C           6.4960   -3.7580    0.0000 C.ar    1  LIG1        0.0032
     14 C           6.4920   -2.7500    0.0000 C.ar    1  LIG1        0.0015
     15 C           5.6330   -2.2580    0.0000 C.ar    1  LIG1        0.0196
     16 C           2.1920   -1.2580    0.0000 C.ar    1  LIG1        0.0028
     17 C           1.3210   -0.7630    0.0000 C.ar    1  LIG1        0.0001
     18 C           1.3210    0.2380    0.0000 C.ar    1  LIG1        0.0000
     19 C           2.1920    0.7380    0.0000 C.ar    1  LIG1        0.0003
     20 C           3.9210    1.7330    0.0000 C.2     1  LIG1        0.2663
     21 O           4.7790    2.2380    0.0000 O.2     1  LIG1       -0.2683
     22 N           3.0460    2.2380    0.0000 N.am    1  LIG1       -0.2014
     23 C           2.1830    1.7330    0.0000 C.3     1  LIG1        0.1216
     24 C           1.3170    2.2380    0.0000 C.3     1  LIG1        0.0861
     25 C           0.4420    1.7330    0.0000 C.3     1  LIG1        0.1406
     26 N          -0.4170    2.2380    0.0000 N.4     1  LIG1        0.3800
     27 C          -0.4170    3.2380    0.0000 C.3     1  LIG1        0.1605
     28 C          -1.2790    3.7380    0.0000 C.3     1  LIG1        0.1544
     29 N          -2.1500    3.2380    0.0000 N.pl3   1  LIG1       -0.2972
     30 C          -3.0080    3.7380    0.0000 C.ar    1  LIG1        0.0483
     31 C          -3.8790    3.2380    0.0000 C.ar    1  LIG1        0.0176
     32 C          -4.7460    3.7380    0.0000 C.ar    1  LIG1        0.0382
     33 C          -4.7460    4.7420    0.0000 C.ar    1  LIG1        0.1388
     34 C          -3.8710    5.2420    0.0000 C.ar    1  LIG1        0.0382
     35 C          -3.0080    4.7420    0.0000 C.ar    1  LIG1        0.0176
     36 O          -5.6210    5.2420    0.0000 O.3     1  LIG1       -0.4714
     37 C          -6.4960    4.7420    0.0000 C.3     1  LIG1        0.2525
     38 C          -2.1500    2.2380    0.0000 C.3     1  LIG1        0.1544
     39 C          -1.2790    1.7330    0.0000 C.3     1  LIG1        0.1605
@<TRIPOS>BOND
     1     1     2   ar
     2     1     6   ar
     3     1    20    1
     4     2     3   ar
     5     2    19   ar
     6     3     4   ar
     7     3    16   ar
     8     4     5   ar
     9     4     7    1
    10     5     6   ar
    11     7     8    1
    12     8     9   ar
    13     8    15   ar
    14     9    10    1
    15     9    12   ar
    16    10    11    1
    17    12    13   ar
    18    13    14   ar
    19    14    15   ar
    20    16    17   ar
    21    17    18   ar
    22    18    19   ar
    23    20    21    2
    24    20    22   am
    25    22    23    1
    26    23    24    1
    27    24    25    1
    28    25    26    1
    29    26    27    1
    30    26    39    1
    31    27    28    1
    32    28    29    1
    33    29    30    1
    34    29    38    1
    35    30    31   ar
    36    30    35   ar
    37    31    32   ar
    38    32    33   ar
    39    33    34   ar
    40    33    36    1
    41    34    35   ar
    42    36    37    1
    43    38    39    1
