@<TRIPOS>MOLECULE
35289_ChemDiv_C766-0153
 30 33 0 0 0
SMALL
GASTEIGER
Energy = 0

@<TRIPOS>ATOM
      1 C          -1.2960    0.4960    0.0000 C.ar    1  LIG1        0.2293
      2 C          -1.2960    1.5080    0.0000 C.ar    1  LIG1        0.0601
      3 C          -0.4210    2.0130    0.0000 C.ar    1  LIG1        0.1192
      4 N           0.4540    1.5000    0.0000 N.ar    1  LIG1       -0.2197
      5 C           0.4540    0.4880    0.0000 C.ar    1  LIG1        0.1661
      6 N          -0.4210   -0.0080    0.0000 N.ar    1  LIG1       -0.1924
      7 C           1.3130   -0.0080    0.0000 C.ar    1  LIG1        0.0421
      8 C           2.1630    0.4880    0.0000 C.ar    1  LIG1        0.0433
      9 C           3.0290   -0.0080    0.0000 C.ar    1  LIG1        0.1755
     10 C           3.0290   -1.0130    0.0000 C.ar    1  LIG1        0.2061
     11 C           2.1630   -1.5130    0.0000 C.ar    1  LIG1        0.1755
     12 C           1.3040   -1.0080    0.0000 C.ar    1  LIG1        0.0433
     13 O           2.1630   -2.5170    0.0000 O.3     1  LIG1       -0.4683
     14 C           3.0130   -3.0130    0.0000 C.3     1  LIG1        0.2526
     15 O           3.8880   -1.5210    0.0000 O.3     1  LIG1       -0.4654
     16 C           4.7540   -1.0210    0.0000 C.3     1  LIG1        0.2528
     17 O           3.8960    0.4750    0.0000 O.3     1  LIG1       -0.4683
     18 C           3.8960    1.4750    0.0000 C.3     1  LIG1        0.2526
     19 S          -0.4210    3.0170    0.0000 S.2     1  LIG1       -0.0301
     20 C          -2.1580    2.0130    0.0000 C.3     1  LIG1        0.0627
     21 C          -3.0330    1.5080    0.0000 C.ar    1  LIG1        0.0201
     22 C          -3.0330    0.5040    0.0000 C.ar    1  LIG1        0.1771
     23 O          -2.1750    0.0040    0.0000 O.3     1  LIG1       -0.4336
     24 C          -3.8920    0.0040    0.0000 C.ar    1  LIG1        0.1725
     25 O          -3.8920   -0.9830    0.0000 O.3     1  LIG1       -0.4724
     26 C          -3.0330   -1.4880    0.0000 C.3     1  LIG1        0.2057
     27 C          -3.0330   -2.4790    0.0000 C.3     1  LIG1        0.0512
     28 C          -4.7580    0.5040    0.0000 C.ar    1  LIG1        0.0400
     29 C          -4.7580    1.5080    0.0000 C.ar    1  LIG1        0.0030
     30 C          -3.8920    2.0040    0.0000 C.ar    1  LIG1       -0.0007
@<TRIPOS>BOND
     1     1     2   ar
     2     1     6   ar
     3     1    23    1
     4     2     3   ar
     5     2    20    1
     6     3     4   ar
     7     3    19    2
     8     4     5   ar
     9     5     6   ar
    10     5     7    1
    11     7     8   ar
    12     7    12   ar
    13     8     9   ar
    14     9    10   ar
    15     9    17    1
    16    10    11   ar
    17    10    15    1
    18    11    12   ar
    19    11    13    1
    20    13    14    1
    21    15    16    1
    22    17    18    1
    23    20    21    1
    24    21    22   ar
    25    21    30   ar
    26    22    23    1
    27    22    24   ar
    28    24    25    1
    29    24    28   ar
    30    25    26    1
    31    26    27    1
    32    28    29   ar
    33    29    30   ar
