@<TRIPOS>MOLECULE
35288_ChemDiv_C036-0146
 32 34 0 0 0
SMALL
GASTEIGER
Energy = 0

@<TRIPOS>ATOM
      1 S           1.0420    3.1670    0.0000 S.O2    1  LIG1        0.0635
      2 N           0.1170    2.8880    0.0000 N.3     1  LIG1       -0.1492
      3 C          -0.1630    1.9750    0.0000 C.3     1  LIG1        0.1582
      4 C          -1.1290    1.6380    0.0000 C.3     1  LIG1        0.1587
      5 N          -1.9750    2.1790    0.0000 N.4     1  LIG1        0.3856
      6 C          -2.8420    1.6830    0.0000 C.3     1  LIG1        0.2269
      7 C          -2.8420    0.7290    0.0000 C.2     1  LIG1        0.3033
      8 N          -3.6790    0.2580    0.0000 N.am    1  LIG1       -0.1742
      9 C          -3.6920   -0.6960    0.0000 C.ar    1  LIG1        0.0736
     10 C          -2.8420   -1.2210    0.0000 C.ar    1  LIG1        0.0179
     11 C          -2.8290   -2.2540    0.0000 C.ar    1  LIG1        0.0179
     12 C          -3.7250   -2.6670    0.0000 C.ar    1  LIG1        0.0734
     13 N          -3.7670   -3.6710    0.0000 N.am    1  LIG1       -0.1792
     14 C          -4.6170   -4.1210    0.0000 C.2     1  LIG1        0.2461
     15 O          -5.7000   -3.4500    0.0000 O.2     1  LIG1       -0.2730
     16 C          -4.6290   -5.0880    0.0000 C.3     1  LIG1        0.0968
     17 C          -4.5750   -2.1540    0.0000 C.ar    1  LIG1        0.0179
     18 C          -4.5710   -1.1920    0.0000 C.ar    1  LIG1        0.0179
     19 O          -2.0210    0.2580    0.0000 O.2     1  LIG1       -0.2665
     20 C          -2.0250    3.1460    0.0000 C.3     1  LIG1        0.1408
     21 C          -1.3920    3.6670    0.0000 C.3     1  LIG1        0.0818
     22 C          -0.4170    3.5580    0.0000 C.3     1  LIG1        0.1022
     23 C           1.9920    3.6040    0.0000 C.ar    1  LIG1        0.1224
     24 C           2.0880    4.6630    0.0000 C.ar    1  LIG1        0.0230
     25 C           3.0420    5.0880    0.0000 C.ar    1  LIG1        0.0383
     26 C           3.8880    4.4790    0.0000 C.ar    1  LIG1        0.1388
     27 C           3.7880    3.4380    0.0000 C.ar    1  LIG1        0.0383
     28 C           2.8460    3.0000    0.0000 C.ar    1  LIG1        0.0230
     29 O           4.8420    4.9210    0.0000 O.3     1  LIG1       -0.4714
     30 C           5.6960    4.3130    0.0000 C.3     1  LIG1        0.2525
     31 O           1.4500    2.2710    0.0000 O.2     1  LIG1       -0.1528
     32 O           0.6710    4.0880    0.0000 O.2     1  LIG1       -0.1528
@<TRIPOS>BOND
     1     1     2    1
     2     1    23    1
     3     1    31    2
     4     1    32    2
     5     2     3    1
     6     2    22    1
     7     3     4    1
     8     4     5    1
     9     5     6    1
    10     5    20    1
    11     6     7    1
    12     7     8   am
    13     7    19    2
    14     8     9    1
    15     9    10   ar
    16     9    18   ar
    17    10    11   ar
    18    11    12   ar
    19    12    13    1
    20    12    17   ar
    21    13    14   am
    22    14    15    2
    23    14    16    1
    24    17    18   ar
    25    20    21    1
    26    21    22    1
    27    23    24   ar
    28    23    28   ar
    29    24    25   ar
    30    25    26   ar
    31    26    27   ar
    32    26    29    1
    33    27    28   ar
    34    29    30    1
