@<TRIPOS>MOLECULE
35284_ChemDiv_C036-0047
 33 35 0 0 0
SMALL
GASTEIGER
Energy = 0

@<TRIPOS>ATOM
      1 S           2.3580    1.3250    0.0000 S.O2    1  LIG1        0.0635
      2 N           1.2830    0.9920    0.0000 N.3     1  LIG1       -0.1492
      3 C           1.0080    0.0790    0.0000 C.3     1  LIG1        0.1582
      4 C           0.0500   -0.2460    0.0000 C.3     1  LIG1        0.1587
      5 N          -0.7920    0.2960    0.0000 N.4     1  LIG1        0.3856
      6 C          -1.6540   -0.2000    0.0000 C.3     1  LIG1        0.2269
      7 C          -1.6540   -1.1250    0.0000 C.2     1  LIG1        0.3034
      8 N          -2.4670   -1.5960    0.0000 N.am    1  LIG1       -0.1711
      9 C          -3.2790   -1.1250    0.0000 C.ar    1  LIG1        0.1087
     10 C          -3.3080   -0.1380    0.0000 C.ar    1  LIG1        0.0363
     11 C          -4.1710    0.3330    0.0000 C.ar    1  LIG1        0.0749
     12 N          -4.2460    1.2960    0.0000 N.am    1  LIG1       -0.1792
     13 C          -5.0330    1.7630    0.0000 C.2     1  LIG1        0.2461
     14 O          -6.1500    1.0830    0.0000 O.2     1  LIG1       -0.2730
     15 C          -5.0920    2.7080    0.0000 C.3     1  LIG1        0.0968
     16 C          -5.0330   -0.1830    0.0000 C.ar    1  LIG1        0.0198
     17 C          -5.0170   -1.1880    0.0000 C.ar    1  LIG1        0.0396
     18 C          -4.1420   -1.6580    0.0000 C.ar    1  LIG1        0.1540
     19 O          -4.1420   -2.6250    0.0000 O.3     1  LIG1       -0.4701
     20 C          -5.1500   -3.2330    0.0000 C.3     1  LIG1        0.2525
     21 O          -0.8500   -1.6040    0.0000 O.2     1  LIG1       -0.2665
     22 C          -0.8420    1.2500    0.0000 C.3     1  LIG1        0.1408
     23 C          -0.2080    1.7630    0.0000 C.3     1  LIG1        0.0818
     24 C           0.7670    1.6580    0.0000 C.3     1  LIG1        0.1022
     25 C           3.3130    1.7580    0.0000 C.ar    1  LIG1        0.1222
     26 C           3.4000    2.7960    0.0000 C.ar    1  LIG1        0.0204
     27 C           4.3630    3.2380    0.0000 C.ar    1  LIG1        0.0081
     28 C           5.1960    2.6290    0.0000 C.ar    1  LIG1        0.0346
     29 C           5.0880    1.5830    0.0000 C.ar    1  LIG1        0.0081
     30 C           4.1580    1.1540    0.0000 C.ar    1  LIG1        0.0204
     31 BR          6.1500    3.0710    0.0000 Br      1  LIG1       -0.0490
     32 O           2.7710    0.4250    0.0000 O.2     1  LIG1       -0.1528
     33 O           1.9960    2.2330    0.0000 O.2     1  LIG1       -0.1528
@<TRIPOS>BOND
     1     1     2    1
     2     1    25    1
     3     1    32    2
     4     1    33    2
     5     2     3    1
     6     2    24    1
     7     3     4    1
     8     4     5    1
     9     5     6    1
    10     5    22    1
    11     6     7    1
    12     7     8   am
    13     7    21    2
    14     8     9    1
    15     9    10   ar
    16     9    18   ar
    17    10    11   ar
    18    11    12    1
    19    11    16   ar
    20    12    13   am
    21    13    14    2
    22    13    15    1
    23    16    17   ar
    24    17    18   ar
    25    18    19    1
    26    19    20    1
    27    22    23    1
    28    23    24    1
    29    25    26   ar
    30    25    30   ar
    31    26    27   ar
    32    27    28   ar
    33    28    29   ar
    34    28    31    1
    35    29    30   ar
