@<TRIPOS>MOLECULE
35282_ChemDiv_C036-0037
 28 30 0 0 0
SMALL
GASTEIGER
Energy = 0

@<TRIPOS>ATOM
      1 S           1.4000    2.1380    0.0000 S.O2    1  LIG1        0.0635
      2 N           0.3250    1.8040    0.0000 N.3     1  LIG1       -0.1492
      3 C           0.0500    0.8920    0.0000 C.3     1  LIG1        0.1582
      4 C          -0.9040    0.5710    0.0000 C.3     1  LIG1        0.1587
      5 N          -1.7460    1.1080    0.0000 N.4     1  LIG1        0.3856
      6 C          -2.6080    0.6170    0.0000 C.3     1  LIG1        0.2269
      7 C          -2.6080   -0.4290    0.0000 C.2     1  LIG1        0.3034
      8 N          -3.3670   -0.9880    0.0000 N.am    1  LIG1       -0.1719
      9 C          -3.4580   -1.9830    0.0000 C.ar    1  LIG1        0.1009
     10 C          -4.3500   -2.5000    0.0000 C.ar    1  LIG1        0.1553
     11 F          -5.1880   -2.0130    0.0000 F       1  LIG1       -0.2028
     12 C          -4.3500   -3.5290    0.0000 C.ar    1  LIG1        0.0310
     13 C          -3.4880   -4.0420    0.0000 C.ar    1  LIG1        0.0024
     14 C          -2.5500   -3.5460    0.0000 C.ar    1  LIG1        0.0015
     15 C          -2.5790   -2.4960    0.0000 C.ar    1  LIG1        0.0189
     16 O          -1.8540   -0.8830    0.0000 O.2     1  LIG1       -0.2665
     17 C          -1.7960    2.0670    0.0000 C.3     1  LIG1        0.1408
     18 C          -1.1630    2.5790    0.0000 C.3     1  LIG1        0.0818
     19 C          -0.1880    2.4710    0.0000 C.3     1  LIG1        0.1022
     20 C           2.3460    2.5750    0.0000 C.ar    1  LIG1        0.1222
     21 C           3.1960    1.9670    0.0000 C.ar    1  LIG1        0.0204
     22 C           4.1250    2.3960    0.0000 C.ar    1  LIG1        0.0081
     23 C           4.2290    3.4420    0.0000 C.ar    1  LIG1        0.0346
     24 C           3.3960    4.0420    0.0000 C.ar    1  LIG1        0.0081
     25 C           2.4380    3.6080    0.0000 C.ar    1  LIG1        0.0204
     26 BR          5.1830    3.8790    0.0000 Br      1  LIG1       -0.0490
     27 O           1.0380    3.0460    0.0000 O.2     1  LIG1       -0.1528
     28 O           1.8080    1.2420    0.0000 O.2     1  LIG1       -0.1528
@<TRIPOS>BOND
     1     1     2    1
     2     1    20    1
     3     1    27    2
     4     1    28    2
     5     2     3    1
     6     2    19    1
     7     3     4    1
     8     4     5    1
     9     5     6    1
    10     5    17    1
    11     6     7    1
    12     7     8   am
    13     7    16    2
    14     8     9    1
    15     9    10   ar
    16     9    15   ar
    17    10    11    1
    18    10    12   ar
    19    12    13   ar
    20    13    14   ar
    21    14    15   ar
    22    17    18    1
    23    18    19    1
    24    20    21   ar
    25    20    25   ar
    26    21    22   ar
    27    22    23   ar
    28    23    24   ar
    29    23    26    1
    30    24    25   ar
