@<TRIPOS>MOLECULE
35287_ChemDiv_C766-0020
 24 27 0 0 0
SMALL
GASTEIGER
Energy = 0

@<TRIPOS>ATOM
      1 C          -1.2960    0.2500    0.0000 C.ar    1  LIG1        0.2291
      2 C          -1.2960    1.2630    0.0000 C.ar    1  LIG1        0.0601
      3 C          -0.4210    1.7630    0.0000 C.ar    1  LIG1        0.1192
      4 N           0.4500    1.2580    0.0000 N.ar    1  LIG1       -0.2197
      5 C           0.4460    0.2460    0.0000 C.ar    1  LIG1        0.1659
      6 N          -0.4290   -0.2540    0.0000 N.ar    1  LIG1       -0.1924
      7 C           1.3080   -0.2580    0.0000 C.ar    1  LIG1        0.0359
      8 C           1.2960   -1.2540    0.0000 C.ar    1  LIG1        0.0031
      9 C           2.1580   -1.7580    0.0000 C.ar    1  LIG1        0.0012
     10 C           3.0210   -1.2580    0.0000 C.ar    1  LIG1        0.0140
     11 C           3.8790   -1.7580    0.0000 C.2     1  LIG1        0.0729
     12 O           4.7500   -1.2670    0.0000 O.co2   1  LIG1       -0.5446
     13 O           3.8790   -2.7580    0.0000 O.co2   1  LIG1       -0.5446
     14 C           3.0210   -0.2580    0.0000 C.ar    1  LIG1        0.0012
     15 C           2.1630    0.2420    0.0000 C.ar    1  LIG1        0.0031
     16 S          -0.4170    2.7630    0.0000 S.2     1  LIG1       -0.0301
     17 C          -2.1670    1.7710    0.0000 C.3     1  LIG1        0.0626
     18 C          -3.0290    1.2630    0.0000 C.ar    1  LIG1        0.0170
     19 C          -3.0330    0.2540    0.0000 C.ar    1  LIG1        0.1435
     20 O          -2.1670   -0.2420    0.0000 O.3     1  LIG1       -0.4366
     21 C          -3.8960   -0.2380    0.0000 C.ar    1  LIG1        0.0372
     22 C          -4.7540    0.2580    0.0000 C.ar    1  LIG1        0.0031
     23 C          -4.7540    1.2630    0.0000 C.ar    1  LIG1       -0.0001
     24 C          -3.8960    1.7580    0.0000 C.ar    1  LIG1       -0.0009
@<TRIPOS>BOND
     1     1     2   ar
     2     1     6   ar
     3     1    20    1
     4     2     3   ar
     5     2    17    1
     6     3     4   ar
     7     3    16    2
     8     4     5   ar
     9     5     6   ar
    10     5     7    1
    11     7     8   ar
    12     7    15   ar
    13     8     9   ar
    14     9    10   ar
    15    10    11    1
    16    10    14   ar
    17    11    12   ar
    18    11    13   ar
    19    14    15   ar
    20    17    18    1
    21    18    19   ar
    22    18    24   ar
    23    19    20    1
    24    19    21   ar
    25    21    22   ar
    26    22    23   ar
    27    23    24   ar
