@<TRIPOS>MOLECULE
35297_ChemDiv_8017-5689
 28 32 0 0 0
SMALL
GASTEIGER
Energy = 0

@<TRIPOS>ATOM
      1 S           4.4170   -1.9290    0.0000 S.O2    1  LIG1        0.0935
      2 C           3.7040   -1.2290    0.0000 C.ar    1  LIG1        0.1251
      3 C           2.7380   -1.5040    0.0000 C.ar    1  LIG1        0.0213
      4 C           2.0250   -0.8000    0.0000 C.ar    1  LIG1        0.0180
      5 C           2.2750    0.1670    0.0000 C.ar    1  LIG1        0.0739
      6 N           1.4420    0.7170    0.0000 N.am    1  LIG1       -0.1728
      7 C           0.5500    0.2710    0.0000 C.2     1  LIG1        0.3037
      8 C          -0.2880    0.8290    0.0000 C.ar    1  LIG1        0.1999
      9 O          -1.2250    0.4790    0.0000 O.2     1  LIG1       -0.4531
     10 C          -1.8500    1.2670    0.0000 C.ar    1  LIG1        0.1222
     11 C          -2.8500    1.2290    0.0000 C.3     1  LIG1        0.0512
     12 C          -3.5080    0.3960    0.0000 C.3     1  LIG1        0.0071
     13 C          -4.4210    0.7670    0.0000 C.3     1  LIG1        0.0004
     14 C          -4.4250    1.7960    0.0000 C.3     1  LIG1        0.0000
     15 C          -3.7580    2.6040    0.0000 C.3     1  LIG1        0.0004
     16 C          -2.8460    2.2210    0.0000 C.3     1  LIG1        0.0071
     17 C          -4.6250    2.2830    0.0000 C.3     1  LIG1        0.0000
     18 C          -4.6210    1.3170    0.0000 C.3     1  LIG1        0.0004
     19 C          -3.7580    1.0040    0.0000 C.3     1  LIG1        0.0071
     20 C          -5.3960    0.4920    0.0000 C.3     1  LIG1        0.0000
     21 C          -1.2960    2.1040    0.0000 C.ar    1  LIG1        0.0362
     22 C          -0.3250    1.8330    0.0000 C.ar    1  LIG1        0.0450
     23 O           0.4790   -0.7290    0.0000 O.2     1  LIG1       -0.2646
     24 C           3.2420    0.4210    0.0000 C.ar    1  LIG1        0.0180
     25 C           3.9500   -0.2710    0.0000 C.ar    1  LIG1        0.0213
     26 O           5.3920   -1.2630    0.0000 O.2     1  LIG1       -0.1503
     27 O           3.5670   -2.4750    0.0000 O.2     1  LIG1       -0.1503
     28 N           4.8500   -2.6000    0.0000 N.3     1  LIG1        0.0392
@<TRIPOS>BOND
     1     1     2    1
     2     1    26    2
     3     1    27    2
     4     1    28    1
     5     2     3   ar
     6     2    25   ar
     7     3     4   ar
     8     4     5   ar
     9     5     6    1
    10     5    24   ar
    11     6     7   am
    12     7     8    1
    13     7    23    2
    14     8     9   ar
    15     8    22   ar
    16     9    10   ar
    17    10    11    1
    18    10    21   ar
    19    11    12    1
    20    11    16    1
    21    11    19    1
    22    12    13    1
    23    13    14    1
    24    13    20    1
    25    14    15    1
    26    15    16    1
    27    15    17    1
    28    17    18    1
    29    18    19    1
    30    18    20    1
    31    21    22   ar
    32    24    25   ar
