@<TRIPOS>MOLECULE
35290_ChemDiv_C036-0149
 31 34 0 0 0
SMALL
GASTEIGER
Energy = 0

@<TRIPOS>ATOM
      1 S           0.4500    2.6130    0.0000 S.O2    1  LIG1        0.0635
      2 N          -0.4750    2.3330    0.0000 N.3     1  LIG1       -0.1492
      3 C          -0.7500    1.4210    0.0000 C.3     1  LIG1        0.1582
      4 C          -1.7170    1.0880    0.0000 C.3     1  LIG1        0.1587
      5 N          -2.5630    1.6290    0.0000 N.4     1  LIG1        0.3856
      6 C          -3.4250    1.1330    0.0000 C.3     1  LIG1        0.2269
      7 C          -3.4250    0.1960    0.0000 C.2     1  LIG1        0.3033
      8 N          -4.2380   -0.2630    0.0000 N.am    1  LIG1       -0.1741
      9 C          -4.2460   -1.1880    0.0000 C.ar    1  LIG1        0.0768
     10 C          -3.4250   -1.6710    0.0000 C.ar    1  LIG1        0.0568
     11 C          -3.4130   -2.6380    0.0000 C.ar    1  LIG1        0.1777
     12 C          -4.2750   -3.1420    0.0000 C.ar    1  LIG1        0.1765
     13 O          -3.4630   -4.5330    0.0000 O.3     1  LIG1       -0.4346
     14 C          -2.6080   -4.0330    0.0000 C.3     1  LIG1        0.4294
     15 O          -2.5920   -3.1040    0.0000 O.3     1  LIG1       -0.4346
     16 C          -5.0960   -2.6250    0.0000 C.ar    1  LIG1        0.0415
     17 C          -5.1080   -1.6830    0.0000 C.ar    1  LIG1        0.0199
     18 O          -2.6250   -0.2790    0.0000 O.2     1  LIG1       -0.2665
     19 C          -2.6130    2.5920    0.0000 C.3     1  LIG1        0.1408
     20 C          -1.9750    3.1130    0.0000 C.3     1  LIG1        0.0818
     21 C          -1.0040    3.0080    0.0000 C.3     1  LIG1        0.1022
     22 C           1.4000    3.0500    0.0000 C.ar    1  LIG1        0.1224
     23 C           1.4960    4.1080    0.0000 C.ar    1  LIG1        0.0230
     24 C           2.4500    4.5330    0.0000 C.ar    1  LIG1        0.0383
     25 C           3.2960    3.9290    0.0000 C.ar    1  LIG1        0.1388
     26 C           3.1960    2.8880    0.0000 C.ar    1  LIG1        0.0383
     27 C           2.2540    2.4460    0.0000 C.ar    1  LIG1        0.0230
     28 O           4.2500    4.3670    0.0000 O.3     1  LIG1       -0.4714
     29 C           5.1040    3.7670    0.0000 C.3     1  LIG1        0.2525
     30 O           0.0830    3.5380    0.0000 O.2     1  LIG1       -0.1528
     31 O           0.8630    1.7210    0.0000 O.2     1  LIG1       -0.1528
@<TRIPOS>BOND
     1     1     2    1
     2     1    22    1
     3     1    30    2
     4     1    31    2
     5     2     3    1
     6     2    21    1
     7     3     4    1
     8     4     5    1
     9     5     6    1
    10     5    19    1
    11     6     7    1
    12     7     8   am
    13     7    18    2
    14     8     9    1
    15     9    10   ar
    16     9    17   ar
    17    10    11   ar
    18    11    12   ar
    19    11    15    1
    20    12    13    1
    21    12    16   ar
    22    13    14    1
    23    14    15    1
    24    16    17   ar
    25    19    20    1
    26    20    21    1
    27    22    23   ar
    28    22    27   ar
    29    23    24   ar
    30    24    25   ar
    31    25    26   ar
    32    25    28    1
    33    26    27   ar
    34    28    29    1
