@<TRIPOS>MOLECULE
35296_ChemDiv_C036-0159
 30 32 0 0 0
SMALL
GASTEIGER
Energy = 0

@<TRIPOS>ATOM
      1 S           1.4080    1.9830    0.0000 S.O2    1  LIG1        0.0635
      2 N           0.4830    1.7040    0.0000 N.3     1  LIG1       -0.1492
      3 C           0.2080    0.7920    0.0000 C.3     1  LIG1        0.1582
      4 C          -0.7580    0.4580    0.0000 C.3     1  LIG1        0.1587
      5 N          -1.6040    0.9960    0.0000 N.4     1  LIG1        0.3856
      6 C          -2.4670    0.5040    0.0000 C.3     1  LIG1        0.2269
      7 C          -2.4670   -0.4670    0.0000 C.2     1  LIG1        0.3033
      8 N          -3.3080   -0.9630    0.0000 N.am    1  LIG1       -0.1741
      9 C          -3.3080   -1.9330    0.0000 C.ar    1  LIG1        0.0766
     10 C          -4.1630   -2.4130    0.0000 C.ar    1  LIG1        0.0535
     11 C          -4.1630   -3.4330    0.0000 C.ar    1  LIG1        0.1400
     12 O          -5.0130   -3.9040    0.0000 O.3     1  LIG1       -0.4714
     13 C          -6.0630   -3.2540    0.0000 C.3     1  LIG1        0.2525
     14 C          -3.3080   -3.9040    0.0000 C.ar    1  LIG1        0.0370
     15 C          -2.4670   -3.4330    0.0000 C.ar    1  LIG1        0.0044
     16 C          -2.4670   -2.4130    0.0000 C.ar    1  LIG1        0.0168
     17 O          -1.6210   -0.9630    0.0000 O.2     1  LIG1       -0.2665
     18 C          -1.6540    1.9630    0.0000 C.3     1  LIG1        0.1408
     19 C          -1.0170    2.4830    0.0000 C.3     1  LIG1        0.0818
     20 C          -0.0460    2.3790    0.0000 C.3     1  LIG1        0.1022
     21 C           2.3580    2.4250    0.0000 C.ar    1  LIG1        0.1224
     22 C           3.2130    1.8170    0.0000 C.ar    1  LIG1        0.0230
     23 C           4.1500    2.2580    0.0000 C.ar    1  LIG1        0.0383
     24 C           4.2500    3.3000    0.0000 C.ar    1  LIG1        0.1388
     25 C           3.4080    3.9080    0.0000 C.ar    1  LIG1        0.0383
     26 C           2.4540    3.4830    0.0000 C.ar    1  LIG1        0.0230
     27 O           5.2080    3.7420    0.0000 O.3     1  LIG1       -0.4714
     28 C           6.0630    3.1380    0.0000 C.3     1  LIG1        0.2525
     29 O           1.8170    1.0880    0.0000 O.2     1  LIG1       -0.1528
     30 O           1.0380    2.9080    0.0000 O.2     1  LIG1       -0.1528
@<TRIPOS>BOND
     1     1     2    1
     2     1    21    1
     3     1    29    2
     4     1    30    2
     5     2     3    1
     6     2    20    1
     7     3     4    1
     8     4     5    1
     9     5     6    1
    10     5    18    1
    11     6     7    1
    12     7     8   am
    13     7    17    2
    14     8     9    1
    15     9    10   ar
    16     9    16   ar
    17    10    11   ar
    18    11    12    1
    19    11    14   ar
    20    12    13    1
    21    14    15   ar
    22    15    16   ar
    23    18    19    1
    24    19    20    1
    25    21    22   ar
    26    21    26   ar
    27    22    23   ar
    28    23    24   ar
    29    24    25   ar
    30    24    27    1
    31    25    26   ar
    32    27    28    1
