@<TRIPOS>MOLECULE
35298_ChemDiv_C128-0010
 29 32 0 0 0
SMALL
GASTEIGER
Energy = 0

@<TRIPOS>ATOM
      1 C           1.7130    0.2380    0.0000 C.ar    1  LIG1        0.0746
      2 C           1.7130   -0.7540    0.0000 C.2     1  LIG1        0.2705
      3 N           0.8500   -1.2500    0.0000 N.am    1  LIG1       -0.1754
      4 C           0.8500   -2.2460    0.0000 C.ar    1  LIG1        0.0738
      5 C          -0.0080   -2.7420    0.0000 C.ar    1  LIG1        0.0189
      6 C          -0.0080   -3.7500    0.0000 C.ar    1  LIG1        0.0310
      7 C           0.8500   -4.2500    0.0000 C.ar    1  LIG1        0.1402
      8 F           0.8500   -5.2500    0.0000 F       1  LIG1       -0.2042
      9 C           1.7210   -3.7500    0.0000 C.ar    1  LIG1        0.0310
     10 C           1.7210   -2.7420    0.0000 C.ar    1  LIG1        0.0189
     11 O           2.5790   -1.2460    0.0000 O.2     1  LIG1       -0.2680
     12 C           0.8380    0.7380    0.0000 C.ar    1  LIG1        0.0087
     13 C           0.8500    1.7500    0.0000 C.ar    1  LIG1        0.0335
     14 C           1.7130    2.2630    0.0000 C.ar    1  LIG1        0.1516
     15 N           2.5830    1.7500    0.0000 N.ar    1  LIG1       -0.2272
     16 C           2.5830    0.7500    0.0000 C.ar    1  LIG1        0.1049
     17 N           1.7130    3.2580    0.0000 N.pl3   1  LIG1       -0.1941
     18 C           0.8500    3.7580    0.0000 C.ar    1  LIG1        0.0723
     19 C           0.8500    4.7500    0.0000 C.ar    1  LIG1        0.0197
     20 C           0.0000    5.2500    0.0000 C.ar    1  LIG1        0.0382
     21 C          -0.8710    4.7500    0.0000 C.ar    1  LIG1        0.1388
     22 C          -0.8710    3.7420    0.0000 C.ar    1  LIG1        0.0382
     23 C           0.0000    3.2580    0.0000 C.ar    1  LIG1        0.0197
     24 O          -1.7250    5.2460    0.0000 O.3     1  LIG1       -0.4714
     25 C          -2.5880    4.7330    0.0000 C.3     1  LIG1        0.2525
     26 C          -0.0170    2.2580    0.0000 C.ar    1  LIG1        0.0028
     27 C          -0.8830    1.7500    0.0000 C.ar    1  LIG1        0.0001
     28 C          -0.8830    0.7380    0.0000 C.ar    1  LIG1        0.0000
     29 C          -0.0170    0.2380    0.0000 C.ar    1  LIG1        0.0003
@<TRIPOS>BOND
     1     1     2    1
     2     1    12   ar
     3     1    16   ar
     4     2     3   am
     5     2    11    2
     6     3     4    1
     7     4     5   ar
     8     4    10   ar
     9     5     6   ar
    10     6     7   ar
    11     7     8    1
    12     7     9   ar
    13     9    10   ar
    14    12    13   ar
    15    12    29   ar
    16    13    14   ar
    17    13    26   ar
    18    14    15   ar
    19    14    17    1
    20    15    16   ar
    21    17    18    1
    22    18    19   ar
    23    18    23   ar
    24    19    20   ar
    25    20    21   ar
    26    21    22   ar
    27    21    24    1
    28    22    23   ar
    29    24    25    1
    30    26    27   ar
    31    27    28   ar
    32    28    29   ar
