@<TRIPOS>MOLECULE
35294_ChemDiv_C036-0157
 36 39 0 0 0
SMALL
GASTEIGER
Energy = 0

@<TRIPOS>ATOM
      1 S           0.9920    4.2250    0.0000 S.O2    1  LIG1        0.0635
      2 N           0.0670    3.9500    0.0000 N.3     1  LIG1       -0.1492
      3 C          -0.2080    3.0380    0.0000 C.3     1  LIG1        0.1582
      4 C          -1.1750    2.7040    0.0000 C.3     1  LIG1        0.1587
      5 N          -2.0210    3.2460    0.0000 N.4     1  LIG1        0.3856
      6 C          -2.8880    2.7460    0.0000 C.3     1  LIG1        0.2269
      7 C          -2.8880    1.7540    0.0000 C.2     1  LIG1        0.3033
      8 N          -3.7670    1.2500    0.0000 N.am    1  LIG1       -0.1742
      9 C          -3.7710    0.2630    0.0000 C.ar    1  LIG1        0.0738
     10 C          -2.9000   -0.2670    0.0000 C.ar    1  LIG1        0.0197
     11 C          -2.9330   -1.3000    0.0000 C.ar    1  LIG1        0.0382
     12 C          -3.8130   -1.7540    0.0000 C.ar    1  LIG1        0.1391
     13 O          -3.8420   -2.7830    0.0000 O.3     1  LIG1       -0.4706
     14 C          -4.7210   -3.2420    0.0000 C.3     1  LIG1        0.2320
     15 C          -4.7210   -4.1330    0.0000 C.ar    1  LIG1        0.0212
     16 C          -5.6250   -4.6380    0.0000 C.ar    1  LIG1       -0.0007
     17 C          -5.6540   -5.6630    0.0000 C.ar    1  LIG1       -0.0002
     18 C          -4.8420   -6.1540    0.0000 C.ar    1  LIG1       -0.0000
     19 C          -3.9330   -5.6830    0.0000 C.ar    1  LIG1       -0.0002
     20 C          -3.9170   -4.6380    0.0000 C.ar    1  LIG1       -0.0007
     21 C          -4.6790   -1.2210    0.0000 C.ar    1  LIG1        0.0382
     22 C          -4.6750   -0.2330    0.0000 C.ar    1  LIG1        0.0197
     23 O          -2.0290    1.2500    0.0000 O.2     1  LIG1       -0.2665
     24 C          -2.0750    4.2040    0.0000 C.3     1  LIG1        0.1408
     25 C          -1.4380    4.7250    0.0000 C.3     1  LIG1        0.0818
     26 C          -0.4630    4.6210    0.0000 C.3     1  LIG1        0.1022
     27 C           1.9460    4.6670    0.0000 C.ar    1  LIG1        0.1224
     28 C           2.7960    4.0580    0.0000 C.ar    1  LIG1        0.0230
     29 C           3.7380    4.5000    0.0000 C.ar    1  LIG1        0.0383
     30 C           3.8380    5.5460    0.0000 C.ar    1  LIG1        0.1388
     31 C           2.9960    6.1540    0.0000 C.ar    1  LIG1        0.0383
     32 C           2.0380    5.7250    0.0000 C.ar    1  LIG1        0.0230
     33 O           4.7960    5.9830    0.0000 O.3     1  LIG1       -0.4714
     34 C           5.6500    5.3790    0.0000 C.3     1  LIG1        0.2525
     35 O           1.4040    3.3330    0.0000 O.2     1  LIG1       -0.1528
     36 O           0.6250    5.1500    0.0000 O.2     1  LIG1       -0.1528
@<TRIPOS>BOND
     1     1     2    1
     2     1    27    1
     3     1    35    2
     4     1    36    2
     5     2     3    1
     6     2    26    1
     7     3     4    1
     8     4     5    1
     9     5     6    1
    10     5    24    1
    11     6     7    1
    12     7     8   am
    13     7    23    2
    14     8     9    1
    15     9    10   ar
    16     9    22   ar
    17    10    11   ar
    18    11    12   ar
    19    12    13    1
    20    12    21   ar
    21    13    14    1
    22    14    15    1
    23    15    16   ar
    24    15    20   ar
    25    16    17   ar
    26    17    18   ar
    27    18    19   ar
    28    19    20   ar
    29    21    22   ar
    30    24    25    1
    31    25    26    1
    32    27    28   ar
    33    27    32   ar
    34    28    29   ar
    35    29    30   ar
    36    30    31   ar
    37    30    33    1
    38    31    32   ar
    39    33    34    1
