@<TRIPOS>MOLECULE
35293_ChemDiv_C766-0578
 27 30 0 0 0
SMALL
GASTEIGER
Energy = 0

@<TRIPOS>ATOM
      1 C          -0.4380    0.4960    0.0000 C.ar    1  LIG1        0.2291
      2 C          -0.4380    1.5080    0.0000 C.ar    1  LIG1        0.0601
      3 C           0.4380    2.0130    0.0000 C.ar    1  LIG1        0.1192
      4 N           1.3170    1.5080    0.0000 N.ar    1  LIG1       -0.2197
      5 C           1.3080    0.4960    0.0000 C.ar    1  LIG1        0.1661
      6 N           0.4330    0.0000    0.0000 N.ar    1  LIG1       -0.1924
      7 C           2.1630    0.0000    0.0000 C.ar    1  LIG1        0.0422
      8 C           2.1630   -1.0080    0.0000 C.ar    1  LIG1        0.0435
      9 C           3.0210   -1.5130    0.0000 C.ar    1  LIG1        0.1806
     10 C           3.8830   -1.0130    0.0000 C.ar    1  LIG1        0.2627
     11 C           3.8830   -0.0130    0.0000 C.ar    1  LIG1        0.1806
     12 C           3.0210    0.4880    0.0000 C.ar    1  LIG1        0.0435
     13 O           4.7540    0.4830    0.0000 O.3     1  LIG1       -0.4681
     14 C           4.7540    1.4790    0.0000 C.3     1  LIG1        0.2526
     15 O           4.7460   -1.5210    0.0000 O.3     1  LIG1       -0.2801
     16 O           3.0170   -2.5080    0.0000 O.3     1  LIG1       -0.4681
     17 C           3.8670   -3.0080    0.0000 C.3     1  LIG1        0.2526
     18 S           0.4380    3.0130    0.0000 S.2     1  LIG1       -0.0301
     19 C          -1.3040    2.0250    0.0000 C.3     1  LIG1        0.0626
     20 C          -2.1750    1.5080    0.0000 C.ar    1  LIG1        0.0179
     21 C          -2.1750    0.5040    0.0000 C.ar    1  LIG1        0.1435
     22 O          -1.3130    0.0040    0.0000 O.3     1  LIG1       -0.4366
     23 C          -3.0380    0.0130    0.0000 C.ar    1  LIG1        0.0381
     24 C          -3.8960    0.5130    0.0000 C.ar    1  LIG1        0.0145
     25 C          -3.8960    1.5080    0.0000 C.ar    1  LIG1        0.0576
     26 C          -3.0380    2.0080    0.0000 C.ar    1  LIG1        0.0105
     27 CL         -4.7580    2.0080    0.0000 Cl      1  LIG1       -0.0823
@<TRIPOS>BOND
     1     1     2   ar
     2     1     6   ar
     3     1    22    1
     4     2     3   ar
     5     2    19    1
     6     3     4   ar
     7     3    18    2
     8     4     5   ar
     9     5     6   ar
    10     5     7    1
    11     7     8   ar
    12     7    12   ar
    13     8     9   ar
    14     9    10   ar
    15     9    16    1
    16    10    11   ar
    17    10    15    1
    18    11    12   ar
    19    11    13    1
    20    13    14    1
    21    16    17    1
    22    19    20    1
    23    20    21   ar
    24    20    26   ar
    25    21    22    1
    26    21    23   ar
    27    23    24   ar
    28    24    25   ar
    29    25    26   ar
    30    25    27    1
