@<TRIPOS>MOLECULE
35291_ChemDiv_C766-0216
 23 26 0 0 0
SMALL
GASTEIGER
Energy = 0

@<TRIPOS>ATOM
      1 C          -0.8630   -0.2380    0.0000 C.ar    1  LIG1        0.2291
      2 C          -0.8540    0.7750    0.0000 C.ar    1  LIG1        0.0601
      3 C           0.0130    1.2710    0.0000 C.ar    1  LIG1        0.1192
      4 N           0.8830    0.7630    0.0000 N.ar    1  LIG1       -0.2197
      5 C           0.8750   -0.2500    0.0000 C.ar    1  LIG1        0.1659
      6 N           0.0040   -0.7460    0.0000 N.ar    1  LIG1       -0.1924
      7 C           1.7380   -0.7500    0.0000 C.ar    1  LIG1        0.0359
      8 C           2.5960   -0.2540    0.0000 C.ar    1  LIG1        0.0036
      9 C           3.4540   -0.7500    0.0000 C.ar    1  LIG1        0.0068
     10 C           3.4540   -1.7460    0.0000 C.ar    1  LIG1        0.0346
     11 C           2.5880   -2.2460    0.0000 C.ar    1  LIG1        0.0068
     12 C           1.7250   -1.7460    0.0000 C.ar    1  LIG1        0.0036
     13 BR          4.3170   -2.2580    0.0000 Br      1  LIG1       -0.0490
     14 S           0.0130    2.2630    0.0000 S.2     1  LIG1       -0.0301
     15 C          -1.7330    1.2710    0.0000 C.3     1  LIG1        0.0625
     16 C          -2.5880    0.7750    0.0000 C.ar    1  LIG1        0.0167
     17 C          -2.5960   -0.2380    0.0000 C.ar    1  LIG1        0.1394
     18 O          -1.7330   -0.7380    0.0000 O.3     1  LIG1       -0.4369
     19 C          -3.4540   -0.7290    0.0000 C.ar    1  LIG1        0.0124
     20 C          -4.3210   -0.2380    0.0000 C.ar    1  LIG1       -0.0013
     21 C          -4.3210    0.7750    0.0000 C.ar    1  LIG1       -0.0004
     22 C          -3.4540    1.2710    0.0000 C.ar    1  LIG1       -0.0009
     23 C          -3.4580   -1.7290    0.0000 C.3     1  LIG1        0.0342
@<TRIPOS>BOND
     1     1     2   ar
     2     1     6   ar
     3     1    18    1
     4     2     3   ar
     5     2    15    1
     6     3     4   ar
     7     3    14    2
     8     4     5   ar
     9     5     6   ar
    10     5     7    1
    11     7     8   ar
    12     7    12   ar
    13     8     9   ar
    14     9    10   ar
    15    10    11   ar
    16    10    13    1
    17    11    12   ar
    18    15    16    1
    19    16    17   ar
    20    16    22   ar
    21    17    18    1
    22    17    19   ar
    23    19    20   ar
    24    19    23    1
    25    20    21   ar
    26    21    22   ar
