@<TRIPOS>MOLECULE
35295_ChemDiv_8018-0678
 16 18 0 0 0
SMALL
GASTEIGER
Energy = 0

@<TRIPOS>ATOM
      1 C          -0.0380    0.0330    0.0000 C.ar    1  LIG1        0.1864
      2 C          -0.9080    0.5210    0.0000 C.ar    1  LIG1        0.1986
      3 C          -1.7710    0.0330    0.0000 C.ar    1  LIG1        0.1231
      4 N          -2.5080    0.7290    0.0000 N.ar    1  LIG1       -0.2119
      5 C          -2.0830    1.6170    0.0000 C.ar    1  LIG1        0.2063
      6 O          -1.1080    1.5210    0.0000 O.2     1  LIG1       -0.4353
      7 C          -2.5710    2.4790    0.0000 C.3     1  LIG1        0.0950
      8 C          -1.7710   -0.9750    0.0000 C.ar    1  LIG1        0.0415
      9 C          -0.9080   -1.4670    0.0000 C.ar    1  LIG1        0.0861
     10 N          -0.0380   -0.9750    0.0000 N.ar    1  LIG1       -0.2552
     11 C           0.8250   -1.4670    0.0000 C.ar    1  LIG1        0.2672
     12 C           1.6880   -0.9750    0.0000 C.ar    1  LIG1        0.0759
     13 C           1.6880    0.0330    0.0000 C.ar    1  LIG1        0.0658
     14 N           0.8250    0.5210    0.0000 N.ar    1  LIG1       -0.2292
     15 C           2.5670    0.5540    0.0000 C.3     1  LIG1        0.0523
     16 O           0.8250   -2.4750    0.0000 O.2     1  LIG1       -0.2665
@<TRIPOS>BOND
     1     1     2   ar
     2     1    10   ar
     3     1    14   ar
     4     2     3   ar
     5     2     6   ar
     6     3     4   ar
     7     3     8   ar
     8     4     5   ar
     9     5     6   ar
    10     5     7    1
    11     8     9   ar
    12     9    10   ar
    13    10    11   ar
    14    11    12   ar
    15    11    16    2
    16    12    13   ar
    17    13    14   ar
    18    13    15    1
