@<TRIPOS>MOLECULE
35292_ChemDiv_C036-0153
 32 34 0 0 0
SMALL
GASTEIGER
Energy = 0

@<TRIPOS>ATOM
      1 S           0.5500    2.7710    0.0000 S.O2    1  LIG1        0.0635
      2 N          -0.3750    2.4920    0.0000 N.3     1  LIG1       -0.1492
      3 C          -0.6500    1.5790    0.0000 C.3     1  LIG1        0.1582
      4 C          -1.6170    1.2460    0.0000 C.3     1  LIG1        0.1587
      5 N          -2.4630    1.7880    0.0000 N.4     1  LIG1        0.3856
      6 C          -3.3250    1.2920    0.0000 C.3     1  LIG1        0.2269
      7 C          -3.3250    0.2080    0.0000 C.2     1  LIG1        0.3034
      8 N          -4.1500   -0.2380    0.0000 N.am    1  LIG1       -0.1711
      9 C          -4.1880   -1.2210    0.0000 C.ar    1  LIG1        0.1076
     10 C          -3.3580   -1.7960    0.0000 C.ar    1  LIG1        0.1569
     11 C          -3.3880   -2.7670    0.0000 C.ar    1  LIG1        0.0751
     12 C          -4.2670   -3.2210    0.0000 C.ar    1  LIG1        0.1418
     13 C          -5.1130   -2.7040    0.0000 C.ar    1  LIG1        0.0384
     14 C          -5.0670   -1.7380    0.0000 C.ar    1  LIG1        0.0228
     15 O          -4.3000   -4.2130    0.0000 O.3     1  LIG1       -0.4713
     16 C          -5.2040   -4.6920    0.0000 C.3     1  LIG1        0.2525
     17 O          -2.3880   -1.2960    0.0000 O.3     1  LIG1       -0.4700
     18 C          -1.4790   -1.8830    0.0000 C.3     1  LIG1        0.2525
     19 O          -2.5290   -0.2080    0.0000 O.2     1  LIG1       -0.2665
     20 C          -2.5130    2.7500    0.0000 C.3     1  LIG1        0.1408
     21 C          -1.8750    3.2710    0.0000 C.3     1  LIG1        0.0818
     22 C          -0.9040    3.1630    0.0000 C.3     1  LIG1        0.1022
     23 C           1.5000    3.2080    0.0000 C.ar    1  LIG1        0.1224
     24 C           2.3500    2.6040    0.0000 C.ar    1  LIG1        0.0230
     25 C           3.2920    3.0420    0.0000 C.ar    1  LIG1        0.0383
     26 C           3.3920    4.0830    0.0000 C.ar    1  LIG1        0.1388
     27 C           2.5460    4.6920    0.0000 C.ar    1  LIG1        0.0383
     28 C           1.5920    4.2670    0.0000 C.ar    1  LIG1        0.0230
     29 O           4.3460    4.5210    0.0000 O.3     1  LIG1       -0.4714
     30 C           5.2000    3.9210    0.0000 C.3     1  LIG1        0.2525
     31 O           0.9580    1.8750    0.0000 O.2     1  LIG1       -0.1528
     32 O           0.1830    3.6920    0.0000 O.2     1  LIG1       -0.1528
@<TRIPOS>BOND
     1     1     2    1
     2     1    23    1
     3     1    31    2
     4     1    32    2
     5     2     3    1
     6     2    22    1
     7     3     4    1
     8     4     5    1
     9     5     6    1
    10     5    20    1
    11     6     7    1
    12     7     8   am
    13     7    19    2
    14     8     9    1
    15     9    10   ar
    16     9    14   ar
    17    10    11   ar
    18    10    17    1
    19    11    12   ar
    20    12    13   ar
    21    12    15    1
    22    13    14   ar
    23    15    16    1
    24    17    18    1
    25    20    21    1
    26    21    22    1
    27    23    24   ar
    28    23    28   ar
    29    24    25   ar
    30    25    26   ar
    31    26    27   ar
    32    26    29    1
    33    27    28   ar
    34    29    30    1
