@<TRIPOS>MOLECULE
35299_ChemDiv_8017-5693
 26 29 0 0 0
SMALL
GASTEIGER
Energy = 0

@<TRIPOS>ATOM
      1 C           4.3170   -1.4830    0.0000 C.3     1  LIG1        0.2692
      2 O           3.7170   -0.6830    0.0000 O.3     1  LIG1       -0.4455
      3 C           2.7670   -0.9960    0.0000 C.ar    1  LIG1        0.1772
      4 C           2.7750   -1.9960    0.0000 C.ar    1  LIG1        0.1760
      5 O           3.7290   -2.2960    0.0000 O.3     1  LIG1       -0.4455
      6 C           1.9040   -2.4960    0.0000 C.ar    1  LIG1        0.0415
      7 C           1.0420   -2.0040    0.0000 C.ar    1  LIG1        0.0199
      8 C           1.0420   -1.0040    0.0000 C.ar    1  LIG1        0.0766
      9 C           1.9040   -0.5040    0.0000 C.ar    1  LIG1        0.0568
     10 N           0.1790   -0.5080    0.0000 N.am    1  LIG1       -0.1791
     11 C          -0.6960   -1.0080    0.0000 C.2     1  LIG1        0.2459
     12 O          -0.6880   -2.0080    0.0000 O.2     1  LIG1       -0.2730
     13 C          -1.5630   -0.5080    0.0000 C.3     1  LIG1        0.0918
     14 C          -1.5630    0.4960    0.0000 C.3     1  LIG1        0.0360
     15 C          -2.4330    1.0000    0.0000 C.ar    1  LIG1       -0.0215
     16 C          -3.3080    0.4960    0.0000 C.ar    1  LIG1       -0.0011
     17 C          -4.1710    0.9960    0.0000 C.ar    1  LIG1        0.0366
     18 C          -4.1710    2.0080    0.0000 C.ar    1  LIG1        0.1387
     19 C          -3.3080    2.5000    0.0000 C.ar    1  LIG1        0.0366
     20 C          -2.4380    2.0080    0.0000 C.ar    1  LIG1       -0.0011
     21 O          -5.0380    2.5000    0.0000 O.3     1  LIG1       -0.4714
     22 C          -5.9080    2.0000    0.0000 C.3     1  LIG1        0.2525
     23 C           5.0130   -0.7710    0.0000 C.3     1  LIG1        0.0838
     24 C           5.9040   -1.2170    0.0000 C.3     1  LIG1        0.0078
     25 C           5.7540   -2.1960    0.0000 C.3     1  LIG1        0.0078
     26 C           4.7790   -2.3710    0.0000 C.3     1  LIG1        0.0838
@<TRIPOS>BOND
     1     1     2    1
     2     1     5    1
     3     1    23    1
     4     1    26    1
     5     2     3    1
     6     3     4   ar
     7     3     9   ar
     8     4     5    1
     9     4     6   ar
    10     6     7   ar
    11     7     8   ar
    12     8     9   ar
    13     8    10    1
    14    10    11   am
    15    11    12    2
    16    11    13    1
    17    13    14    1
    18    14    15    1
    19    15    16   ar
    20    15    20   ar
    21    16    17   ar
    22    17    18   ar
    23    18    19   ar
    24    18    21    1
    25    19    20   ar
    26    21    22    1
    27    23    24    1
    28    24    25    1
    29    25    26    1
