@<TRIPOS>MOLECULE
35305_ChemDiv_8017-6102
 29 34 0 0 0
SMALL
GASTEIGER
Energy = 0

@<TRIPOS>ATOM
      1 C           1.0210    1.8540    0.0000 C.ar    1  LIG1        0.1026
      2 S           0.2080    1.3920    0.0000 S.2     1  LIG1       -0.0620
      3 C          -0.5830    1.7920    0.0000 C.ar    1  LIG1        0.1118
      4 C          -0.5830    2.8540    0.0000 C.ar    1  LIG1        0.0425
      5 C           0.4790    2.8540    0.0000 C.ar    1  LIG1        0.1015
      6 N           1.0080    3.7710    0.0000 N.pl3   1  LIG1       -0.1273
      7 C          -1.5040    3.3880    0.0000 C.ar    1  LIG1        0.0191
      8 C          -2.4290    2.8540    0.0000 C.ar    1  LIG1        0.0617
      9 C          -2.4290    1.7920    0.0000 C.ar    1  LIG1        0.0725
     10 N          -1.5040    1.2540    0.0000 N.ar    1  LIG1       -0.2419
     11 C          -3.3540    1.2540    0.0000 C.3     1  LIG1        0.0449
     12 C          -2.9580    1.9290    0.0000 C.3     1  LIG1        0.0274
     13 C          -3.8790    2.4670    0.0000 C.3     1  LIG1        0.0912
     14 N          -3.3540    3.3880    0.0000 N.pl3   1  LIG1       -0.3066
     15 C          -4.2750    2.8540    0.0000 C.3     1  LIG1        0.0912
     16 C          -4.2750    1.7920    0.0000 C.3     1  LIG1        0.0274
     17 C           1.8330    1.3920    0.0000 C.2     1  LIG1        0.2725
     18 N           1.8330    0.4460    0.0000 N.am    1  LIG1       -0.1963
     19 C           2.6460   -0.0210    0.0000 C.3     1  LIG1        0.1419
     20 C           2.6460   -0.9540    0.0000 C.ar    1  LIG1        0.0027
     21 C           3.4580   -1.4250    0.0000 C.ar    1  LIG1        0.0376
     22 C           3.4580   -2.3630    0.0000 C.ar    1  LIG1        0.1762
     23 C           2.6460   -2.8290    0.0000 C.ar    1  LIG1        0.1764
     24 O           2.6460   -3.7670    0.0000 O.3     1  LIG1       -0.4346
     25 C           3.5830   -3.7670    0.0000 C.3     1  LIG1        0.4294
     26 O           4.2710   -2.8290    0.0000 O.3     1  LIG1       -0.4346
     27 C           1.8330   -2.3630    0.0000 C.ar    1  LIG1        0.0399
     28 C           1.8330   -1.4250    0.0000 C.ar    1  LIG1        0.0008
     29 O           2.6460    1.8540    0.0000 O.2     1  LIG1       -0.2678
@<TRIPOS>BOND
     1     1     2   ar
     2     1     5   ar
     3     1    17    1
     4     2     3   ar
     5     3     4   ar
     6     3    10   ar
     7     4     5   ar
     8     4     7   ar
     9     5     6    1
    10     7     8   ar
    11     8     9   ar
    12     8    14    1
    13     9    10   ar
    14     9    11    1
    15    11    12    1
    16    11    16    1
    17    12    13    1
    18    13    14    1
    19    14    15    1
    20    15    16    1
    21    17    18   am
    22    17    29    2
    23    18    19    1
    24    19    20    1
    25    20    21   ar
    26    20    28   ar
    27    21    22   ar
    28    22    23   ar
    29    22    26    1
    30    23    24    1
    31    23    27   ar
    32    24    25    1
    33    25    26    1
    34    27    28   ar
