@<TRIPOS>MOLECULE
35307_ChemDiv_8017-6168
 15 16 0 0 0
SMALL
GASTEIGER
Energy = 0

@<TRIPOS>ATOM
      1 N          -0.9710   -0.1290    0.0000 N.ar    1  LIG1       -0.2410
      2 C          -0.9710    0.8670    0.0000 C.ar    1  LIG1        0.3687
      3 N          -0.0210    1.1710    0.0000 N.ar    1  LIG1        0.0925
      4 C           0.5670    0.3670    0.0000 C.ar    1  LIG1        0.2938
      5 C          -0.0210   -0.4420    0.0000 C.ar    1  LIG1        0.1570
      6 C           1.5670    0.3670    0.0000 C.3     1  LIG1        0.1115
      7 C           2.0670   -0.5000    0.0000 C.3     1  LIG1        0.0531
      8 C           3.0670   -0.5000    0.0000 C.2     1  LIG1        0.0509
      9 O           3.5670   -1.3630    0.0000 O.co2   1  LIG1       -0.5492
     10 O           3.5670    0.3670    0.0000 O.co2   1  LIG1       -0.5492
     11 C          -1.8420    1.3670    0.0000 C.ar    1  LIG1        0.0962
     12 C          -2.7080    0.8670    0.0000 C.ar    1  LIG1        0.0053
     13 C          -2.7080   -0.1290    0.0000 C.ar    1  LIG1       -0.0039
     14 C          -1.8420   -0.6290    0.0000 C.ar    1  LIG1        0.0816
     15 C          -3.5710   -0.6290    0.0000 C.3     1  LIG1        0.0326
@<TRIPOS>BOND
     1     1     2   ar
     2     1     5   ar
     3     1    14   ar
     4     2     3   ar
     5     2    11   ar
     6     3     4   ar
     7     4     5   ar
     8     4     6    1
     9     6     7    1
    10     7     8    1
    11     8     9   ar
    12     8    10   ar
    13    11    12   ar
    14    12    13   ar
    15    13    14   ar
    16    13    15    1
