@<TRIPOS>MOLECULE
35301_ChemDiv_8017-5718
 35 39 0 0 0
SMALL
GASTEIGER
Energy = 0

@<TRIPOS>ATOM
      1 S           0.2790   -1.7670    0.0000 S.O2    1  LIG1        0.0633
      2 C           1.2750   -1.6960    0.0000 C.ar    1  LIG1        0.1220
      3 C           1.7000   -0.7880    0.0000 C.ar    1  LIG1        0.0169
      4 C           2.6920   -0.7040    0.0000 C.ar    1  LIG1       -0.0054
      5 C           3.2670   -1.5210    0.0000 C.ar    1  LIG1        0.0500
      6 N           4.2290   -1.2330    0.0000 N.am    1  LIG1       -0.2586
      7 C           5.0250   -1.8460    0.0000 C.2     1  LIG1        0.2298
      8 O           4.9000   -2.8330    0.0000 O.2     1  LIG1       -0.2745
      9 C           5.9540   -1.4580    0.0000 C.3     1  LIG1        0.0952
     10 C           4.2500   -0.2290    0.0000 C.3     1  LIG1        0.1029
     11 C           3.3040    0.0960    0.0000 C.3     1  LIG1        0.0495
     12 C           2.8380   -2.4290    0.0000 C.ar    1  LIG1        0.0160
     13 C           1.8420   -2.5170    0.0000 C.ar    1  LIG1        0.0212
     14 N          -0.7210   -1.7540    0.0000 N.3     1  LIG1       -0.1540
     15 C          -1.2210   -0.8830    0.0000 C.3     1  LIG1        0.0976
     16 C          -2.2210   -0.8710    0.0000 C.3     1  LIG1        0.0409
     17 C          -2.7130    0.0080    0.0000 C.3     1  LIG1        0.0970
     18 N          -3.7130    0.0210    0.0000 N.pl3   1  LIG1       -0.2873
     19 C          -4.1130   -0.7420    0.0000 C.ar    1  LIG1        0.0475
     20 C          -5.0830   -1.0290    0.0000 C.ar    1  LIG1       -0.0082
     21 C          -5.8460   -0.6040    0.0000 C.3     1  LIG1        0.0323
     22 C          -5.9580    0.3830    0.0000 C.3     1  LIG1        0.0323
     23 C          -5.1750    1.0880    0.0000 C.ar    1  LIG1       -0.0082
     24 C          -4.1630    0.9000    0.0000 C.ar    1  LIG1        0.0475
     25 C          -3.4960    1.6830    0.0000 C.ar    1  LIG1        0.0145
     26 C          -3.8380    2.6580    0.0000 C.ar    1  LIG1        0.0013
     27 C          -4.8580    2.8380    0.0000 C.ar    1  LIG1       -0.0002
     28 C          -5.5210    2.0500    0.0000 C.ar    1  LIG1       -0.0030
     29 C          -5.3000   -2.0130    0.0000 C.ar    1  LIG1       -0.0030
     30 C          -4.5710   -2.6960    0.0000 C.ar    1  LIG1       -0.0002
     31 C          -3.6080   -2.3960    0.0000 C.ar    1  LIG1        0.0013
     32 C          -3.3830   -1.4210    0.0000 C.ar    1  LIG1        0.0145
     33 C          -1.2330   -2.6170    0.0000 C.3     1  LIG1        0.1149
     34 O           0.3000   -0.8040    0.0000 O.2     1  LIG1       -0.1528
     35 O           0.2790   -2.8080    0.0000 O.2     1  LIG1       -0.1528
@<TRIPOS>BOND
     1     1     2    1
     2     1    14    1
     3     1    34    2
     4     1    35    2
     5     2     3   ar
     6     2    13   ar
     7     3     4   ar
     8     4     5   ar
     9     4    11    1
    10     5     6    1
    11     5    12   ar
    12     6     7   am
    13     6    10    1
    14     7     8    2
    15     7     9    1
    16    10    11    1
    17    12    13   ar
    18    14    15    1
    19    14    33    1
    20    15    16    1
    21    16    17    1
    22    17    18    1
    23    18    19    1
    24    18    24    1
    25    19    20   ar
    26    19    32   ar
    27    20    21    1
    28    20    29   ar
    29    21    22    1
    30    22    23    1
    31    23    24   ar
    32    23    28   ar
    33    24    25   ar
    34    25    26   ar
    35    26    27   ar
    36    27    28   ar
    37    29    30   ar
    38    30    31   ar
    39    31    32   ar
