@<TRIPOS>MOLECULE
35309_ChemDiv_8017-6200
 26 30 0 0 0
SMALL
GASTEIGER
Energy = 0

@<TRIPOS>ATOM
      1 C          -1.9290    0.8710    0.0000 C.2     1  LIG1        0.2720
      2 C          -1.2830    0.1000    0.0000 C.ar    1  LIG1        0.0900
      3 C          -1.4830   -0.8790    0.0000 C.ar    1  LIG1        0.1528
      4 O          -2.3790   -1.3290    0.0000 O.3     1  LIG1       -0.4519
      5 C          -3.2920   -0.9170    0.0000 C.ar    1  LIG1        0.1605
      6 C          -3.5290    0.0500    0.0000 C.ar    1  LIG1        0.1081
      7 N          -2.9290    0.8460    0.0000 N.am    1  LIG1       -0.1723
      8 C          -4.4920    0.3250    0.0000 C.ar    1  LIG1        0.0197
      9 C          -5.2130   -0.3750    0.0000 C.ar    1  LIG1        0.0015
     10 C          -4.9670   -1.3420    0.0000 C.ar    1  LIG1        0.0032
     11 C          -4.0040   -1.6170    0.0000 C.ar    1  LIG1        0.0388
     12 C          -0.7420   -1.5420    0.0000 C.ar    1  LIG1        0.0751
     13 C           0.2080   -1.2290    0.0000 C.ar    1  LIG1        0.1484
     14 O           1.0790   -1.7290    0.0000 O.3     1  LIG1       -0.4533
     15 C           1.9460   -1.2290    0.0000 C.ar    1  LIG1        0.1485
     16 C           2.8080   -1.7290    0.0000 C.ar    1  LIG1        0.0776
     17 C           3.6710   -1.2290    0.0000 C.ar    1  LIG1        0.1795
     18 C           3.6710   -0.2290    0.0000 C.ar    1  LIG1        0.1766
     19 O           4.6210    0.0830    0.0000 O.3     1  LIG1       -0.4346
     20 C           5.2080   -0.7290    0.0000 C.3     1  LIG1        0.4294
     21 O           4.6210   -1.5380    0.0000 O.3     1  LIG1       -0.4345
     22 C           2.8080    0.2710    0.0000 C.ar    1  LIG1        0.0433
     23 C           1.9420   -0.2290    0.0000 C.ar    1  LIG1        0.0408
     24 C           0.4080   -0.2500    0.0000 C.ar    1  LIG1        0.0378
     25 C          -0.3330    0.4210    0.0000 C.ar    1  LIG1        0.0108
     26 O          -1.4290    1.7330    0.0000 O.2     1  LIG1       -0.2679
@<TRIPOS>BOND
     1     1     2    1
     2     1     7   am
     3     1    26    2
     4     2     3   ar
     5     2    25   ar
     6     3     4    1
     7     3    12   ar
     8     4     5    1
     9     5     6   ar
    10     5    11   ar
    11     6     7    1
    12     6     8   ar
    13     8     9   ar
    14     9    10   ar
    15    10    11   ar
    16    12    13   ar
    17    13    14    1
    18    13    24   ar
    19    14    15    1
    20    15    16   ar
    21    15    23   ar
    22    16    17   ar
    23    17    18   ar
    24    17    21    1
    25    18    19    1
    26    18    22   ar
    27    19    20    1
    28    20    21    1
    29    22    23   ar
    30    24    25   ar
