@<TRIPOS>MOLECULE
35300_ChemDiv_C128-0056
 33 37 0 0 0
SMALL
GASTEIGER
Energy = 0

@<TRIPOS>ATOM
      1 C           2.1460   -0.2500    0.0000 C.ar    1  LIG1        0.0728
      2 C           2.1460   -1.2460    0.0000 C.2     1  LIG1        0.2506
      3 N           1.2790   -1.7460    0.0000 N.am    1  LIG1       -0.2725
      4 C           0.4210   -1.2290    0.0000 C.3     1  LIG1        0.1151
      5 C          -0.4420   -1.7460    0.0000 C.3     1  LIG1        0.1123
      6 N          -0.4330   -2.7500    0.0000 N.pl3   1  LIG1       -0.3041
      7 C           0.4380   -3.2330    0.0000 C.3     1  LIG1        0.1123
      8 C           1.2790   -2.7330    0.0000 C.3     1  LIG1        0.1151
      9 C          -1.2920   -3.2500    0.0000 C.ar    1  LIG1        0.0479
     10 C          -2.1630   -2.7670    0.0000 C.ar    1  LIG1        0.0145
     11 C          -3.0210   -3.2790    0.0000 C.ar    1  LIG1        0.0013
     12 C          -3.0210   -4.2750    0.0000 C.ar    1  LIG1        0.0001
     13 C          -2.1460   -4.7670    0.0000 C.ar    1  LIG1        0.0013
     14 C          -1.3000   -4.2670    0.0000 C.ar    1  LIG1        0.0145
     15 O           3.0130   -1.7380    0.0000 O.2     1  LIG1       -0.2699
     16 C           1.2670    0.2460    0.0000 C.ar    1  LIG1        0.0086
     17 C           1.2790    1.2580    0.0000 C.ar    1  LIG1        0.0335
     18 C           2.1460    1.7750    0.0000 C.ar    1  LIG1        0.1516
     19 N           3.0170    1.2580    0.0000 N.ar    1  LIG1       -0.2272
     20 C           3.0170    0.2580    0.0000 C.ar    1  LIG1        0.1049
     21 N           2.1460    2.7710    0.0000 N.pl3   1  LIG1       -0.1941
     22 C           1.2790    3.2710    0.0000 C.ar    1  LIG1        0.0723
     23 C           0.4290    2.7710    0.0000 C.ar    1  LIG1        0.0197
     24 C          -0.4420    3.2540    0.0000 C.ar    1  LIG1        0.0382
     25 C          -0.4420    4.2670    0.0000 C.ar    1  LIG1        0.1388
     26 C           0.4290    4.7670    0.0000 C.ar    1  LIG1        0.0382
     27 C           1.2790    4.2670    0.0000 C.ar    1  LIG1        0.0197
     28 O          -1.3000    4.7580    0.0000 O.3     1  LIG1       -0.4714
     29 C          -2.1630    4.2500    0.0000 C.3     1  LIG1        0.2525
     30 C           0.4170    1.7670    0.0000 C.ar    1  LIG1        0.0028
     31 C          -0.4540    1.2580    0.0000 C.ar    1  LIG1        0.0001
     32 C          -0.4540    0.2460    0.0000 C.ar    1  LIG1        0.0000
     33 C           0.4170   -0.2500    0.0000 C.ar    1  LIG1        0.0003
@<TRIPOS>BOND
     1     1     2    1
     2     1    16   ar
     3     1    20   ar
     4     2     3   am
     5     2    15    2
     6     3     4    1
     7     3     8    1
     8     4     5    1
     9     5     6    1
    10     6     7    1
    11     6     9    1
    12     7     8    1
    13     9    10   ar
    14     9    14   ar
    15    10    11   ar
    16    11    12   ar
    17    12    13   ar
    18    13    14   ar
    19    16    17   ar
    20    16    33   ar
    21    17    18   ar
    22    17    30   ar
    23    18    19   ar
    24    18    21    1
    25    19    20   ar
    26    21    22    1
    27    22    23   ar
    28    22    27   ar
    29    23    24   ar
    30    24    25   ar
    31    25    26   ar
    32    25    28    1
    33    26    27   ar
    34    28    29    1
    35    30    31   ar
    36    31    32   ar
    37    32    33   ar
