@<TRIPOS>MOLECULE
35304_ChemDiv_C128-0085
 30 33 0 0 0
SMALL
GASTEIGER
Energy = 0

@<TRIPOS>ATOM
      1 C           1.7210   -0.5170    0.0000 C.ar    1  LIG1        0.0728
      2 C           1.7210   -1.5080    0.0000 C.2     1  LIG1        0.2505
      3 N           0.8580   -2.0080    0.0000 N.am    1  LIG1       -0.2760
      4 C          -0.0040   -1.5080    0.0000 C.3     1  LIG1        0.0942
      5 C          -0.8790   -2.0080    0.0000 C.3     1  LIG1        0.0307
      6 C          -0.8790   -3.0040    0.0000 C.3     1  LIG1        0.0833
      7 C          -1.7380   -3.5040    0.0000 C.2     1  LIG1        0.2604
      8 O          -1.7380   -4.5000    0.0000 O.2     1  LIG1       -0.2717
      9 N          -2.5960   -3.0040    0.0000 N.am    1  LIG1       -0.0878
     10 C          -0.0040   -3.5040    0.0000 C.3     1  LIG1        0.0307
     11 C           0.8580   -3.0040    0.0000 C.3     1  LIG1        0.0942
     12 O           2.5880   -2.0040    0.0000 O.2     1  LIG1       -0.2699
     13 C           0.8460   -0.0170    0.0000 C.ar    1  LIG1        0.0086
     14 C           0.8580    0.9920    0.0000 C.ar    1  LIG1        0.0335
     15 C           1.7210    1.5080    0.0000 C.ar    1  LIG1        0.1516
     16 N           2.5920    0.9920    0.0000 N.ar    1  LIG1       -0.2272
     17 C           2.5920   -0.0080    0.0000 C.ar    1  LIG1        0.1049
     18 N           1.7210    2.5040    0.0000 N.pl3   1  LIG1       -0.1941
     19 C           0.8580    3.0040    0.0000 C.ar    1  LIG1        0.0723
     20 C           0.0080    2.5040    0.0000 C.ar    1  LIG1        0.0197
     21 C          -0.8630    2.9920    0.0000 C.ar    1  LIG1        0.0382
     22 C          -0.8630    4.0000    0.0000 C.ar    1  LIG1        0.1388
     23 C           0.0080    4.5000    0.0000 C.ar    1  LIG1        0.0382
     24 C           0.8580    4.0000    0.0000 C.ar    1  LIG1        0.0197
     25 O          -1.7210    4.4920    0.0000 O.3     1  LIG1       -0.4714
     26 C          -2.5830    3.9880    0.0000 C.3     1  LIG1        0.2525
     27 C          -0.0080    1.5040    0.0000 C.ar    1  LIG1        0.0028
     28 C          -0.8790    0.9920    0.0000 C.ar    1  LIG1        0.0001
     29 C          -0.8790   -0.0170    0.0000 C.ar    1  LIG1        0.0000
     30 C          -0.0080   -0.5170    0.0000 C.ar    1  LIG1        0.0003
@<TRIPOS>BOND
     1     1     2    1
     2     1    13   ar
     3     1    17   ar
     4     2     3   am
     5     2    12    2
     6     3     4    1
     7     3    11    1
     8     4     5    1
     9     5     6    1
    10     6     7    1
    11     6    10    1
    12     7     8    2
    13     7     9   am
    14    10    11    1
    15    13    14   ar
    16    13    30   ar
    17    14    15   ar
    18    14    27   ar
    19    15    16   ar
    20    15    18    1
    21    16    17   ar
    22    18    19    1
    23    19    20   ar
    24    19    24   ar
    25    20    21   ar
    26    21    22   ar
    27    22    23   ar
    28    22    25    1
    29    23    24   ar
    30    25    26    1
    31    27    28   ar
    32    28    29   ar
    33    29    30   ar
