@<TRIPOS>MOLECULE
35303_ChemDiv_8017-5847
 27 28 0 0 0
SMALL
GASTEIGER
Energy = 0

@<TRIPOS>ATOM
      1 N           2.2670    0.8080    0.0000 N.ar    1  LIG1       -0.2244
      2 C           1.6790    0.0000    0.0000 C.ar    1  LIG1        0.1899
      3 N           2.2670   -0.8040    0.0000 N.ar    1  LIG1       -0.2244
      4 C           3.2170   -0.5000    0.0000 C.ar    1  LIG1        0.0746
      5 C           3.2170    0.5000    0.0000 C.ar    1  LIG1        0.0750
      6 C           4.0790    1.0000    0.0000 C.3     1  LIG1        0.0534
      7 C           4.0790   -1.0000    0.0000 C.3     1  LIG1        0.0471
      8 C           4.9500   -0.5000    0.0000 C.3     1  LIG1        0.0060
      9 C           4.9500    0.5000    0.0000 C.3     1  LIG1        0.0004
     10 C           5.8210   -1.0000    0.0000 C.3     1  LIG1        0.0004
     11 S           0.6790    0.0000    0.0000 S.3     1  LIG1       -0.0658
     12 C           0.1790   -0.8670    0.0000 C.3     1  LIG1        0.1516
     13 C          -0.8210   -0.8670    0.0000 C.2     1  LIG1        0.2533
     14 N          -1.3210    0.0000    0.0000 N.am    1  LIG1       -0.1946
     15 C          -2.3210    0.0080    0.0000 C.3     1  LIG1        0.1977
     16 C          -2.8210    0.8710    0.0000 C.2     1  LIG1        0.3374
     17 O          -3.8210    0.8710    0.0000 O.2     1  LIG1       -0.2482
     18 O          -2.3210    1.7330    0.0000 O.3     1  LIG1       -0.4432
     19 C          -1.3210    1.7330    0.0000 C.3     1  LIG1        0.2557
     20 C          -2.8210   -0.8630    0.0000 C.3     1  LIG1        0.0594
     21 C          -3.8210   -0.8630    0.0000 C.ar    1  LIG1       -0.0199
     22 C          -4.3210    0.0080    0.0000 C.ar    1  LIG1       -0.0042
     23 C          -5.3210    0.0000    0.0000 C.ar    1  LIG1       -0.0003
     24 C          -5.8250   -0.8630    0.0000 C.ar    1  LIG1       -0.0000
     25 C          -5.3210   -1.7290    0.0000 C.ar    1  LIG1       -0.0003
     26 C          -4.3210   -1.7290    0.0000 C.ar    1  LIG1       -0.0042
     27 O          -1.3210   -1.7290    0.0000 O.2     1  LIG1       -0.2724
@<TRIPOS>BOND
     1     1     2   ar
     2     1     5   ar
     3     2     3   ar
     4     2    11    1
     5     3     4   ar
     6     4     5   ar
     7     4     7    1
     8     5     6    1
     9     7     8    1
    10     8     9    1
    11     8    10    1
    12    11    12    1
    13    12    13    1
    14    13    14   am
    15    13    27    2
    16    14    15    1
    17    15    16    1
    18    15    20    1
    19    16    17    2
    20    16    18    1
    21    18    19    1
    22    20    21    1
    23    21    22   ar
    24    21    26   ar
    25    22    23   ar
    26    23    24   ar
    27    24    25   ar
    28    25    26   ar
