@<TRIPOS>MOLECULE
35308_ChemDiv_C128-0131
 32 34 0 0 0
SMALL
GASTEIGER
Energy = 0

@<TRIPOS>ATOM
      1 C           2.1500    0.9790    0.0000 C.ar    1  LIG1        0.0743
      2 C           1.2750    1.4790    0.0000 C.ar    1  LIG1        0.0087
      3 C           1.2880    2.4920    0.0000 C.ar    1  LIG1        0.0335
      4 C           2.1500    3.0080    0.0000 C.ar    1  LIG1        0.1516
      5 N           3.0250    2.4920    0.0000 N.ar    1  LIG1       -0.2272
      6 C           3.0250    1.4920    0.0000 C.ar    1  LIG1        0.1049
      7 N           2.1500    4.0000    0.0000 N.pl3   1  LIG1       -0.1941
      8 C           1.2880    4.5000    0.0000 C.ar    1  LIG1        0.0723
      9 C           1.2880    5.5000    0.0000 C.ar    1  LIG1        0.0197
     10 C           0.4380    5.9960    0.0000 C.ar    1  LIG1        0.0382
     11 C          -0.4330    5.5000    0.0000 C.ar    1  LIG1        0.1388
     12 C          -0.4330    4.4830    0.0000 C.ar    1  LIG1        0.0382
     13 C           0.4380    4.0000    0.0000 C.ar    1  LIG1        0.0197
     14 O          -1.2920    5.9920    0.0000 O.3     1  LIG1       -0.4714
     15 C          -2.1580    5.4830    0.0000 C.3     1  LIG1        0.2525
     16 C           0.4210    3.0000    0.0000 C.ar    1  LIG1        0.0028
     17 C          -0.4500    2.4920    0.0000 C.ar    1  LIG1        0.0001
     18 C          -0.4500    1.4790    0.0000 C.ar    1  LIG1        0.0000
     19 C           0.4210    0.9790    0.0000 C.ar    1  LIG1        0.0003
     20 C           2.1500   -0.0130    0.0000 C.2     1  LIG1        0.2663
     21 O           3.0170   -0.5040    0.0000 O.2     1  LIG1       -0.2683
     22 N           1.2880   -0.5130    0.0000 N.am    1  LIG1       -0.2014
     23 C           1.2880   -1.4920    0.0000 C.3     1  LIG1        0.1216
     24 C           0.4210   -2.0080    0.0000 C.3     1  LIG1        0.0861
     25 C           0.4250   -3.0040    0.0000 C.3     1  LIG1        0.1404
     26 N          -0.4500   -3.5000    0.0000 N.4     1  LIG1        0.3773
     27 C          -1.2920   -3.0130    0.0000 C.3     1  LIG1        0.1385
     28 C          -2.1630   -3.5130    0.0000 C.3     1  LIG1        0.0627
     29 C          -3.0290   -3.0170    0.0000 C.3     1  LIG1        0.0063
     30 C          -0.4500   -4.5000    0.0000 C.3     1  LIG1        0.1385
     31 C           0.4250   -5.0000    0.0000 C.3     1  LIG1        0.0627
     32 C           0.4250   -5.9960    0.0000 C.3     1  LIG1        0.0063
@<TRIPOS>BOND
     1     1     2   ar
     2     1     6   ar
     3     1    20    1
     4     2     3   ar
     5     2    19   ar
     6     3     4   ar
     7     3    16   ar
     8     4     5   ar
     9     4     7    1
    10     5     6   ar
    11     7     8    1
    12     8     9   ar
    13     8    13   ar
    14     9    10   ar
    15    10    11   ar
    16    11    12   ar
    17    11    14    1
    18    12    13   ar
    19    14    15    1
    20    16    17   ar
    21    17    18   ar
    22    18    19   ar
    23    20    21    2
    24    20    22   am
    25    22    23    1
    26    23    24    1
    27    24    25    1
    28    25    26    1
    29    26    27    1
    30    26    30    1
    31    27    28    1
    32    28    29    1
    33    30    31    1
    34    31    32    1
