@<TRIPOS>MOLECULE
35302_ChemDiv_C128-0084
 28 30 0 0 0
SMALL
GASTEIGER
Energy = 0

@<TRIPOS>ATOM
      1 C           1.7130   -0.5080    0.0000 C.ar    1  LIG1        0.0743
      2 C           0.8380   -0.0080    0.0000 C.ar    1  LIG1        0.0087
      3 C           0.8500    1.0000    0.0000 C.ar    1  LIG1        0.0335
      4 C           1.7130    1.5170    0.0000 C.ar    1  LIG1        0.1516
      5 N           2.5880    1.0000    0.0000 N.ar    1  LIG1       -0.2272
      6 C           2.5880    0.0000    0.0000 C.ar    1  LIG1        0.1049
      7 N           1.7130    2.5130    0.0000 N.pl3   1  LIG1       -0.1941
      8 C           0.8500    3.0130    0.0000 C.ar    1  LIG1        0.0723
      9 C           0.0000    2.5130    0.0000 C.ar    1  LIG1        0.0197
     10 C          -0.8710    2.9960    0.0000 C.ar    1  LIG1        0.0382
     11 C          -0.8710    4.0080    0.0000 C.ar    1  LIG1        0.1388
     12 C           0.0000    4.5080    0.0000 C.ar    1  LIG1        0.0382
     13 C           0.8500    4.0080    0.0000 C.ar    1  LIG1        0.0197
     14 O          -1.7290    4.5000    0.0000 O.3     1  LIG1       -0.4714
     15 C          -2.5920    3.9960    0.0000 C.3     1  LIG1        0.2525
     16 C          -0.0170    1.5130    0.0000 C.ar    1  LIG1        0.0028
     17 C          -0.8880    1.0000    0.0000 C.ar    1  LIG1        0.0001
     18 C          -0.8880   -0.0080    0.0000 C.ar    1  LIG1        0.0000
     19 C          -0.0170   -0.5080    0.0000 C.ar    1  LIG1        0.0003
     20 C           1.7130   -1.5000    0.0000 C.2     1  LIG1        0.2668
     21 N           0.8500   -2.0000    0.0000 N.am    1  LIG1       -0.1895
     22 C           0.8500   -2.9960    0.0000 C.3     1  LIG1        0.2243
     23 C           0.0000   -3.5080    0.0000 C.2     1  LIG1        0.3394
     24 O           0.0040   -4.5080    0.0000 O.2     1  LIG1       -0.2481
     25 O          -0.8710   -3.0130    0.0000 O.3     1  LIG1       -0.4473
     26 C          -1.7290   -3.5080    0.0000 C.3     1  LIG1        0.2086
     27 C          -2.5920   -3.0130    0.0000 C.3     1  LIG1        0.0513
     28 O           2.5830   -1.9960    0.0000 O.2     1  LIG1       -0.2683
@<TRIPOS>BOND
     1     1     2   ar
     2     1     6   ar
     3     1    20    1
     4     2     3   ar
     5     2    19   ar
     6     3     4   ar
     7     3    16   ar
     8     4     5   ar
     9     4     7    1
    10     5     6   ar
    11     7     8    1
    12     8     9   ar
    13     8    13   ar
    14     9    10   ar
    15    10    11   ar
    16    11    12   ar
    17    11    14    1
    18    12    13   ar
    19    14    15    1
    20    16    17   ar
    21    17    18   ar
    22    18    19   ar
    23    20    21   am
    24    20    28    2
    25    21    22    1
    26    22    23    1
    27    23    24    2
    28    23    25    1
    29    25    26    1
    30    26    27    1
