@<TRIPOS>MOLECULE
35318_ChemDiv_C036-0270
 29 31 0 0 0
SMALL
GASTEIGER
Energy = 0

@<TRIPOS>ATOM
      1 S           0.8290    2.8000    0.0000 S.O2    1  LIG1        0.0635
      2 N           0.0130    2.4830    0.0000 N.3     1  LIG1       -0.1492
      3 C          -0.2580    1.5540    0.0000 C.3     1  LIG1        0.1582
      4 C          -1.2380    1.2210    0.0000 C.3     1  LIG1        0.1587
      5 N          -2.0920    1.7710    0.0000 N.4     1  LIG1        0.3856
      6 C          -2.9540    1.2750    0.0000 C.3     1  LIG1        0.2269
      7 C          -2.9540    0.2920    0.0000 C.2     1  LIG1        0.3033
      8 N          -3.8170   -0.1960    0.0000 N.am    1  LIG1       -0.1742
      9 C          -3.8330   -1.1790    0.0000 C.ar    1  LIG1        0.0738
     10 C          -2.9080   -1.6630    0.0000 C.ar    1  LIG1        0.0197
     11 C          -2.8790   -2.6580    0.0000 C.ar    1  LIG1        0.0382
     12 C          -3.7290   -3.2040    0.0000 C.ar    1  LIG1        0.1388
     13 C          -4.6500   -2.7170    0.0000 C.ar    1  LIG1        0.0382
     14 C          -4.6670   -1.7170    0.0000 C.ar    1  LIG1        0.0197
     15 O          -3.6960   -4.2130    0.0000 O.3     1  LIG1       -0.4714
     16 C          -4.5500   -4.7330    0.0000 C.3     1  LIG1        0.2525
     17 O          -2.1040   -0.2040    0.0000 O.2     1  LIG1       -0.2665
     18 C          -2.1420    2.7420    0.0000 C.3     1  LIG1        0.1408
     19 C          -1.5000    3.2710    0.0000 C.3     1  LIG1        0.0818
     20 C          -0.5170    3.1630    0.0000 C.3     1  LIG1        0.1022
     21 C           1.7960    3.2500    0.0000 C.ar    1  LIG1        0.1223
     22 C           2.6540    2.6420    0.0000 C.ar    1  LIG1        0.0222
     23 C           3.6000    3.0710    0.0000 C.ar    1  LIG1        0.0310
     24 C           3.7080    4.1290    0.0000 C.ar    1  LIG1        0.1402
     25 C           2.8540    4.7330    0.0000 C.ar    1  LIG1        0.0310
     26 C           1.8880    4.2960    0.0000 C.ar    1  LIG1        0.0222
     27 F           4.6630    4.5670    0.0000 F       1  LIG1       -0.2042
     28 O           1.2540    1.9040    0.0000 O.2     1  LIG1       -0.1528
     29 O           0.4670    3.7250    0.0000 O.2     1  LIG1       -0.1528
@<TRIPOS>BOND
     1     1     2    1
     2     1    21    1
     3     1    28    2
     4     1    29    2
     5     2     3    1
     6     2    20    1
     7     3     4    1
     8     4     5    1
     9     5     6    1
    10     5    18    1
    11     6     7    1
    12     7     8   am
    13     7    17    2
    14     8     9    1
    15     9    10   ar
    16     9    14   ar
    17    10    11   ar
    18    11    12   ar
    19    12    13   ar
    20    12    15    1
    21    13    14   ar
    22    15    16    1
    23    18    19    1
    24    19    20    1
    25    21    22   ar
    26    21    26   ar
    27    22    23   ar
    28    23    24   ar
    29    24    25   ar
    30    24    27    1
    31    25    26   ar
