@<TRIPOS>MOLECULE
35312_ChemDiv_C138-0800
 40 44 0 0 0
SMALL
GASTEIGER
Energy = 0

@<TRIPOS>ATOM
      1 C           2.5830   -0.2540    0.0000 C.ar    1  LIG1        0.0728
      2 C           2.5830   -1.2420    0.0000 C.2     1  LIG1        0.2509
      3 N           1.7170   -1.7420    0.0000 N.am    1  LIG1       -0.2645
      4 C           0.8540   -1.2420    0.0000 C.3     1  LIG1        0.1567
      5 C          -0.0040   -1.7420    0.0000 C.3     1  LIG1        0.1610
      6 N           0.0040   -2.7330    0.0000 N.4     1  LIG1        0.3835
      7 C          -0.8670   -3.2330    0.0000 C.3     1  LIG1        0.1695
      8 C          -1.7380   -2.7330    0.0000 C.ar    1  LIG1        0.0715
      9 C          -2.6040   -3.2460    0.0000 C.ar    1  LIG1        0.1769
     10 C          -3.4830   -2.7330    0.0000 C.ar    1  LIG1        0.2059
     11 C          -3.4830   -1.7420    0.0000 C.ar    1  LIG1        0.1754
     12 C          -2.6040   -1.2420    0.0000 C.ar    1  LIG1        0.0401
     13 C          -1.7380   -1.7420    0.0000 C.ar    1  LIG1        0.0078
     14 O          -4.3420   -1.2420    0.0000 O.3     1  LIG1       -0.4683
     15 C          -4.3420   -0.2460    0.0000 C.3     1  LIG1        0.2526
     16 O          -4.3420   -3.2460    0.0000 O.3     1  LIG1       -0.4654
     17 C          -5.2040   -2.7460    0.0000 C.3     1  LIG1        0.2528
     18 O          -2.6040   -4.2460    0.0000 O.3     1  LIG1       -0.4684
     19 C          -3.4750   -4.7460    0.0000 C.3     1  LIG1        0.2526
     20 C           0.8540   -3.2500    0.0000 C.3     1  LIG1        0.1610
     21 C           1.7170   -2.7500    0.0000 C.3     1  LIG1        0.1567
     22 O           3.4500   -1.7420    0.0000 O.2     1  LIG1       -0.2698
     23 C           3.4500    0.2500    0.0000 C.ar    1  LIG1        0.0086
     24 C           3.4500    1.2670    0.0000 C.ar    1  LIG1        0.0335
     25 C           2.5920    1.7630    0.0000 C.ar    1  LIG1        0.1517
     26 N           1.7170    1.2580    0.0000 N.ar    1  LIG1       -0.2272
     27 C           1.7170    0.2500    0.0000 C.ar    1  LIG1        0.1049
     28 N           2.6000    2.7630    0.0000 N.pl3   1  LIG1       -0.1911
     29 C           3.4670    3.2540    0.0000 C.ar    1  LIG1        0.1059
     30 C           3.4670    4.2380    0.0000 C.ar    1  LIG1        0.1538
     31 O           2.6130    4.7460    0.0000 O.3     1  LIG1       -0.4701
     32 C           1.7460    4.2380    0.0000 C.3     1  LIG1        0.2525
     33 C           4.3290    4.7380    0.0000 C.ar    1  LIG1        0.0383
     34 C           5.2000    4.2250    0.0000 C.ar    1  LIG1        0.0032
     35 C           5.1920    3.2290    0.0000 C.ar    1  LIG1        0.0015
     36 C           4.3250    2.7420    0.0000 C.ar    1  LIG1        0.0196
     37 C           4.3170    1.7630    0.0000 C.ar    1  LIG1        0.0028
     38 C           5.1750    1.2580    0.0000 C.ar    1  LIG1        0.0001
     39 C           5.1750    0.2500    0.0000 C.ar    1  LIG1        0.0000
     40 C           4.3170   -0.2460    0.0000 C.ar    1  LIG1        0.0003
@<TRIPOS>BOND
     1     1     2    1
     2     1    23   ar
     3     1    27   ar
     4     2     3   am
     5     2    22    2
     6     3     4    1
     7     3    21    1
     8     4     5    1
     9     5     6    1
    10     6     7    1
    11     6    20    1
    12     7     8    1
    13     8     9   ar
    14     8    13   ar
    15     9    10   ar
    16     9    18    1
    17    10    11   ar
    18    10    16    1
    19    11    12   ar
    20    11    14    1
    21    12    13   ar
    22    14    15    1
    23    16    17    1
    24    18    19    1
    25    20    21    1
    26    23    24   ar
    27    23    40   ar
    28    24    25   ar
    29    24    37   ar
    30    25    26   ar
    31    25    28    1
    32    26    27   ar
    33    28    29    1
    34    29    30   ar
    35    29    36   ar
    36    30    31    1
    37    30    33   ar
    38    31    32    1
    39    33    34   ar
    40    34    35   ar
    41    35    36   ar
    42    37    38   ar
    43    38    39   ar
    44    39    40   ar
