@<TRIPOS>MOLECULE
35319_ChemDiv_8018-0730
 26 29 0 0 0
SMALL
GASTEIGER
Energy = 0

@<TRIPOS>ATOM
      1 C           2.8670    3.1540    0.0000 C.ar    1  LIG1        0.3317
      2 N           2.9580    2.1630    0.0000 N.ar    1  LIG1       -0.2779
      3 C           2.0460    1.7630    0.0000 C.ar    1  LIG1        0.0811
      4 C           1.3830    2.5130    0.0000 C.ar    1  LIG1        0.0798
      5 N           1.8830    3.3670    0.0000 N.ar    1  LIG1       -0.2779
      6 C           1.4830    4.2750    0.0000 C.3     1  LIG1        0.1351
      7 C           0.3960    2.3000    0.0000 C.ar    1  LIG1        0.0202
      8 C           0.0920    1.3500    0.0000 C.ar    1  LIG1        0.0215
      9 C           0.7540    0.6130    0.0000 C.ar    1  LIG1        0.1251
     10 S           0.4330   -0.3420    0.0000 S.O2    1  LIG1        0.0772
     11 N           0.1330   -1.2920    0.0000 N.3     1  LIG1       -0.0729
     12 C          -0.8460   -1.5130    0.0000 C.3     1  LIG1        0.1420
     13 C          -1.1500   -2.4630    0.0000 C.ar    1  LIG1       -0.0002
     14 C          -2.1000   -2.7790    0.0000 C.ar    1  LIG1       -0.0222
     15 C          -2.0960   -3.7790    0.0000 C.ar    1  LIG1        0.0031
     16 S          -1.1460   -4.0790    0.0000 S.2     1  LIG1       -0.0914
     17 C          -0.5580   -3.2670    0.0000 C.ar    1  LIG1        0.0320
     18 C          -2.9710   -4.2750    0.0000 C.3     1  LIG1        0.0326
     19 C          -3.8330   -3.7790    0.0000 C.3     1  LIG1        0.0055
     20 C          -3.8330   -2.7790    0.0000 C.3     1  LIG1        0.0050
     21 C          -2.9710   -2.2670    0.0000 C.3     1  LIG1        0.0263
     22 O           1.2960   -0.8420    0.0000 O.2     1  LIG1       -0.1516
     23 O          -0.4380    0.1580    0.0000 O.2     1  LIG1       -0.1516
     24 C           1.7330    0.8130    0.0000 C.ar    1  LIG1        0.0387
     25 C           3.8290    1.6630    0.0000 C.3     1  LIG1        0.1351
     26 O           3.6080    3.8250    0.0000 O.2     1  LIG1       -0.2463
@<TRIPOS>BOND
     1     1     2   ar
     2     1     5   ar
     3     1    26    2
     4     2     3   ar
     5     2    25    1
     6     3     4   ar
     7     3    24   ar
     8     4     5   ar
     9     4     7   ar
    10     5     6    1
    11     7     8   ar
    12     8     9   ar
    13     9    10    1
    14     9    24   ar
    15    10    11    1
    16    10    22    2
    17    10    23    2
    18    11    12    1
    19    12    13    1
    20    13    14   ar
    21    13    17   ar
    22    14    15   ar
    23    14    21    1
    24    15    16   ar
    25    15    18    1
    26    16    17   ar
    27    18    19    1
    28    19    20    1
    29    20    21    1
