@<TRIPOS>MOLECULE
35316_ChemDiv_C036-0165
 34 36 0 0 0
SMALL
GASTEIGER
Energy = 0

@<TRIPOS>ATOM
      1 S           1.8580    1.2960    0.0000 S.O2    1  LIG1        0.0635
      2 N           0.9380    1.0170    0.0000 N.3     1  LIG1       -0.1492
      3 C           0.6580    0.1040    0.0000 C.3     1  LIG1        0.1582
      4 C          -0.3080   -0.2290    0.0000 C.3     1  LIG1        0.1587
      5 N          -1.1540    0.3130    0.0000 N.4     1  LIG1        0.3856
      6 C          -2.0210   -0.1880    0.0000 C.3     1  LIG1        0.2269
      7 C          -2.0210   -1.1080    0.0000 C.2     1  LIG1        0.3034
      8 N          -2.8290   -1.5790    0.0000 N.am    1  LIG1       -0.1711
      9 C          -3.6420   -1.1080    0.0000 C.ar    1  LIG1        0.1087
     10 C          -3.6750   -0.1210    0.0000 C.ar    1  LIG1        0.0363
     11 C          -4.5380    0.3500    0.0000 C.ar    1  LIG1        0.0749
     12 N          -4.6130    1.3130    0.0000 N.am    1  LIG1       -0.1792
     13 C          -5.3960    1.7790    0.0000 C.2     1  LIG1        0.2461
     14 O          -6.5170    1.1000    0.0000 O.2     1  LIG1       -0.2730
     15 C          -5.4580    2.7210    0.0000 C.3     1  LIG1        0.0968
     16 C          -5.3960   -0.1710    0.0000 C.ar    1  LIG1        0.0198
     17 C          -5.3830   -1.1710    0.0000 C.ar    1  LIG1        0.0396
     18 C          -4.5080   -1.6420    0.0000 C.ar    1  LIG1        0.1540
     19 O          -4.5080   -2.6080    0.0000 O.3     1  LIG1       -0.4701
     20 C          -5.5170   -3.2170    0.0000 C.3     1  LIG1        0.2525
     21 O          -1.2170   -1.5920    0.0000 O.2     1  LIG1       -0.2665
     22 C          -1.2080    1.2750    0.0000 C.3     1  LIG1        0.1408
     23 C          -0.5710    1.7960    0.0000 C.3     1  LIG1        0.0818
     24 C           0.4040    1.6920    0.0000 C.3     1  LIG1        0.1022
     25 C           2.8130    1.7380    0.0000 C.ar    1  LIG1        0.1224
     26 C           2.9080    2.8000    0.0000 C.ar    1  LIG1        0.0230
     27 C           3.8630    3.2210    0.0000 C.ar    1  LIG1        0.0383
     28 C           4.7080    2.6170    0.0000 C.ar    1  LIG1        0.1388
     29 C           4.6080    1.5670    0.0000 C.ar    1  LIG1        0.0383
     30 C           3.6670    1.1290    0.0000 C.ar    1  LIG1        0.0230
     31 O           5.6630    3.0540    0.0000 O.3     1  LIG1       -0.4714
     32 C           6.5170    2.4500    0.0000 C.3     1  LIG1        0.2525
     33 O           2.2710    0.4000    0.0000 O.2     1  LIG1       -0.1528
     34 O           1.4920    2.2210    0.0000 O.2     1  LIG1       -0.1528
@<TRIPOS>BOND
     1     1     2    1
     2     1    25    1
     3     1    33    2
     4     1    34    2
     5     2     3    1
     6     2    24    1
     7     3     4    1
     8     4     5    1
     9     5     6    1
    10     5    22    1
    11     6     7    1
    12     7     8   am
    13     7    21    2
    14     8     9    1
    15     9    10   ar
    16     9    18   ar
    17    10    11   ar
    18    11    12    1
    19    11    16   ar
    20    12    13   am
    21    13    14    2
    22    13    15    1
    23    16    17   ar
    24    17    18   ar
    25    18    19    1
    26    19    20    1
    27    22    23    1
    28    23    24    1
    29    25    26   ar
    30    25    30   ar
    31    26    27   ar
    32    27    28   ar
    33    28    29   ar
    34    28    31    1
    35    29    30   ar
    36    31    32    1
