@<TRIPOS>MOLECULE
35310_ChemDiv_C138-0775
 30 33 0 0 0
SMALL
GASTEIGER
Energy = 0

@<TRIPOS>ATOM
      1 C           0.8540   -0.5040    0.0000 C.ar    1  LIG1        0.0728
      2 C           0.8540   -1.4920    0.0000 C.2     1  LIG1        0.2505
      3 N          -0.0170   -1.9920    0.0000 N.am    1  LIG1       -0.2760
      4 C          -0.8790   -1.4920    0.0000 C.3     1  LIG1        0.0942
      5 C          -1.7330   -1.9920    0.0000 C.3     1  LIG1        0.0307
      6 C          -1.7330   -3.0000    0.0000 C.3     1  LIG1        0.0833
      7 C          -2.6130   -3.4920    0.0000 C.2     1  LIG1        0.2604
      8 O          -2.6130   -4.4960    0.0000 O.2     1  LIG1       -0.2717
      9 N          -3.4750   -3.0000    0.0000 N.am    1  LIG1       -0.0878
     10 C          -0.8790   -3.5000    0.0000 C.3     1  LIG1        0.0307
     11 C          -0.0170   -3.0040    0.0000 C.3     1  LIG1        0.0942
     12 O           1.7250   -1.9920    0.0000 O.2     1  LIG1       -0.2699
     13 C           1.7250    0.0000    0.0000 C.ar    1  LIG1        0.0086
     14 C           1.7250    1.0130    0.0000 C.ar    1  LIG1        0.0335
     15 C           0.8630    1.5130    0.0000 C.ar    1  LIG1        0.1517
     16 N          -0.0170    1.0080    0.0000 N.ar    1  LIG1       -0.2272
     17 C          -0.0170    0.0000    0.0000 C.ar    1  LIG1        0.1049
     18 N           0.8710    2.5130    0.0000 N.pl3   1  LIG1       -0.1911
     19 C           1.7380    3.0040    0.0000 C.ar    1  LIG1        0.1059
     20 C           1.7380    3.9920    0.0000 C.ar    1  LIG1        0.1538
     21 O           0.8880    4.4960    0.0000 O.3     1  LIG1       -0.4701
     22 C           0.0130    3.9920    0.0000 C.3     1  LIG1        0.2525
     23 C           2.5960    4.4880    0.0000 C.ar    1  LIG1        0.0383
     24 C           3.4710    3.9750    0.0000 C.ar    1  LIG1        0.0032
     25 C           3.4580    2.9790    0.0000 C.ar    1  LIG1        0.0015
     26 C           2.5920    2.4920    0.0000 C.ar    1  LIG1        0.0196
     27 C           2.5830    1.5130    0.0000 C.ar    1  LIG1        0.0028
     28 C           3.4420    1.0080    0.0000 C.ar    1  LIG1        0.0001
     29 C           3.4420    0.0000    0.0000 C.ar    1  LIG1        0.0000
     30 C           2.5830   -0.4960    0.0000 C.ar    1  LIG1        0.0003
@<TRIPOS>BOND
     1     1     2    1
     2     1    13   ar
     3     1    17   ar
     4     2     3   am
     5     2    12    2
     6     3     4    1
     7     3    11    1
     8     4     5    1
     9     5     6    1
    10     6     7    1
    11     6    10    1
    12     7     8    2
    13     7     9   am
    14    10    11    1
    15    13    14   ar
    16    13    30   ar
    17    14    15   ar
    18    14    27   ar
    19    15    16   ar
    20    15    18    1
    21    16    17   ar
    22    18    19    1
    23    19    20   ar
    24    19    26   ar
    25    20    21    1
    26    20    23   ar
    27    21    22    1
    28    23    24   ar
    29    24    25   ar
    30    25    26   ar
    31    27    28   ar
    32    28    29   ar
    33    29    30   ar
