@<TRIPOS>MOLECULE
35314_ChemDiv_C036-0163
 32 34 0 0 0
SMALL
GASTEIGER
Energy = 0

@<TRIPOS>ATOM
      1 S           0.4380    2.8830    0.0000 S.O2    1  LIG1        0.0635
      2 N          -0.4830    2.5960    0.0000 N.3     1  LIG1       -0.1492
      3 C          -0.7670    1.6790    0.0000 C.3     1  LIG1        0.1582
      4 C          -1.7250    1.3460    0.0000 C.3     1  LIG1        0.1587
      5 N          -2.5710    1.8880    0.0000 N.4     1  LIG1        0.3856
      6 C          -3.4330    1.4000    0.0000 C.3     1  LIG1        0.2269
      7 C          -3.4330    0.4790    0.0000 C.2     1  LIG1        0.3033
      8 N          -4.2330    0.0250    0.0000 N.am    1  LIG1       -0.1742
      9 C          -4.2330   -0.9000    0.0000 C.ar    1  LIG1        0.0736
     10 C          -3.3710   -1.3500    0.0000 C.ar    1  LIG1        0.0180
     11 C          -3.3210   -2.2920    0.0000 C.ar    1  LIG1        0.0213
     12 C          -4.1250   -2.7920    0.0000 C.ar    1  LIG1        0.1251
     13 S          -4.0790   -3.7290    0.0000 S.O2    1  LIG1        0.0935
     14 O          -3.4000   -4.8000    0.0000 O.2     1  LIG1       -0.1503
     15 O          -2.8080   -3.6540    0.0000 O.2     1  LIG1       -0.1503
     16 N          -5.0920   -4.3330    0.0000 N.3     1  LIG1        0.0392
     17 C          -4.9790   -2.3500    0.0000 C.ar    1  LIG1        0.0213
     18 C          -5.0170   -1.4130    0.0000 C.ar    1  LIG1        0.0180
     19 O          -2.6330    0.0290    0.0000 O.2     1  LIG1       -0.2665
     20 C          -2.6290    2.8540    0.0000 C.3     1  LIG1        0.1408
     21 C          -1.9920    3.3710    0.0000 C.3     1  LIG1        0.0818
     22 C          -1.0080    3.2750    0.0000 C.3     1  LIG1        0.1022
     23 C           1.3790    3.3210    0.0000 C.ar    1  LIG1        0.1224
     24 C           1.4830    4.3630    0.0000 C.ar    1  LIG1        0.0230
     25 C           2.4330    4.8000    0.0000 C.ar    1  LIG1        0.0383
     26 C           3.2710    4.1920    0.0000 C.ar    1  LIG1        0.1388
     27 C           3.1750    3.1540    0.0000 C.ar    1  LIG1        0.0383
     28 C           2.2380    2.7170    0.0000 C.ar    1  LIG1        0.0230
     29 O           4.2250    4.6330    0.0000 O.3     1  LIG1       -0.4714
     30 C           5.0880    4.0250    0.0000 C.3     1  LIG1        0.2525
     31 O           0.8540    1.9790    0.0000 O.2     1  LIG1       -0.1528
     32 O           0.0670    3.7920    0.0000 O.2     1  LIG1       -0.1528
@<TRIPOS>BOND
     1     1     2    1
     2     1    23    1
     3     1    31    2
     4     1    32    2
     5     2     3    1
     6     2    22    1
     7     3     4    1
     8     4     5    1
     9     5     6    1
    10     5    20    1
    11     6     7    1
    12     7     8   am
    13     7    19    2
    14     8     9    1
    15     9    10   ar
    16     9    18   ar
    17    10    11   ar
    18    11    12   ar
    19    12    13    1
    20    12    17   ar
    21    13    14    2
    22    13    15    2
    23    13    16    1
    24    17    18   ar
    25    20    21    1
    26    21    22    1
    27    23    24   ar
    28    23    28   ar
    29    24    25   ar
    30    25    26   ar
    31    26    27   ar
    32    26    29    1
    33    27    28   ar
    34    29    30    1
