@<TRIPOS>MOLECULE
35326_ChemDiv_C036-0147
 37 41 0 0 0
SMALL
GASTEIGER
Energy = 0

@<TRIPOS>ATOM
      1 S           0.0500    3.3790    0.0000 S.O2    1  LIG1        0.0635
      2 N          -0.8750    3.1000    0.0000 N.3     1  LIG1       -0.1492
      3 C          -1.1540    2.1880    0.0000 C.3     1  LIG1        0.1582
      4 C          -2.1170    1.8500    0.0000 C.3     1  LIG1        0.1587
      5 N          -2.9630    2.3960    0.0000 N.4     1  LIG1        0.3856
      6 C          -3.8290    1.8960    0.0000 C.3     1  LIG1        0.2269
      7 C          -3.8290    0.9710    0.0000 C.2     1  LIG1        0.3033
      8 N          -3.0290    0.5170    0.0000 N.am    1  LIG1       -0.1742
      9 C          -3.0290   -0.4210    0.0000 C.ar    1  LIG1        0.0737
     10 C          -2.1790   -0.9040    0.0000 C.ar    1  LIG1        0.0181
     11 C          -2.1920   -1.8920    0.0000 C.ar    1  LIG1        0.0185
     12 C          -3.0420   -2.3750    0.0000 C.ar    1  LIG1        0.0600
     13 N          -3.0580   -3.3540    0.0000 N.ar    1  LIG1       -0.3272
     14 C          -2.2080   -3.8420    0.0000 C.ar    1  LIG1        0.0599
     15 C          -1.3670   -3.3540    0.0000 C.ar    1  LIG1        0.0172
     16 C          -0.4790   -3.8830    0.0000 C.ar    1  LIG1        0.0015
     17 C          -0.5330   -4.8170    0.0000 C.ar    1  LIG1        0.0001
     18 C          -1.3790   -5.3000    0.0000 C.ar    1  LIG1        0.0015
     19 C          -2.1960   -4.8630    0.0000 C.ar    1  LIG1        0.0172
     20 C          -3.9080   -3.8420    0.0000 C.3     1  LIG1        0.1061
     21 C          -4.7080   -3.3580    0.0000 C.3     1  LIG1        0.0265
     22 C          -3.8920   -1.8830    0.0000 C.ar    1  LIG1        0.0185
     23 C          -3.8790   -0.9000    0.0000 C.ar    1  LIG1        0.0181
     24 O          -4.6500    0.5040    0.0000 O.2     1  LIG1       -0.2665
     25 C          -3.0170    3.3580    0.0000 C.3     1  LIG1        0.1408
     26 C          -2.3790    3.8790    0.0000 C.3     1  LIG1        0.0818
     27 C          -1.4040    3.7710    0.0000 C.3     1  LIG1        0.1022
     28 C           1.0000    3.8170    0.0000 C.ar    1  LIG1        0.1224
     29 C           1.8540    3.2130    0.0000 C.ar    1  LIG1        0.0230
     30 C           2.7920    3.6500    0.0000 C.ar    1  LIG1        0.0383
     31 C           2.8960    4.6920    0.0000 C.ar    1  LIG1        0.1388
     32 C           2.0500    5.3000    0.0000 C.ar    1  LIG1        0.0383
     33 C           1.0960    4.8750    0.0000 C.ar    1  LIG1        0.0230
     34 O           3.8500    5.1330    0.0000 O.3     1  LIG1       -0.4714
     35 C           4.7040    4.5250    0.0000 C.3     1  LIG1        0.2525
     36 O          -0.3170    4.2960    0.0000 O.2     1  LIG1       -0.1528
     37 O           0.4580    2.4830    0.0000 O.2     1  LIG1       -0.1528
@<TRIPOS>BOND
     1     1     2    1
     2     1    28    1
     3     1    36    2
     4     1    37    2
     5     2     3    1
     6     2    27    1
     7     3     4    1
     8     4     5    1
     9     5     6    1
    10     5    25    1
    11     6     7    1
    12     7     8   am
    13     7    24    2
    14     8     9    1
    15     9    10   ar
    16     9    23   ar
    17    10    11   ar
    18    11    12   ar
    19    11    15   ar
    20    12    13   ar
    21    12    22   ar
    22    13    14   ar
    23    13    20    1
    24    14    15   ar
    25    14    19   ar
    26    15    16   ar
    27    16    17   ar
    28    17    18   ar
    29    18    19   ar
    30    20    21    1
    31    22    23   ar
    32    25    26    1
    33    26    27    1
    34    28    29   ar
    35    28    33   ar
    36    29    30   ar
    37    30    31   ar
    38    31    32   ar
    39    31    34    1
    40    32    33   ar
    41    34    35    1
