@<TRIPOS>MOLECULE
35321_ChemDiv_8018-0733
 28 32 0 0 0
SMALL
GASTEIGER
Energy = 0

@<TRIPOS>ATOM
      1 C           1.2540    2.2830    0.0000 C.3     1  LIG1        0.0218
      2 C           0.3920    1.7790    0.0000 C.ar    1  LIG1        0.0113
      3 C           0.4000    0.7790    0.0000 C.ar    1  LIG1        0.0033
      4 C          -0.4670    0.2790    0.0000 C.ar    1  LIG1        0.0549
      5 C          -0.4580   -0.7170    0.0000 C.2     1  LIG1        0.2648
      6 O           0.4040   -1.2130    0.0000 O.2     1  LIG1       -0.2684
      7 N          -1.3210   -1.2170    0.0000 N.am    1  LIG1       -0.2012
      8 C          -2.1920   -0.7250    0.0000 C.3     1  LIG1        0.1234
      9 C          -3.0540   -1.2290    0.0000 C.3     1  LIG1        0.0879
     10 C          -3.0420   -2.2290    0.0000 C.ar    1  LIG1        0.1248
     11 O          -2.2210   -2.8130    0.0000 O.2     1  LIG1       -0.4546
     12 C          -2.5290   -3.7670    0.0000 C.ar    1  LIG1        0.1791
     13 C          -3.5290   -3.7750    0.0000 C.ar    1  LIG1        0.0434
     14 C          -3.8420   -2.8250    0.0000 C.ar    1  LIG1        0.0362
     15 C          -1.3290    0.7710    0.0000 C.ar    1  LIG1        0.0077
     16 C          -1.3420    1.7710    0.0000 C.ar    1  LIG1        0.0367
     17 C          -0.4710    2.2790    0.0000 C.ar    1  LIG1        0.1347
     18 O          -0.4710    3.2790    0.0000 O.3     1  LIG1       -0.4717
     19 C          -1.3420    3.7790    0.0000 C.3     1  LIG1        0.2525
     20 C           2.1790    2.4710    0.0000 C.3     1  LIG1        0.0041
     21 C           3.0250    2.1170    0.0000 C.3     1  LIG1        0.0003
     22 C           3.8380    2.9080    0.0000 C.3     1  LIG1        0.0000
     23 C           2.8540    2.6830    0.0000 C.3     1  LIG1        0.0003
     24 C           1.9540    3.0920    0.0000 C.3     1  LIG1        0.0041
     25 C           2.8130    1.6540    0.0000 C.3     1  LIG1        0.0000
     26 C           2.1000    0.8790    0.0000 C.3     1  LIG1        0.0003
     27 C           1.2040    1.2960    0.0000 C.3     1  LIG1        0.0041
     28 C           2.9880    1.1540    0.0000 C.3     1  LIG1        0.0000
@<TRIPOS>BOND
     1     1     2    1
     2     1    20    1
     3     1    24    1
     4     1    27    1
     5     2     3   ar
     6     2    17   ar
     7     3     4   ar
     8     4     5    1
     9     4    15   ar
    10     5     6    2
    11     5     7   am
    12     7     8    1
    13     8     9    1
    14     9    10    1
    15    10    11   ar
    16    10    14   ar
    17    11    12   ar
    18    12    13   ar
    19    13    14   ar
    20    15    16   ar
    21    16    17   ar
    22    17    18    1
    23    18    19    1
    24    20    21    1
    25    21    22    1
    26    21    28    1
    27    22    23    1
    28    23    24    1
    29    23    25    1
    30    25    26    1
    31    26    27    1
    32    26    28    1
