@<TRIPOS>MOLECULE
35323_ChemDiv_8018-0744
 34 39 0 0 0
SMALL
GASTEIGER
Energy = 0

@<TRIPOS>ATOM
      1 S           0.4170    0.3250    0.0000 S.O2    1  LIG1        0.0766
      2 N          -0.1130    1.1750    0.0000 N.pl3   1  LIG1       -0.1906
      3 C          -0.6500    2.0210    0.0000 C.3     1  LIG1        0.1157
      4 C          -1.6500    1.9790    0.0000 C.3     1  LIG1        0.0201
      5 C          -2.3080    1.1500    0.0000 C.3     1  LIG1        0.0017
      6 C          -3.2210    1.5170    0.0000 C.3     1  LIG1        0.0001
      7 C          -4.1960    1.2420    0.0000 C.3     1  LIG1        0.0000
      8 C          -3.4210    2.0750    0.0000 C.3     1  LIG1        0.0001
      9 C          -2.5580    1.7540    0.0000 C.3     1  LIG1        0.0017
     10 C          -3.4210    3.0380    0.0000 C.3     1  LIG1        0.0000
     11 C          -2.5500    3.3500    0.0000 C.3     1  LIG1        0.0001
     12 C          -1.6460    2.9750    0.0000 C.3     1  LIG1        0.0017
     13 C          -3.2210    2.5500    0.0000 C.3     1  LIG1        0.0000
     14 C           0.3750    2.0420    0.0000 C.ar    1  LIG1        0.0689
     15 C           1.3750    2.0500    0.0000 C.ar    1  LIG1        0.0184
     16 C           1.8670    2.9170    0.0000 C.ar    1  LIG1        0.0310
     17 C           1.3540    3.7750    0.0000 C.ar    1  LIG1        0.1402
     18 C           0.3540    3.7630    0.0000 C.ar    1  LIG1        0.0310
     19 C          -0.1330    2.9000    0.0000 C.ar    1  LIG1        0.0184
     20 F           1.8540    4.6420    0.0000 F       1  LIG1       -0.2042
     21 C           0.9540   -0.5250    0.0000 C.ar    1  LIG1        0.1255
     22 C           0.4790   -1.4040    0.0000 C.ar    1  LIG1        0.0215
     23 C           1.0130   -2.2540    0.0000 C.ar    1  LIG1        0.0163
     24 C           2.0170   -2.2170    0.0000 C.ar    1  LIG1        0.0539
     25 N           2.5540   -3.0670    0.0000 N.am    1  LIG1       -0.2586
     26 C           3.5540   -3.1380    0.0000 C.2     1  LIG1        0.2294
     27 O           4.1920   -2.3670    0.0000 O.2     1  LIG1       -0.2745
     28 C           3.7920   -4.1040    0.0000 C.3     1  LIG1        0.0874
     29 C           2.9420   -4.6420    0.0000 C.3     1  LIG1        0.0315
     30 C           2.1790   -4.0000    0.0000 C.3     1  LIG1        0.0987
     31 C           2.4790   -1.3290    0.0000 C.ar    1  LIG1        0.0163
     32 C           1.9540   -0.4920    0.0000 C.ar    1  LIG1        0.0215
     33 O          -0.4250   -0.2040    0.0000 O.2     1  LIG1       -0.1497
     34 O           1.2750    0.8540    0.0000 O.2     1  LIG1       -0.1497
@<TRIPOS>BOND
     1     1     2    1
     2     1    21    1
     3     1    33    2
     4     1    34    2
     5     2     3    1
     6     2    14    1
     7     3     4    1
     8     4     5    1
     9     4     9    1
    10     4    12    1
    11     5     6    1
    12     6     7    1
    13     6    13    1
    14     7     8    1
    15     8     9    1
    16     8    10    1
    17    10    11    1
    18    11    12    1
    19    11    13    1
    20    14    15   ar
    21    14    19   ar
    22    15    16   ar
    23    16    17   ar
    24    17    18   ar
    25    17    20    1
    26    18    19   ar
    27    21    22   ar
    28    21    32   ar
    29    22    23   ar
    30    23    24   ar
    31    24    25    1
    32    24    31   ar
    33    25    26   am
    34    25    30    1
    35    26    27    2
    36    26    28    1
    37    28    29    1
    38    29    30    1
    39    31    32   ar
