@<TRIPOS>MOLECULE
35322_ChemDiv_C036-0289
 31 33 0 0 0
SMALL
GASTEIGER
Energy = 0

@<TRIPOS>ATOM
      1 S           0.8080    2.8960    0.0000 S.O2    1  LIG1        0.0635
      2 N          -0.0130    2.5790    0.0000 N.3     1  LIG1       -0.1492
      3 C          -0.3000    1.6420    0.0000 C.3     1  LIG1        0.1582
      4 C          -1.2670    1.3080    0.0000 C.3     1  LIG1        0.1587
      5 N          -2.1170    1.8580    0.0000 N.4     1  LIG1        0.3856
      6 C          -2.9790    1.3710    0.0000 C.3     1  LIG1        0.2269
      7 C          -2.9790    0.4460    0.0000 C.2     1  LIG1        0.3033
      8 N          -3.7750   -0.0040    0.0000 N.am    1  LIG1       -0.1742
      9 C          -3.7750   -0.9290    0.0000 C.ar    1  LIG1        0.0736
     10 C          -2.9130   -1.3790    0.0000 C.ar    1  LIG1        0.0180
     11 C          -2.8670   -2.3210    0.0000 C.ar    1  LIG1        0.0213
     12 C          -3.6710   -2.8170    0.0000 C.ar    1  LIG1        0.1251
     13 S          -3.6250   -3.7540    0.0000 S.O2    1  LIG1        0.0935
     14 O          -2.9420   -4.8250    0.0000 O.2     1  LIG1       -0.1503
     15 O          -2.3540   -3.6790    0.0000 O.2     1  LIG1       -0.1503
     16 N          -4.6380   -4.3630    0.0000 N.3     1  LIG1        0.0392
     17 C          -4.5210   -2.3790    0.0000 C.ar    1  LIG1        0.0213
     18 C          -4.5630   -1.4420    0.0000 C.ar    1  LIG1        0.0180
     19 O          -2.1790    0.0000    0.0000 O.2     1  LIG1       -0.2665
     20 C          -2.1710    2.8330    0.0000 C.3     1  LIG1        0.1408
     21 C          -1.5290    3.3630    0.0000 C.3     1  LIG1        0.0818
     22 C          -0.5380    3.2580    0.0000 C.3     1  LIG1        0.1022
     23 C           1.7580    3.3330    0.0000 C.ar    1  LIG1        0.1223
     24 C           1.8580    4.3880    0.0000 C.ar    1  LIG1        0.0222
     25 C           2.8170    4.8250    0.0000 C.ar    1  LIG1        0.0310
     26 C           3.6750    4.2210    0.0000 C.ar    1  LIG1        0.1402
     27 C           3.5750    3.1670    0.0000 C.ar    1  LIG1        0.0310
     28 C           2.6210    2.7290    0.0000 C.ar    1  LIG1        0.0222
     29 F           4.6330    4.6580    0.0000 F       1  LIG1       -0.2042
     30 O           1.2290    1.9920    0.0000 O.2     1  LIG1       -0.1528
     31 O           0.4420    3.8170    0.0000 O.2     1  LIG1       -0.1528
@<TRIPOS>BOND
     1     1     2    1
     2     1    23    1
     3     1    30    2
     4     1    31    2
     5     2     3    1
     6     2    22    1
     7     3     4    1
     8     4     5    1
     9     5     6    1
    10     5    20    1
    11     6     7    1
    12     7     8   am
    13     7    19    2
    14     8     9    1
    15     9    10   ar
    16     9    18   ar
    17    10    11   ar
    18    11    12   ar
    19    12    13    1
    20    12    17   ar
    21    13    14    2
    22    13    15    2
    23    13    16    1
    24    17    18   ar
    25    20    21    1
    26    21    22    1
    27    23    24   ar
    28    23    28   ar
    29    24    25   ar
    30    25    26   ar
    31    26    27   ar
    32    26    29    1
    33    27    28   ar
