@<TRIPOS>MOLECULE
35324_ChemDiv_C036-0998
 29 31 0 0 0
SMALL
GASTEIGER
Energy = 0

@<TRIPOS>ATOM
      1 S           2.1750    0.8290    0.0000 S.O2    1  LIG1        0.0635
      2 N           1.1710    0.8290    0.0000 N.3     1  LIG1       -0.1492
      3 C           0.8130   -0.0960    0.0000 C.3     1  LIG1        0.1582
      4 C          -0.1500   -0.4000    0.0000 C.3     1  LIG1        0.1587
      5 N          -0.9790    0.1580    0.0000 N.4     1  LIG1        0.3856
      6 C          -1.8500   -0.3380    0.0000 C.3     1  LIG1        0.2269
      7 C          -1.8500   -1.3250    0.0000 C.2     1  LIG1        0.3033
      8 N          -2.7170   -1.8380    0.0000 N.am    1  LIG1       -0.1742
      9 C          -3.5880   -1.3380    0.0000 C.ar    1  LIG1        0.0735
     10 C          -4.4500   -1.8460    0.0000 C.ar    1  LIG1        0.0163
     11 C          -5.3080   -1.3420    0.0000 C.ar    1  LIG1       -0.0029
     12 C          -5.3130   -0.3380    0.0000 C.ar    1  LIG1       -0.0221
     13 C          -4.4670    0.1420    0.0000 C.ar    1  LIG1       -0.0029
     14 C          -3.5880   -0.3380    0.0000 C.ar    1  LIG1        0.0163
     15 C          -6.1920    0.1420    0.0000 C.3     1  LIG1        0.0264
     16 C          -6.1920    1.1460    0.0000 C.3     1  LIG1        0.0050
     17 O          -0.9790   -1.8290    0.0000 O.2     1  LIG1       -0.2665
     18 C          -1.0580    1.1630    0.0000 C.3     1  LIG1        0.1408
     19 C          -0.3210    1.8500    0.0000 C.3     1  LIG1        0.0818
     20 C           0.6750    1.6960    0.0000 C.3     1  LIG1        0.1022
     21 C           3.1830    0.8290    0.0000 C.ar    1  LIG1        0.1223
     22 C           3.6880   -0.0210    0.0000 C.ar    1  LIG1        0.0222
     23 C           4.6830   -0.0210    0.0000 C.ar    1  LIG1        0.0310
     24 C           5.1790    0.8290    0.0000 C.ar    1  LIG1        0.1402
     25 C           4.6750    1.6960    0.0000 C.ar    1  LIG1        0.0310
     26 C           3.6790    1.6960    0.0000 C.ar    1  LIG1        0.0222
     27 F           6.1920    0.8460    0.0000 F       1  LIG1       -0.2042
     28 O           2.1750    1.8330    0.0000 O.2     1  LIG1       -0.1528
     29 O           2.1790   -0.1710    0.0000 O.2     1  LIG1       -0.1528
@<TRIPOS>BOND
     1     1     2    1
     2     1    21    1
     3     1    28    2
     4     1    29    2
     5     2     3    1
     6     2    20    1
     7     3     4    1
     8     4     5    1
     9     5     6    1
    10     5    18    1
    11     6     7    1
    12     7     8   am
    13     7    17    2
    14     8     9    1
    15     9    10   ar
    16     9    14   ar
    17    10    11   ar
    18    11    12   ar
    19    12    13   ar
    20    12    15    1
    21    13    14   ar
    22    15    16    1
    23    18    19    1
    24    19    20    1
    25    21    22   ar
    26    21    26   ar
    27    22    23   ar
    28    23    24   ar
    29    24    25   ar
    30    24    27    1
    31    25    26   ar
