@<TRIPOS>MOLECULE
35327_ChemDiv_8226-0074
 24 28 0 0 0
SMALL
GASTEIGER
Energy = 0

@<TRIPOS>ATOM
      1 C           1.8830    0.2210    0.0000 C.ar    1  LIG1        0.1641
      2 N           1.0330    0.7580    0.0000 N.ar    1  LIG1       -0.1908
      3 N           0.2630    0.1130    0.0000 N.ar    1  LIG1       -0.1453
      4 C           0.6420   -0.8170    0.0000 C.ar    1  LIG1        0.1854
      5 N           1.6330   -0.7500    0.0000 N.ar    1  LIG1       -0.2083
      6 C           0.0210   -1.6000    0.0000 C.3     1  LIG1        0.1977
      7 N          -0.9790   -1.4500    0.0000 N.ar    1  LIG1       -0.2087
      8 C          -1.3460   -0.5210    0.0000 C.ar    1  LIG1        0.2767
      9 C          -2.3420   -0.3710    0.0000 C.ar    1  LIG1        0.0591
     10 C          -2.9630   -1.1500    0.0000 C.ar    1  LIG1        0.0255
     11 C          -2.5960   -2.0710    0.0000 C.ar    1  LIG1        0.1203
     12 N          -1.6040   -2.2210    0.0000 N.ar    1  LIG1       -0.1648
     13 C          -3.9460   -0.9960    0.0000 C.ar    1  LIG1        0.0018
     14 C          -4.3210   -0.0670    0.0000 C.ar    1  LIG1        0.0001
     15 C          -3.6880    0.7130    0.0000 C.ar    1  LIG1        0.0002
     16 C          -2.7040    0.5630    0.0000 C.ar    1  LIG1        0.0048
     17 O          -0.7210    0.2580    0.0000 O.2     1  LIG1       -0.2655
     18 C           1.0790    1.7580    0.0000 C.ar    1  LIG1        0.2012
     19 N           1.9580    2.2250    0.0000 N.ar    1  LIG1       -0.2285
     20 C           2.8040    1.6880    0.0000 C.ar    1  LIG1        0.0597
     21 C           2.7710    0.6880    0.0000 C.ar    1  LIG1        0.0273
     22 C           3.7080    0.3500    0.0000 C.3     1  LIG1        0.0311
     23 C           4.3170    1.1380    0.0000 C.3     1  LIG1        0.0111
     24 C           3.7670    1.9580    0.0000 C.3     1  LIG1        0.0460
@<TRIPOS>BOND
     1     1     2   ar
     2     1     5   ar
     3     1    21   ar
     4     2     3   ar
     5     2    18   ar
     6     3     4   ar
     7     4     5   ar
     8     4     6    1
     9     6     7    1
    10     7     8   ar
    11     7    12   ar
    12     8     9   ar
    13     8    17    2
    14     9    10   ar
    15     9    16   ar
    16    10    11   ar
    17    10    13   ar
    18    11    12   ar
    19    13    14   ar
    20    14    15   ar
    21    15    16   ar
    22    18    19   ar
    23    19    20   ar
    24    20    21   ar
    25    20    24    1
    26    21    22    1
    27    22    23    1
    28    23    24    1
