@<TRIPOS>MOLECULE
35325_ChemDiv_8018-0764
 25 28 0 0 0
SMALL
GASTEIGER
Energy = 0

@<TRIPOS>ATOM
      1 C           1.6670    0.9790    0.0000 C.ar    1  LIG1        0.1343
      2 N           2.6670    0.9790    0.0000 N.ar    1  LIG1       -0.2446
      3 N           2.9750    1.9380    0.0000 N.ar    1  LIG1       -0.1735
      4 C           2.1670    2.5250    0.0000 C.ar    1  LIG1        0.0802
      5 C           1.3540    1.9380    0.0000 C.ar    1  LIG1        0.0398
      6 C           2.1630    3.5250    0.0000 C.3     1  LIG1        0.0476
      7 C           3.0290    4.0170    0.0000 C.3     1  LIG1        0.0064
      8 C           3.0250    5.0170    0.0000 C.3     1  LIG1        0.0004
      9 C           3.2540    0.1710    0.0000 C.3     1  LIG1        0.1539
     10 C           1.0750    0.1710    0.0000 C.2     1  LIG1        0.2864
     11 N           0.0790    0.2790    0.0000 N.am    1  LIG1       -0.1741
     12 C          -0.5080   -0.5290    0.0000 C.ar    1  LIG1        0.0768
     13 C          -0.1080   -1.4630    0.0000 C.ar    1  LIG1        0.0541
     14 C          -0.7000   -2.2670    0.0000 C.ar    1  LIG1        0.1466
     15 O          -0.4960   -3.2420    0.0000 O.2     1  LIG1       -0.4535
     16 C          -1.3630   -3.7380    0.0000 C.ar    1  LIG1        0.1453
     17 C          -2.1000   -3.0670    0.0000 C.ar    1  LIG1        0.0375
     18 C          -1.6960   -2.1540    0.0000 C.ar    1  LIG1        0.0376
     19 C          -2.0960   -1.2380    0.0000 C.ar    1  LIG1        0.0045
     20 C          -1.5080   -0.4290    0.0000 C.ar    1  LIG1        0.0168
     21 C          -3.0460   -3.3790    0.0000 C.ar    1  LIG1        0.0031
     22 C          -3.2580   -4.3420    0.0000 C.ar    1  LIG1        0.0002
     23 C          -2.5250   -5.0170    0.0000 C.ar    1  LIG1        0.0031
     24 C          -1.5750   -4.7130    0.0000 C.ar    1  LIG1        0.0375
     25 O           1.4790   -0.7420    0.0000 O.2     1  LIG1       -0.2664
@<TRIPOS>BOND
     1     1     2   ar
     2     1     5   ar
     3     1    10    1
     4     2     3   ar
     5     2     9    1
     6     3     4   ar
     7     4     5   ar
     8     4     6    1
     9     6     7    1
    10     7     8    1
    11    10    11   am
    12    10    25    2
    13    11    12    1
    14    12    13   ar
    15    12    20   ar
    16    13    14   ar
    17    14    15   ar
    18    14    18   ar
    19    15    16   ar
    20    16    17   ar
    21    16    24   ar
    22    17    18   ar
    23    17    21   ar
    24    18    19   ar
    25    19    20   ar
    26    21    22   ar
    27    22    23   ar
    28    23    24   ar
