@<TRIPOS>MOLECULE
35328_ChemDiv_C036-0171
 38 42 0 0 0
SMALL
GASTEIGER
Energy = 0

@<TRIPOS>ATOM
      1 S           0.8040    4.5290    0.0000 S.O2    1  LIG1        0.0635
      2 N          -0.1170    4.2540    0.0000 N.3     1  LIG1       -0.1492
      3 C          -0.3960    3.3460    0.0000 C.3     1  LIG1        0.1582
      4 C          -1.3580    3.0130    0.0000 C.3     1  LIG1        0.1587
      5 N          -2.2040    3.5540    0.0000 N.4     1  LIG1        0.3856
      6 C          -3.0670    3.0580    0.0000 C.3     1  LIG1        0.2269
      7 C          -3.0670    2.1630    0.0000 C.2     1  LIG1        0.3033
      8 N          -3.8380    1.7130    0.0000 N.am    1  LIG1       -0.1742
      9 C          -3.8250    0.8080    0.0000 C.ar    1  LIG1        0.0736
     10 C          -4.6540    0.2750    0.0000 C.ar    1  LIG1        0.0167
     11 C          -4.6290   -0.6630    0.0000 C.ar    1  LIG1        0.0033
     12 C          -3.7790   -1.1330    0.0000 C.ar    1  LIG1        0.0239
     13 C          -3.7330   -1.9960    0.0000 C.ar    1  LIG1        0.1107
     14 N          -4.6250   -2.5080    0.0000 N.ar    1  LIG1       -0.2383
     15 C          -4.5540   -3.5080    0.0000 C.ar    1  LIG1        0.0878
     16 C          -3.6880   -3.9880    0.0000 C.ar    1  LIG1        0.0482
     17 S          -2.8580   -2.4630    0.0000 S.2     1  LIG1       -0.0665
     18 C          -3.6630   -5.0330    0.0000 C.ar    1  LIG1        0.0038
     19 C          -4.5330   -5.5380    0.0000 C.ar    1  LIG1       -0.0213
     20 C          -5.3960   -5.0670    0.0000 C.ar    1  LIG1       -0.0027
     21 C          -5.4580   -4.0540    0.0000 C.ar    1  LIG1        0.0193
     22 C          -4.4790   -6.4540    0.0000 C.3     1  LIG1        0.0310
     23 C          -2.9580   -0.6500    0.0000 C.ar    1  LIG1        0.0033
     24 C          -2.9670    0.3420    0.0000 C.ar    1  LIG1        0.0167
     25 O          -2.2790    1.7130    0.0000 O.2     1  LIG1       -0.2665
     26 C          -2.2540    4.5130    0.0000 C.3     1  LIG1        0.1408
     27 C          -1.6170    5.0330    0.0000 C.3     1  LIG1        0.0818
     28 C          -0.6460    4.9250    0.0000 C.3     1  LIG1        0.1022
     29 C           1.7540    4.9710    0.0000 C.ar    1  LIG1        0.1224
     30 C           2.6080    4.3670    0.0000 C.ar    1  LIG1        0.0230
     31 C           3.5460    4.8040    0.0000 C.ar    1  LIG1        0.0383
     32 C           3.6460    5.8460    0.0000 C.ar    1  LIG1        0.1388
     33 C           2.8040    6.4540    0.0000 C.ar    1  LIG1        0.0383
     34 C           1.8500    6.0290    0.0000 C.ar    1  LIG1        0.0230
     35 O           4.6000    6.2880    0.0000 O.3     1  LIG1       -0.4714
     36 C           5.4540    5.6830    0.0000 C.3     1  LIG1        0.2525
     37 O           0.4380    5.4540    0.0000 O.2     1  LIG1       -0.1528
     38 O           1.2170    3.6420    0.0000 O.2     1  LIG1       -0.1528
@<TRIPOS>BOND
     1     1     2    1
     2     1    29    1
     3     1    37    2
     4     1    38    2
     5     2     3    1
     6     2    28    1
     7     3     4    1
     8     4     5    1
     9     5     6    1
    10     5    26    1
    11     6     7    1
    12     7     8   am
    13     7    25    2
    14     8     9    1
    15     9    10   ar
    16     9    24   ar
    17    10    11   ar
    18    11    12   ar
    19    12    13    1
    20    12    23   ar
    21    13    14   ar
    22    13    17   ar
    23    14    15   ar
    24    15    16   ar
    25    15    21   ar
    26    16    17   ar
    27    16    18   ar
    28    18    19   ar
    29    19    20   ar
    30    19    22    1
    31    20    21   ar
    32    23    24   ar
    33    26    27    1
    34    27    28    1
    35    29    30   ar
    36    29    34   ar
    37    30    31   ar
    38    31    32   ar
    39    32    33   ar
    40    32    35    1
    41    33    34   ar
    42    35    36    1
