@<TRIPOS>MOLECULE
35332_ChemDiv_C138-0821
 32 34 0 0 0
SMALL
GASTEIGER
Energy = 0

@<TRIPOS>ATOM
      1 C           1.2790    0.9920    0.0000 C.ar    1  LIG1        0.0743
      2 C           2.1500    1.4960    0.0000 C.ar    1  LIG1        0.0087
      3 C           2.1500    2.5130    0.0000 C.ar    1  LIG1        0.0335
      4 C           1.2880    3.0080    0.0000 C.ar    1  LIG1        0.1517
      5 N           0.4080    2.5040    0.0000 N.ar    1  LIG1       -0.2272
      6 C           0.4080    1.4960    0.0000 C.ar    1  LIG1        0.1049
      7 N           1.2960    4.0040    0.0000 N.pl3   1  LIG1       -0.1911
      8 C           2.1670    4.4960    0.0000 C.ar    1  LIG1        0.1059
      9 C           2.1670    5.4880    0.0000 C.ar    1  LIG1        0.1538
     10 O           1.3130    6.0000    0.0000 O.3     1  LIG1       -0.4701
     11 C           0.4380    5.4880    0.0000 C.3     1  LIG1        0.2525
     12 C           3.0250    5.9880    0.0000 C.ar    1  LIG1        0.0383
     13 C           3.8960    5.4710    0.0000 C.ar    1  LIG1        0.0032
     14 C           3.8880    4.4750    0.0000 C.ar    1  LIG1        0.0015
     15 C           3.0170    3.9880    0.0000 C.ar    1  LIG1        0.0196
     16 C           3.0080    3.0080    0.0000 C.ar    1  LIG1        0.0028
     17 C           3.8710    2.5040    0.0000 C.ar    1  LIG1        0.0001
     18 C           3.8710    1.4960    0.0000 C.ar    1  LIG1        0.0000
     19 C           3.0080    0.9960    0.0000 C.ar    1  LIG1        0.0003
     20 C           1.2790    0.0000    0.0000 C.2     1  LIG1        0.2663
     21 O           2.1500   -0.5000    0.0000 O.2     1  LIG1       -0.2683
     22 N           0.4080   -0.5000    0.0000 N.am    1  LIG1       -0.2014
     23 C           0.4080   -1.4960    0.0000 C.3     1  LIG1        0.1216
     24 C          -0.4540   -2.0000    0.0000 C.3     1  LIG1        0.0861
     25 C          -0.4540   -3.0040    0.0000 C.3     1  LIG1        0.1404
     26 N          -1.3130   -3.5080    0.0000 N.4     1  LIG1        0.3773
     27 C          -2.1750   -3.0080    0.0000 C.3     1  LIG1        0.1385
     28 C          -3.0380   -3.5080    0.0000 C.3     1  LIG1        0.0627
     29 C          -3.9000   -3.0250    0.0000 C.3     1  LIG1        0.0063
     30 C          -1.3130   -4.5000    0.0000 C.3     1  LIG1        0.1385
     31 C          -0.4460   -5.0040    0.0000 C.3     1  LIG1        0.0627
     32 C          -0.4460   -6.0000    0.0000 C.3     1  LIG1        0.0063
@<TRIPOS>BOND
     1     1     2   ar
     2     1     6   ar
     3     1    20    1
     4     2     3   ar
     5     2    19   ar
     6     3     4   ar
     7     3    16   ar
     8     4     5   ar
     9     4     7    1
    10     5     6   ar
    11     7     8    1
    12     8     9   ar
    13     8    15   ar
    14     9    10    1
    15     9    12   ar
    16    10    11    1
    17    12    13   ar
    18    13    14   ar
    19    14    15   ar
    20    16    17   ar
    21    17    18   ar
    22    18    19   ar
    23    20    21    2
    24    20    22   am
    25    22    23    1
    26    23    24    1
    27    24    25    1
    28    25    26    1
    29    26    27    1
    30    26    30    1
    31    27    28    1
    32    28    29    1
    33    30    31    1
    34    31    32    1
