@<TRIPOS>MOLECULE
35336_ChemDiv_C066-1038
 24 27 0 0 0
SMALL
GASTEIGER
Energy = 0

@<TRIPOS>ATOM
      1 N          -1.6330    0.0080    0.0000 N.ar    1  LIG1       -0.2852
      2 C          -2.4960    0.5080    0.0000 C.ar    1  LIG1        0.2612
      3 C          -3.3670    0.0080    0.0000 C.ar    1  LIG1        0.0562
      4 C          -3.3670   -0.9960    0.0000 C.ar    1  LIG1        0.0061
      5 C          -2.4960   -1.5000    0.0000 C.ar    1  LIG1        0.0189
      6 C          -1.6330   -0.9960    0.0000 C.ar    1  LIG1        0.0788
      7 C          -4.2290   -1.5000    0.0000 C.ar    1  LIG1        0.0002
      8 C          -5.1040   -0.9960    0.0000 C.ar    1  LIG1        0.0000
      9 C          -5.1040    0.0080    0.0000 C.ar    1  LIG1        0.0002
     10 C          -4.2290    0.5080    0.0000 C.ar    1  LIG1        0.0047
     11 O          -2.4960    1.5040    0.0000 O.2     1  LIG1       -0.2670
     12 C          -0.7540    0.5130    0.0000 C.3     1  LIG1        0.1962
     13 C           0.1210    0.0130    0.0000 C.2     1  LIG1        0.2687
     14 N           0.9830    0.5130    0.0000 N.am    1  LIG1       -0.1775
     15 C           1.8460    0.0130    0.0000 C.ar    1  LIG1        0.0767
     16 C           2.7040    0.5130    0.0000 C.ar    1  LIG1        0.0568
     17 C           3.5580    0.0250    0.0000 C.ar    1  LIG1        0.1777
     18 C           3.5630   -0.9830    0.0000 C.ar    1  LIG1        0.1765
     19 O           4.5130   -1.2830    0.0000 O.3     1  LIG1       -0.4346
     20 C           5.1000   -0.4750    0.0000 C.3     1  LIG1        0.4294
     21 O           4.5130    0.3330    0.0000 O.3     1  LIG1       -0.4346
     22 C           2.7000   -1.4710    0.0000 C.ar    1  LIG1        0.0415
     23 C           1.8380   -0.9750    0.0000 C.ar    1  LIG1        0.0199
     24 O           0.1210   -0.9880    0.0000 O.2     1  LIG1       -0.2709
@<TRIPOS>BOND
     1     1     2   ar
     2     1     6   ar
     3     1    12    1
     4     2     3   ar
     5     2    11    2
     6     3     4   ar
     7     3    10   ar
     8     4     5   ar
     9     4     7   ar
    10     5     6   ar
    11     7     8   ar
    12     8     9   ar
    13     9    10   ar
    14    12    13    1
    15    13    14   am
    16    13    24    2
    17    14    15    1
    18    15    16   ar
    19    15    23   ar
    20    16    17   ar
    21    17    18   ar
    22    17    21    1
    23    18    19    1
    24    18    22   ar
    25    19    20    1
    26    20    21    1
    27    22    23   ar
