@<TRIPOS>MOLECULE
35339_ChemDiv_8017-6838
 22 25 0 0 0
SMALL
GASTEIGER
Energy = 0

@<TRIPOS>ATOM
      1 C          -2.4330    1.3960    0.0000 C.ar    1  LIG1        0.3646
      2 N          -3.2960    0.9080    0.0000 N.ar    1  LIG1       -0.2409
      3 C          -3.0960   -0.0670    0.0000 C.ar    1  LIG1        0.1597
      4 C          -2.1080   -0.1750    0.0000 C.ar    1  LIG1        0.3231
      5 N          -1.7000    0.7330    0.0000 N.ar    1  LIG1        0.0948
      6 C          -1.6210   -1.0380    0.0000 C.3     1  LIG1        0.2483
      7 O          -0.6080   -1.0380    0.0000 O.3     1  LIG1       -0.3360
      8 C          -0.1080   -1.9040    0.0000 C.3     1  LIG1        0.1948
      9 C           0.8960   -1.9040    0.0000 C.ar    1  LIG1        0.1182
     10 N           1.4830   -2.7170    0.0000 N.ar    1  LIG1       -0.2402
     11 C           2.4330   -2.4040    0.0000 C.ar    1  LIG1        0.0876
     12 C           2.4330   -1.4040    0.0000 C.ar    1  LIG1        0.0483
     13 S           1.4830   -1.0920    0.0000 S.2     1  LIG1       -0.0684
     14 C           3.2960   -0.9040    0.0000 C.ar    1  LIG1        0.0080
     15 C           4.1670   -1.4000    0.0000 C.ar    1  LIG1        0.0006
     16 C           4.1670   -2.4040    0.0000 C.ar    1  LIG1        0.0016
     17 C           3.2960   -2.9040    0.0000 C.ar    1  LIG1        0.0196
     18 C          -4.1710    1.3960    0.0000 C.ar    1  LIG1        0.0859
     19 C          -4.1710    2.4000    0.0000 C.ar    1  LIG1        0.0191
     20 C          -3.3000    2.9080    0.0000 C.ar    1  LIG1        0.0050
     21 C          -2.4330    2.4000    0.0000 C.ar    1  LIG1        0.0670
     22 C          -1.5750    2.9080    0.0000 C.3     1  LIG1        0.0393
@<TRIPOS>BOND
     1     1     2   ar
     2     1     5   ar
     3     1    21   ar
     4     2     3   ar
     5     2    18   ar
     6     3     4   ar
     7     4     5   ar
     8     4     6    1
     9     6     7    1
    10     7     8    1
    11     8     9    1
    12     9    10   ar
    13     9    13   ar
    14    10    11   ar
    15    11    12   ar
    16    11    17   ar
    17    12    13   ar
    18    12    14   ar
    19    14    15   ar
    20    15    16   ar
    21    16    17   ar
    22    18    19   ar
    23    19    20   ar
    24    20    21   ar
    25    21    22    1
