@<TRIPOS>MOLECULE
35334_ChemDiv_K788-5873
 30 32 0 0 0
SMALL
GASTEIGER
Energy = 0

@<TRIPOS>ATOM
      1 C          -1.3000    2.4790    0.0000 C.ar    1  LIG1        0.0593
      2 C          -1.3040    3.4790    0.0000 C.2     1  LIG1        0.2651
      3 O          -2.1790    3.9830    0.0000 O.2     1  LIG1       -0.2684
      4 N          -0.4380    3.9880    0.0000 N.am    1  LIG1       -0.1953
      5 C           0.4330    3.4960    0.0000 C.3     1  LIG1        0.1778
      6 C           1.2960    4.0000    0.0000 C.3     1  LIG1        0.1627
      7 N           2.1580    3.5130    0.0000 N.4     1  LIG1        0.3834
      8 C           2.1580    2.5080    0.0000 C.3     1  LIG1        0.1389
      9 C           3.0250    2.0130    0.0000 C.3     1  LIG1        0.0627
     10 C           3.0250    1.0210    0.0000 C.3     1  LIG1        0.0061
     11 C           3.8920    0.5170    0.0000 C.3     1  LIG1        0.0002
     12 C           3.0170    4.0080    0.0000 C.3     1  LIG1        0.2023
     13 C          -2.1630    1.9750    0.0000 C.ar    1  LIG1        0.0222
     14 C          -2.1630    0.9750    0.0000 C.ar    1  LIG1        0.0829
     15 N          -1.2880    0.4710    0.0000 N.ar    1  LIG1       -0.2289
     16 C          -0.4210    0.9750    0.0000 C.ar    1  LIG1        0.1518
     17 C          -0.4330    1.9830    0.0000 C.ar    1  LIG1        0.0407
     18 N           0.4420    0.4710    0.0000 N.pl3   1  LIG1       -0.1941
     19 C           0.4420   -0.5250    0.0000 C.ar    1  LIG1        0.0723
     20 C           1.3000   -1.0170    0.0000 C.ar    1  LIG1        0.0197
     21 C           1.3000   -2.0130    0.0000 C.ar    1  LIG1        0.0382
     22 C           0.4330   -2.5130    0.0000 C.ar    1  LIG1        0.1388
     23 C          -0.4330   -2.0130    0.0000 C.ar    1  LIG1        0.0382
     24 C          -0.4330   -1.0170    0.0000 C.ar    1  LIG1        0.0197
     25 O           0.4330   -3.5080    0.0000 O.3     1  LIG1       -0.4714
     26 C           1.3000   -4.0080    0.0000 C.3     1  LIG1        0.2525
     27 C          -3.0290    0.4630    0.0000 C.ar    1  LIG1        0.0191
     28 C          -3.8960    0.9630    0.0000 C.ar    1  LIG1        0.0015
     29 C          -3.8960    1.9670    0.0000 C.ar    1  LIG1        0.0001
     30 C          -3.0290    2.4790    0.0000 C.ar    1  LIG1        0.0016
@<TRIPOS>BOND
     1     1     2    1
     2     1    13   ar
     3     1    17   ar
     4     2     3    2
     5     2     4   am
     6     4     5    1
     7     5     6    1
     8     6     7    1
     9     7     8    1
    10     7    12    1
    11     8     9    1
    12     9    10    1
    13    10    11    1
    14    13    14   ar
    15    13    30   ar
    16    14    15   ar
    17    14    27   ar
    18    15    16   ar
    19    16    17   ar
    20    16    18    1
    21    18    19    1
    22    19    20   ar
    23    19    24   ar
    24    20    21   ar
    25    21    22   ar
    26    22    23   ar
    27    22    25    1
    28    23    24   ar
    29    25    26    1
    30    27    28   ar
    31    28    29   ar
    32    29    30   ar
