@<TRIPOS>MOLECULE
35330_ChemDiv_C138-0817
 31 33 0 0 0
SMALL
GASTEIGER
Energy = 0

@<TRIPOS>ATOM
      1 C          -1.2960    0.2500    0.0000 C.ar    1  LIG1        0.0743
      2 C          -0.4290    0.7540    0.0000 C.ar    1  LIG1        0.0087
      3 C          -0.4290    1.7670    0.0000 C.ar    1  LIG1        0.0335
      4 C          -1.2920    2.2630    0.0000 C.ar    1  LIG1        0.1517
      5 N          -2.1670    1.7630    0.0000 N.ar    1  LIG1       -0.2272
      6 C          -2.1670    0.7540    0.0000 C.ar    1  LIG1        0.1049
      7 N          -1.2790    3.2630    0.0000 N.pl3   1  LIG1       -0.1911
      8 C          -0.4130    3.7540    0.0000 C.ar    1  LIG1        0.1059
      9 C          -0.4130    4.7380    0.0000 C.ar    1  LIG1        0.1538
     10 O          -1.2670    5.2500    0.0000 O.3     1  LIG1       -0.4701
     11 C          -2.1380    4.7380    0.0000 C.3     1  LIG1        0.2525
     12 C           0.4420    5.2380    0.0000 C.ar    1  LIG1        0.0383
     13 C           1.3170    4.7210    0.0000 C.ar    1  LIG1        0.0032
     14 C           1.3040    3.7290    0.0000 C.ar    1  LIG1        0.0015
     15 C           0.4380    3.2420    0.0000 C.ar    1  LIG1        0.0196
     16 C           0.4290    2.2630    0.0000 C.ar    1  LIG1        0.0028
     17 C           1.2920    1.7630    0.0000 C.ar    1  LIG1        0.0001
     18 C           1.2920    0.7540    0.0000 C.ar    1  LIG1        0.0000
     19 C           0.4290    0.2540    0.0000 C.ar    1  LIG1        0.0003
     20 C          -1.2960   -0.7380    0.0000 C.2     1  LIG1        0.2665
     21 O          -0.4290   -1.2380    0.0000 O.2     1  LIG1       -0.2683
     22 N          -2.1670   -1.2380    0.0000 N.am    1  LIG1       -0.1952
     23 C          -2.1670   -2.2460    0.0000 C.3     1  LIG1        0.1778
     24 C          -1.2920   -2.7540    0.0000 C.3     1  LIG1        0.1624
     25 N          -1.2920   -3.7540    0.0000 N.4     1  LIG1        0.3786
     26 C          -2.1670   -4.2500    0.0000 C.3     1  LIG1        0.1388
     27 C          -2.1670   -5.2500    0.0000 C.3     1  LIG1        0.0688
     28 C          -0.4330   -4.2500    0.0000 C.3     1  LIG1        0.1386
     29 C           0.4130   -3.7540    0.0000 C.3     1  LIG1        0.0627
     30 C           1.2920   -4.2500    0.0000 C.3     1  LIG1        0.0061
     31 C           2.1630   -3.7540    0.0000 C.3     1  LIG1        0.0002
@<TRIPOS>BOND
     1     1     2   ar
     2     1     6   ar
     3     1    20    1
     4     2     3   ar
     5     2    19   ar
     6     3     4   ar
     7     3    16   ar
     8     4     5   ar
     9     4     7    1
    10     5     6   ar
    11     7     8    1
    12     8     9   ar
    13     8    15   ar
    14     9    10    1
    15     9    12   ar
    16    10    11    1
    17    12    13   ar
    18    13    14   ar
    19    14    15   ar
    20    16    17   ar
    21    17    18   ar
    22    18    19   ar
    23    20    21    2
    24    20    22   am
    25    22    23    1
    26    23    24    1
    27    24    25    1
    28    25    26    1
    29    25    28    1
    30    26    27    1
    31    28    29    1
    32    29    30    1
    33    30    31    1
