@<TRIPOS>MOLECULE
35337_ChemDiv_8017-6532
 26 29 0 0 0
SMALL
GASTEIGER
Energy = 0

@<TRIPOS>ATOM
      1 N          -0.0710    0.0080    0.0000 N.am    1  LIG1       -0.1868
      2 C           0.9330    0.0080    0.0000 C.ar    1  LIG1        0.1747
      3 N           1.5210    0.8130    0.0000 N.ar    1  LIG1       -0.2233
      4 C           2.4710    0.5040    0.0000 C.ar    1  LIG1        0.0923
      5 C           2.4710   -0.4960    0.0000 C.ar    1  LIG1        0.0499
      6 S           1.5210   -0.8080    0.0000 S.2     1  LIG1       -0.0508
      7 C           3.3420   -0.9960    0.0000 C.ar    1  LIG1        0.0112
      8 C           4.2080   -0.4960    0.0000 C.ar    1  LIG1        0.0375
      9 C           4.2040    0.5040    0.0000 C.ar    1  LIG1        0.1403
     10 C           3.3330    1.0080    0.0000 C.ar    1  LIG1        0.0565
     11 O           5.0710    1.0080    0.0000 O.3     1  LIG1       -0.4714
     12 C           5.9330    0.5040    0.0000 C.3     1  LIG1        0.2525
     13 C          -0.6580   -0.8080    0.0000 C.2     1  LIG1        0.2371
     14 C          -1.6080   -0.4960    0.0000 C.3     1  LIG1        0.0955
     15 C          -1.6080    0.5040    0.0000 C.3     1  LIG1        0.0909
     16 C          -0.6580    0.8130    0.0000 C.2     1  LIG1        0.2369
     17 O          -0.1540    1.6830    0.0000 O.2     1  LIG1       -0.2741
     18 C          -2.4750    1.0080    0.0000 C.3     1  LIG1        0.0359
     19 C          -3.3460    0.5000    0.0000 C.ar    1  LIG1       -0.0220
     20 C          -4.2080    0.9960    0.0000 C.ar    1  LIG1       -0.0085
     21 C          -5.0710    0.5000    0.0000 C.ar    1  LIG1       -0.0222
     22 C          -5.0710   -0.5040    0.0000 C.ar    1  LIG1       -0.0043
     23 C          -4.2080   -1.0040    0.0000 C.ar    1  LIG1       -0.0006
     24 C          -3.3460   -0.4960    0.0000 C.ar    1  LIG1       -0.0043
     25 C          -5.9380    0.9960    0.0000 C.3     1  LIG1        0.0310
     26 O          -0.1540   -1.6790    0.0000 O.2     1  LIG1       -0.2741
@<TRIPOS>BOND
     1     1     2    1
     2     1    13   am
     3     1    16   am
     4     2     3   ar
     5     2     6   ar
     6     3     4   ar
     7     4     5   ar
     8     4    10   ar
     9     5     6   ar
    10     5     7   ar
    11     7     8   ar
    12     8     9   ar
    13     9    10   ar
    14     9    11    1
    15    11    12    1
    16    13    14    1
    17    13    26    2
    18    14    15    1
    19    15    16    1
    20    15    18    1
    21    16    17    2
    22    18    19    1
    23    19    20   ar
    24    19    24   ar
    25    20    21   ar
    26    21    22   ar
    27    21    25    1
    28    22    23   ar
    29    23    24   ar
