@<TRIPOS>MOLECULE
35335_ChemDiv_8017-6438
 23 26 0 0 0
SMALL
GASTEIGER
Energy = 0

@<TRIPOS>ATOM
      1 N          -0.0420    0.4830    0.0000 N.ar    1  LIG1       -0.3122
      2 C          -0.3540   -0.4670    0.0000 C.ar    1  LIG1        0.0427
      3 C          -1.3580   -0.4670    0.0000 C.ar    1  LIG1        0.0296
      4 C          -1.6580    0.4830    0.0000 C.ar    1  LIG1        0.0296
      5 C          -0.8580    1.0750    0.0000 C.ar    1  LIG1        0.0427
      6 C          -0.8670    2.0790    0.0000 C.3     1  LIG1        0.0504
      7 C          -2.6330    0.6960    0.0000 C.ar    1  LIG1        0.0820
      8 N          -3.3130   -0.0460    0.0000 N.ar    1  LIG1       -0.1526
      9 N          -3.0040   -0.9920    0.0000 N.ar    1  LIG1       -0.1526
     10 C          -2.0210   -1.2130    0.0000 C.ar    1  LIG1        0.0820
     11 C          -1.5290   -2.0750    0.0000 C.3     1  LIG1        0.0540
     12 C          -2.9000    1.6710    0.0000 C.3     1  LIG1        0.0540
     13 C           0.1380   -1.3330    0.0000 C.3     1  LIG1        0.0504
     14 C           0.9290    0.7460    0.0000 C.ar    1  LIG1        0.0811
     15 C           1.6420    0.0500    0.0000 C.ar    1  LIG1        0.0973
     16 N           1.3920   -0.9130    0.0000 N.ar    1  LIG1       -0.2424
     17 C           2.1040   -1.6130    0.0000 C.ar    1  LIG1        0.0989
     18 C           3.0670   -1.3420    0.0000 C.ar    1  LIG1        0.0207
     19 C           3.3080   -0.3790    0.0000 C.ar    1  LIG1        0.0031
     20 C           2.6000    0.3130    0.0000 C.ar    1  LIG1        0.0191
     21 C           2.8500    1.2790    0.0000 C.ar    1  LIG1        0.0016
     22 C           2.1330    1.9880    0.0000 C.ar    1  LIG1        0.0016
     23 C           1.1710    1.7210    0.0000 C.ar    1  LIG1        0.0190
@<TRIPOS>BOND
     1     1     2   ar
     2     1     5   ar
     3     1    14    1
     4     2     3   ar
     5     2    13    1
     6     3     4   ar
     7     3    10   ar
     8     4     5   ar
     9     4     7   ar
    10     5     6    1
    11     7     8   ar
    12     7    12    1
    13     8     9   ar
    14     9    10   ar
    15    10    11    1
    16    14    15   ar
    17    14    23   ar
    18    15    16   ar
    19    15    20   ar
    20    16    17   ar
    21    17    18   ar
    22    18    19   ar
    23    19    20   ar
    24    20    21   ar
    25    21    22   ar
    26    22    23   ar
