@<TRIPOS>MOLECULE
35349_ChemDiv_A0061502
 37 40 0 0 0
SMALL
GASTEIGER
Energy = 0

@<TRIPOS>ATOM
      1 N           3.0750   -1.2250    0.0000 N.ar    1  LIG1       -0.2505
      2 C           2.2040   -1.7330    0.0000 C.ar    1  LIG1        0.1879
      3 N           1.3330   -1.2250    0.0000 N.ar    1  LIG1       -0.2214
      4 C           1.3210   -0.2170    0.0000 C.ar    1  LIG1        0.0882
      5 C           2.1920    0.2920    0.0000 C.ar    1  LIG1        0.0742
      6 C           3.0750   -0.2170    0.0000 C.ar    1  LIG1        0.2677
      7 O           3.9580    0.2920    0.0000 O.2     1  LIG1       -0.2665
      8 C           2.1790    1.3000    0.0000 C.ar    1  LIG1        0.0064
      9 C           1.3080    1.8040    0.0000 C.ar    1  LIG1        0.0048
     10 C           0.4380    1.3000    0.0000 C.ar    1  LIG1        0.0569
     11 C          -0.4330    1.8210    0.0000 C.2     1  LIG1        0.2690
     12 N          -1.2960    1.3130    0.0000 N.am    1  LIG1       -0.1752
     13 C          -2.1750    1.8210    0.0000 C.ar    1  LIG1        0.0799
     14 C          -3.0460    1.2960    0.0000 C.ar    1  LIG1        0.0568
     15 C          -3.9170    1.8040    0.0000 C.ar    1  LIG1        0.1767
     16 C          -3.9460    2.7960    0.0000 C.ar    1  LIG1        0.2061
     17 C          -3.0750    3.3210    0.0000 C.ar    1  LIG1        0.1767
     18 C          -2.1960    2.8420    0.0000 C.ar    1  LIG1        0.0568
     19 O          -3.0920    4.3380    0.0000 O.3     1  LIG1       -0.4682
     20 C          -2.4330    4.7630    0.0000 C.3     1  LIG1        0.2526
     21 O          -4.8250    3.2920    0.0000 O.3     1  LIG1       -0.4654
     22 C          -5.6960    2.7670    0.0000 C.3     1  LIG1        0.2528
     23 O          -4.8040    1.2880    0.0000 O.3     1  LIG1       -0.4682
     24 C          -5.6750    1.7790    0.0000 C.3     1  LIG1        0.2526
     25 O          -0.4250    2.8420    0.0000 O.2     1  LIG1       -0.2680
     26 C           0.4380    0.2920    0.0000 C.ar    1  LIG1        0.0239
     27 S           2.2040   -2.7420    0.0000 S.2     1  LIG1       -0.0105
     28 C           3.9330   -1.7330    0.0000 C.ar    1  LIG1        0.1055
     29 C           3.9330   -2.7420    0.0000 C.ar    1  LIG1        0.0576
     30 C           4.8040   -3.2500    0.0000 C.ar    1  LIG1        0.1404
     31 C           5.6750   -2.7420    0.0000 C.ar    1  LIG1        0.0401
     32 C           5.6920   -1.7330    0.0000 C.ar    1  LIG1        0.0415
     33 C           4.8210   -1.2250    0.0000 C.ar    1  LIG1        0.1550
     34 O           4.8330   -0.2170    0.0000 O.3     1  LIG1       -0.4700
     35 C           5.5420    0.1540    0.0000 C.3     1  LIG1        0.2525
     36 O           4.8040   -4.2580    0.0000 O.3     1  LIG1       -0.4714
     37 C           3.9330   -4.7630    0.0000 C.3     1  LIG1        0.2525
@<TRIPOS>BOND
     1     1     2   ar
     2     1     6   ar
     3     1    28    1
     4     2     3   ar
     5     2    27    2
     6     3     4   ar
     7     4     5   ar
     8     4    26   ar
     9     5     6   ar
    10     5     8   ar
    11     6     7    2
    12     8     9   ar
    13     9    10   ar
    14    10    11    1
    15    10    26   ar
    16    11    12   am
    17    11    25    2
    18    12    13    1
    19    13    14   ar
    20    13    18   ar
    21    14    15   ar
    22    15    16   ar
    23    15    23    1
    24    16    17   ar
    25    16    21    1
    26    17    18   ar
    27    17    19    1
    28    19    20    1
    29    21    22    1
    30    23    24    1
    31    28    29   ar
    32    28    33   ar
    33    29    30   ar
    34    30    31   ar
    35    30    36    1
    36    31    32   ar
    37    32    33   ar
    38    33    34    1
    39    34    35    1
    40    36    37    1
