@<TRIPOS>MOLECULE
35348_ChemDiv_C036-1011
 25 27 0 0 0
SMALL
GASTEIGER
Energy = 0

@<TRIPOS>ATOM
      1 S          -1.4710    1.1830    0.0000 S.O2    1  LIG1        0.0692
      2 C          -1.9710    2.0750    0.0000 C.ar    1  LIG1        0.1521
      3 S          -1.4580    2.9500    0.0000 S.2     1  LIG1       -0.0604
      4 C          -2.1330    3.6920    0.0000 C.ar    1  LIG1        0.0651
      5 C          -3.0420    3.2830    0.0000 C.ar    1  LIG1        0.0152
      6 C          -2.9500    2.2920    0.0000 C.ar    1  LIG1        0.0276
      7 BR         -1.9540    4.7000    0.0000 Br      1  LIG1       -0.0419
      8 N          -0.9710    0.2960    0.0000 N.3     1  LIG1       -0.1487
      9 C           0.0130    0.4080    0.0000 C.3     1  LIG1        0.1582
     10 C           0.7250   -0.3130    0.0000 C.3     1  LIG1        0.1585
     11 N           0.6040   -1.3130    0.0000 N.4     1  LIG1        0.3819
     12 C           1.3000   -1.6920    0.0000 C.3     1  LIG1        0.1679
     13 C           1.2920   -2.7040    0.0000 C.ar    1  LIG1        0.0555
     14 C           2.1710   -3.1880    0.0000 C.ar    1  LIG1        0.0600
     15 CL          3.0380   -2.6710    0.0000 Cl      1  LIG1       -0.0823
     16 C           2.1920   -4.1830    0.0000 C.ar    1  LIG1        0.0113
     17 C           1.3420   -4.7000    0.0000 C.ar    1  LIG1        0.0017
     18 C           0.4630   -4.2250    0.0000 C.ar    1  LIG1        0.0113
     19 C           0.4380   -3.2170    0.0000 C.ar    1  LIG1        0.0600
     20 CL         -0.4420   -2.7460    0.0000 Cl      1  LIG1       -0.0823
     21 C          -0.2580   -1.8540    0.0000 C.3     1  LIG1        0.1406
     22 C          -1.2130   -1.5080    0.0000 C.3     1  LIG1        0.0818
     23 C          -1.5290   -0.5580    0.0000 C.3     1  LIG1        0.1022
     24 O          -0.5830    1.6880    0.0000 O.2     1  LIG1       -0.1523
     25 O          -2.3630    0.6830    0.0000 O.2     1  LIG1       -0.1523
@<TRIPOS>BOND
     1     1     2    1
     2     1     8    1
     3     1    24    2
     4     1    25    2
     5     2     3   ar
     6     2     6   ar
     7     3     4   ar
     8     4     5   ar
     9     4     7    1
    10     5     6   ar
    11     8     9    1
    12     8    23    1
    13     9    10    1
    14    10    11    1
    15    11    12    1
    16    11    21    1
    17    12    13    1
    18    13    14   ar
    19    13    19   ar
    20    14    15    1
    21    14    16   ar
    22    16    17   ar
    23    17    18   ar
    24    18    19   ar
    25    19    20    1
    26    21    22    1
    27    22    23    1
