@<TRIPOS>MOLECULE
35341_ChemDiv_8017-6840
 35 39 0 0 0
SMALL
GASTEIGER
Energy = 0

@<TRIPOS>ATOM
      1 C          -1.0080    0.6750    0.0000 C.ar    1  LIG1        0.1559
      2 N          -0.5960    1.5960    0.0000 N.ar    1  LIG1       -0.2732
      3 C          -1.3460    2.2580    0.0000 C.ar    1  LIG1        0.1681
      4 N          -2.2080    1.7580    0.0000 N.ar    1  LIG1       -0.2235
      5 C          -2.0000    0.7830    0.0000 C.ar    1  LIG1        0.1148
      6 C          -2.5000   -0.0880    0.0000 C.ar    1  LIG1        0.0206
      7 C          -3.5000   -0.0880    0.0000 C.ar    1  LIG1        0.0029
      8 C          -4.0000   -0.9500    0.0000 C.ar    1  LIG1        0.0146
      9 C          -3.5000   -1.8170    0.0000 C.ar    1  LIG1        0.0479
     10 N          -4.0000   -2.6790    0.0000 N.pl3   1  LIG1       -0.3041
     11 C          -5.0000   -2.6880    0.0000 C.3     1  LIG1        0.1122
     12 C          -3.4880   -3.5420    0.0000 C.3     1  LIG1        0.1122
     13 C          -2.5000   -1.8170    0.0000 C.ar    1  LIG1        0.0146
     14 C          -2.0000   -0.9500    0.0000 C.ar    1  LIG1        0.0029
     15 C          -1.1330    3.2380    0.0000 C.ar    1  LIG1        0.1362
     16 N          -0.1830    3.5460    0.0000 N.ar    1  LIG1       -0.2376
     17 C           0.5670    2.8830    0.0000 C.ar    1  LIG1        0.1180
     18 C           0.3580    1.9000    0.0000 C.ar    1  LIG1        0.1033
     19 N          -0.5080   -0.1920    0.0000 N.pl3   1  LIG1       -0.1939
     20 C           0.4960   -0.1920    0.0000 C.ar    1  LIG1        0.0721
     21 C           0.9960    0.6750    0.0000 C.ar    1  LIG1        0.0162
     22 C           1.9960    0.6750    0.0000 C.ar    1  LIG1       -0.0025
     23 C           2.4960   -0.1920    0.0000 C.ar    1  LIG1       -0.0145
     24 C           3.4960   -0.1920    0.0000 C.3     1  LIG1        0.0901
     25 C           4.4960   -0.1920    0.0000 C.2     1  LIG1        0.2508
     26 N           4.9960   -1.0540    0.0000 N.am    1  LIG1       -0.1445
     27 C           4.4960   -1.9170    0.0000 C.2     1  LIG1        0.2479
     28 O           4.9960   -2.7880    0.0000 O.2     1  LIG1       -0.2729
     29 C           3.4960   -1.9170    0.0000 C.3     1  LIG1        0.0881
     30 C           2.9960   -1.0540    0.0000 C.3     1  LIG1        0.0224
     31 O           4.9960    0.6750    0.0000 O.2     1  LIG1       -0.2726
     32 C           3.9960    0.6750    0.0000 C.3     1  LIG1        0.0128
     33 C           3.4960    1.5460    0.0000 C.3     1  LIG1        0.0008
     34 C           1.9960   -1.0540    0.0000 C.ar    1  LIG1       -0.0025
     35 C           0.9960   -1.0540    0.0000 C.ar    1  LIG1        0.0162
@<TRIPOS>BOND
     1     1     2   ar
     2     1     5   ar
     3     1    19    1
     4     2     3   ar
     5     2    18   ar
     6     3     4   ar
     7     3    15   ar
     8     4     5   ar
     9     5     6    1
    10     6     7   ar
    11     6    14   ar
    12     7     8   ar
    13     8     9   ar
    14     9    10    1
    15     9    13   ar
    16    10    11    1
    17    10    12    1
    18    13    14   ar
    19    15    16   ar
    20    16    17   ar
    21    17    18   ar
    22    19    20    1
    23    20    21   ar
    24    20    35   ar
    25    21    22   ar
    26    22    23   ar
    27    23    24    1
    28    23    34   ar
    29    24    25    1
    30    24    30    1
    31    24    32    1
    32    25    26   am
    33    25    31    2
    34    26    27   am
    35    27    28    2
    36    27    29    1
    37    29    30    1
    38    32    33    1
    39    34    35   ar
