@<TRIPOS>MOLECULE
35353_ChemDiv_A0061903
 36 39 0 0 0
SMALL
GASTEIGER
Energy = 0

@<TRIPOS>ATOM
      1 N           2.1830   -0.9000    0.0000 N.ar    1  LIG1       -0.2535
      2 C           1.3210   -1.4040    0.0000 C.ar    1  LIG1        0.1878
      3 N           0.4500   -0.9000    0.0000 N.ar    1  LIG1       -0.2214
      4 C           0.4460    0.1040    0.0000 C.ar    1  LIG1        0.0882
      5 C           1.3080    0.6080    0.0000 C.ar    1  LIG1        0.0742
      6 C           2.1830    0.1040    0.0000 C.ar    1  LIG1        0.2676
      7 O           3.0670    0.6080    0.0000 O.2     1  LIG1       -0.2665
      8 C           1.2960    1.6130    0.0000 C.ar    1  LIG1        0.0064
      9 C           0.4330    2.1170    0.0000 C.ar    1  LIG1        0.0048
     10 C          -0.4290    1.6130    0.0000 C.ar    1  LIG1        0.0569
     11 C          -1.3040    2.1250    0.0000 C.2     1  LIG1        0.2691
     12 N          -2.1750    1.6130    0.0000 N.am    1  LIG1       -0.1724
     13 C          -3.0380    2.1000    0.0000 C.ar    1  LIG1        0.1076
     14 C          -3.8960    1.5710    0.0000 C.ar    1  LIG1        0.0243
     15 C          -4.7830    2.0540    0.0000 C.ar    1  LIG1        0.0582
     16 C          -5.6540    1.5380    0.0000 C.2     1  LIG1        0.2842
     17 O          -6.5250    2.0210    0.0000 O.2     1  LIG1       -0.2667
     18 N          -5.6290    0.5290    0.0000 N.am    1  LIG1       -0.0837
     19 C          -4.8130    3.0580    0.0000 C.ar    1  LIG1        0.0078
     20 C          -3.9540    3.5710    0.0000 C.ar    1  LIG1        0.0384
     21 C          -3.0670    3.1040    0.0000 C.ar    1  LIG1        0.1539
     22 O          -2.2040    3.6330    0.0000 O.3     1  LIG1       -0.4701
     23 C          -2.1920    4.4170    0.0000 C.3     1  LIG1        0.2525
     24 O          -1.3000    3.1330    0.0000 O.2     1  LIG1       -0.2680
     25 C          -0.4290    0.6040    0.0000 C.ar    1  LIG1        0.0239
     26 S           1.3210   -2.4080    0.0000 S.2     1  LIG1       -0.0105
     27 C           3.0420   -1.4040    0.0000 C.ar    1  LIG1        0.0719
     28 C           3.0420   -2.4080    0.0000 C.ar    1  LIG1        0.0577
     29 C           3.9130   -2.9080    0.0000 C.ar    1  LIG1        0.1738
     30 C           4.7790   -2.4080    0.0000 C.ar    1  LIG1        0.1725
     31 C           4.7880   -1.4040    0.0000 C.ar    1  LIG1        0.0415
     32 C           3.9170   -0.9000    0.0000 C.ar    1  LIG1        0.0210
     33 O           5.6500   -2.9210    0.0000 O.3     1  LIG1       -0.4684
     34 C           6.5250   -2.4130    0.0000 C.3     1  LIG1        0.2526
     35 O           3.9130   -3.9170    0.0000 O.3     1  LIG1       -0.4683
     36 C           3.0420   -4.4170    0.0000 C.3     1  LIG1        0.2526
@<TRIPOS>BOND
     1     1     2   ar
     2     1     6   ar
     3     1    27    1
     4     2     3   ar
     5     2    26    2
     6     3     4   ar
     7     4     5   ar
     8     4    25   ar
     9     5     6   ar
    10     5     8   ar
    11     6     7    2
    12     8     9   ar
    13     9    10   ar
    14    10    11    1
    15    10    25   ar
    16    11    12   am
    17    11    24    2
    18    12    13    1
    19    13    14   ar
    20    13    21   ar
    21    14    15   ar
    22    15    16    1
    23    15    19   ar
    24    16    17    2
    25    16    18   am
    26    19    20   ar
    27    20    21   ar
    28    21    22    1
    29    22    23    1
    30    27    28   ar
    31    27    32   ar
    32    28    29   ar
    33    29    30   ar
    34    29    35    1
    35    30    31   ar
    36    30    33    1
    37    31    32   ar
    38    33    34    1
    39    35    36    1
