@<TRIPOS>MOLECULE
35351_ChemDiv_A0061898
 37 40 0 0 0
SMALL
GASTEIGER
Energy = 0

@<TRIPOS>ATOM
      1 N           2.1880   -1.2170    0.0000 N.ar    1  LIG1       -0.2535
      2 C           1.3170   -1.7210    0.0000 C.ar    1  LIG1        0.1878
      3 N           0.4580   -1.2170    0.0000 N.ar    1  LIG1       -0.2214
      4 C           0.4420   -0.2080    0.0000 C.ar    1  LIG1        0.0882
      5 C           1.3130    0.2960    0.0000 C.ar    1  LIG1        0.0742
      6 C           2.1880   -0.2080    0.0000 C.ar    1  LIG1        0.2676
      7 O           3.0710    0.2960    0.0000 O.2     1  LIG1       -0.2665
      8 C           1.3040    1.3000    0.0000 C.ar    1  LIG1        0.0064
      9 C           0.4380    1.8040    0.0000 C.ar    1  LIG1        0.0048
     10 C          -0.4330    1.3000    0.0000 C.ar    1  LIG1        0.0569
     11 C          -1.3130    1.8170    0.0000 C.2     1  LIG1        0.2690
     12 N          -2.1630    1.3170    0.0000 N.am    1  LIG1       -0.1752
     13 C          -3.0500    1.8040    0.0000 C.ar    1  LIG1        0.0799
     14 C          -3.9000    1.3000    0.0000 C.ar    1  LIG1        0.0568
     15 C          -4.7750    1.8000    0.0000 C.ar    1  LIG1        0.1767
     16 C          -4.8000    2.8000    0.0000 C.ar    1  LIG1        0.2061
     17 C          -3.9420    3.3080    0.0000 C.ar    1  LIG1        0.1767
     18 C          -3.0670    2.8170    0.0000 C.ar    1  LIG1        0.0568
     19 O          -3.9710    4.3170    0.0000 O.3     1  LIG1       -0.4682
     20 C          -3.3040    4.7420    0.0000 C.3     1  LIG1        0.2526
     21 O          -5.6920    3.2710    0.0000 O.3     1  LIG1       -0.4654
     22 C          -6.5380    2.7670    0.0000 C.3     1  LIG1        0.2528
     23 O          -5.6500    1.2880    0.0000 O.3     1  LIG1       -0.4682
     24 C          -6.5210    1.7710    0.0000 C.3     1  LIG1        0.2526
     25 O          -1.2960    2.8290    0.0000 O.2     1  LIG1       -0.2680
     26 C          -0.4330    0.2880    0.0000 C.ar    1  LIG1        0.0239
     27 S           1.3170   -2.7250    0.0000 S.2     1  LIG1       -0.0105
     28 C           3.0540   -1.7210    0.0000 C.ar    1  LIG1        0.0719
     29 C           3.0540   -2.7250    0.0000 C.ar    1  LIG1        0.0577
     30 C           3.9170   -3.2290    0.0000 C.ar    1  LIG1        0.1738
     31 C           4.7880   -2.7250    0.0000 C.ar    1  LIG1        0.1725
     32 C           4.7920   -1.7210    0.0000 C.ar    1  LIG1        0.0415
     33 C           3.9290   -1.2170    0.0000 C.ar    1  LIG1        0.0210
     34 O           5.6630   -3.2420    0.0000 O.3     1  LIG1       -0.4684
     35 C           6.5380   -2.7330    0.0000 C.3     1  LIG1        0.2526
     36 O           3.9170   -4.2380    0.0000 O.3     1  LIG1       -0.4683
     37 C           3.0540   -4.7420    0.0000 C.3     1  LIG1        0.2526
@<TRIPOS>BOND
     1     1     2   ar
     2     1     6   ar
     3     1    28    1
     4     2     3   ar
     5     2    27    2
     6     3     4   ar
     7     4     5   ar
     8     4    26   ar
     9     5     6   ar
    10     5     8   ar
    11     6     7    2
    12     8     9   ar
    13     9    10   ar
    14    10    11    1
    15    10    26   ar
    16    11    12   am
    17    11    25    2
    18    12    13    1
    19    13    14   ar
    20    13    18   ar
    21    14    15   ar
    22    15    16   ar
    23    15    23    1
    24    16    17   ar
    25    16    21    1
    26    17    18   ar
    27    17    19    1
    28    19    20    1
    29    21    22    1
    30    23    24    1
    31    28    29   ar
    32    28    33   ar
    33    29    30   ar
    34    30    31   ar
    35    30    36    1
    36    31    32   ar
    37    31    34    1
    38    32    33   ar
    39    34    35    1
    40    36    37    1
