@<TRIPOS>MOLECULE
35354_ChemDiv_C274-0484
 29 32 0 0 0
SMALL
GASTEIGER
Energy = 0

@<TRIPOS>ATOM
      1 S           2.1710    1.9710    0.0000 S.O2    1  LIG1        0.0690
      2 C           2.3130    2.9750    0.0000 C.ar    1  LIG1        0.1521
      3 S           1.6040    3.7000    0.0000 S.2     1  LIG1       -0.0604
      4 C           2.0710    4.5750    0.0000 C.ar    1  LIG1        0.0651
      5 C           3.0540    4.4080    0.0000 C.ar    1  LIG1        0.0152
      6 C           3.1920    3.4210    0.0000 C.ar    1  LIG1        0.0276
      7 BR          1.6330    5.5000    0.0000 Br      1  LIG1       -0.0419
      8 N           2.0080    0.9880    0.0000 N.3     1  LIG1       -0.1550
      9 C           2.8710    0.4880    0.0000 C.3     1  LIG1        0.0963
     10 C           2.8670   -0.5130    0.0000 C.3     1  LIG1        0.0283
     11 C           1.9960   -1.0040    0.0000 C.3     1  LIG1        0.0796
     12 C           1.9960   -1.9920    0.0000 C.2     1  LIG1        0.2255
     13 N           1.1290   -2.4960    0.0000 N.am    1  LIG1       -0.2751
     14 C           0.2670   -1.9920    0.0000 C.3     1  LIG1        0.1195
     15 C          -0.5880   -2.4960    0.0000 C.2     1  LIG1       -0.0089
     16 C          -0.5920   -3.5000    0.0000 C.2     1  LIG1       -0.0231
     17 C           0.2630   -4.0000    0.0000 C.3     1  LIG1        0.0476
     18 C           1.1290   -3.5000    0.0000 C.3     1  LIG1        0.0984
     19 C          -1.4540   -4.0000    0.0000 C.ar    1  LIG1       -0.0042
     20 C          -2.3210   -3.5000    0.0000 C.ar    1  LIG1       -0.0003
     21 C          -3.1960   -4.0000    0.0000 C.ar    1  LIG1       -0.0000
     22 C          -3.1960   -5.0000    0.0000 C.ar    1  LIG1       -0.0000
     23 C          -2.3210   -5.5000    0.0000 C.ar    1  LIG1       -0.0000
     24 C          -1.4540   -5.0000    0.0000 C.ar    1  LIG1       -0.0003
     25 O           2.8670   -2.4960    0.0000 O.2     1  LIG1       -0.2749
     26 C           1.1290   -0.5000    0.0000 C.3     1  LIG1        0.0283
     27 C           1.1460    0.4880    0.0000 C.3     1  LIG1        0.0963
     28 O           1.1710    2.1380    0.0000 O.2     1  LIG1       -0.1523
     29 O           3.1460    1.8290    0.0000 O.2     1  LIG1       -0.1523
@<TRIPOS>BOND
     1     1     2    1
     2     1     8    1
     3     1    28    2
     4     1    29    2
     5     2     3   ar
     6     2     6   ar
     7     3     4   ar
     8     4     5   ar
     9     4     7    1
    10     5     6   ar
    11     8     9    1
    12     8    27    1
    13     9    10    1
    14    10    11    1
    15    11    12    1
    16    11    26    1
    17    12    13   am
    18    12    25    2
    19    13    14    1
    20    13    18    1
    21    14    15    1
    22    15    16    2
    23    16    17    1
    24    16    19    1
    25    17    18    1
    26    19    20   ar
    27    19    24   ar
    28    20    21   ar
    29    21    22   ar
    30    22    23   ar
    31    23    24   ar
    32    26    27    1
