@<TRIPOS>MOLECULE
35359_ChemDiv_C200-0325
 31 34 0 0 0
SMALL
GASTEIGER
Energy = 0

@<TRIPOS>ATOM
      1 N           3.4750    0.5170    0.0000 N.ar    1  LIG1       -0.2258
      2 C           3.4750   -0.4790    0.0000 C.ar    1  LIG1        0.3563
      3 N           2.6000   -0.9790    0.0000 N.ar    1  LIG1       -0.1918
      4 C           1.7420   -0.4790    0.0000 C.ar    1  LIG1        0.0907
      5 C           1.7420    0.5170    0.0000 C.ar    1  LIG1        0.0744
      6 C           2.6000    1.0170    0.0000 C.ar    1  LIG1        0.2695
      7 O           2.6000    2.0130    0.0000 O.2     1  LIG1       -0.2665
      8 C           0.8790    1.0170    0.0000 C.ar    1  LIG1        0.0064
      9 C           0.0210    0.5170    0.0000 C.ar    1  LIG1        0.0048
     10 C           0.0210   -0.4790    0.0000 C.ar    1  LIG1        0.0569
     11 C          -0.8580   -0.9830    0.0000 C.2     1  LIG1        0.2690
     12 N          -1.7250   -0.4830    0.0000 N.am    1  LIG1       -0.1753
     13 C          -2.5830   -0.9920    0.0000 C.ar    1  LIG1        0.0769
     14 C          -3.4580   -0.5000    0.0000 C.ar    1  LIG1        0.0566
     15 C          -4.3210   -1.0080    0.0000 C.ar    1  LIG1        0.1737
     16 C          -4.3170   -2.0080    0.0000 C.ar    1  LIG1        0.1725
     17 C          -3.4420   -2.4960    0.0000 C.ar    1  LIG1        0.0414
     18 C          -2.5790   -1.9960    0.0000 C.ar    1  LIG1        0.0199
     19 O          -5.1920   -2.5210    0.0000 O.3     1  LIG1       -0.4684
     20 C          -6.0630   -2.0250    0.0000 C.3     1  LIG1        0.2526
     21 O          -5.1920   -0.5130    0.0000 O.3     1  LIG1       -0.4683
     22 C          -5.2000    0.4830    0.0000 C.3     1  LIG1        0.2526
     23 O          -0.8460   -1.9790    0.0000 O.2     1  LIG1       -0.2680
     24 C           0.8790   -0.9790    0.0000 C.ar    1  LIG1        0.0240
     25 O           4.3420   -0.9830    0.0000 O.2     1  LIG1       -0.2440
     26 C           4.3420    1.0170    0.0000 C.ar    1  LIG1        0.0712
     27 C           5.2040    0.5170    0.0000 C.ar    1  LIG1        0.0178
     28 C           6.0630    1.0170    0.0000 C.ar    1  LIG1        0.0015
     29 C           6.0630    2.0250    0.0000 C.ar    1  LIG1        0.0001
     30 C           5.2040    2.5250    0.0000 C.ar    1  LIG1        0.0015
     31 C           4.3420    2.0250    0.0000 C.ar    1  LIG1        0.0178
@<TRIPOS>BOND
     1     1     2   ar
     2     1     6   ar
     3     1    26    1
     4     2     3   ar
     5     2    25    2
     6     3     4   ar
     7     4     5   ar
     8     4    24   ar
     9     5     6   ar
    10     5     8   ar
    11     6     7    2
    12     8     9   ar
    13     9    10   ar
    14    10    11    1
    15    10    24   ar
    16    11    12   am
    17    11    23    2
    18    12    13    1
    19    13    14   ar
    20    13    18   ar
    21    14    15   ar
    22    15    16   ar
    23    15    21    1
    24    16    17   ar
    25    16    19    1
    26    17    18   ar
    27    19    20    1
    28    21    22    1
    29    26    27   ar
    30    26    31   ar
    31    27    28   ar
    32    28    29   ar
    33    29    30   ar
    34    30    31   ar
