@<TRIPOS>MOLECULE
35350_ChemDiv_C137-1723
 32 35 0 0 0
SMALL
GASTEIGER
Energy = 0

@<TRIPOS>ATOM
      1 S           2.8880    3.0170    0.0000 S.O2    1  LIG1        0.0830
      2 C           2.8880    4.0170    0.0000 C.ar    1  LIG1        0.1530
      3 S           2.0630    4.6080    0.0000 S.2     1  LIG1       -0.0667
      4 C           2.3790    5.5540    0.0000 C.ar    1  LIG1        0.0368
      5 C           3.3750    5.5540    0.0000 C.ar    1  LIG1        0.0089
      6 C           3.6880    4.6000    0.0000 C.ar    1  LIG1        0.0272
      7 N           2.8880    2.0170    0.0000 N.3     1  LIG1       -0.0674
      8 C           2.0250    1.5170    0.0000 C.3     1  LIG1        0.2002
      9 C           2.0250    0.5290    0.0000 C.2     1  LIG1        0.2457
     10 N           1.1540    0.0290    0.0000 N.am    1  LIG1       -0.2669
     11 C           1.2000   -0.9080    0.0000 C.3     1  LIG1        0.1565
     12 C           0.3500   -1.4210    0.0000 C.3     1  LIG1        0.1612
     13 N          -0.5080   -0.9670    0.0000 N.4     1  LIG1        0.3820
     14 C          -1.3540   -1.4830    0.0000 C.3     1  LIG1        0.1331
     15 C          -1.3210   -2.3290    0.0000 C.ar    1  LIG1        0.0328
     16 C          -0.4540   -2.8290    0.0000 C.ar    1  LIG1        0.0024
     17 C          -0.4380   -3.8290    0.0000 C.ar    1  LIG1        0.0113
     18 C          -1.3210   -4.3710    0.0000 C.ar    1  LIG1        0.0577
     19 C          -2.1880   -3.8750    0.0000 C.ar    1  LIG1        0.0113
     20 C          -2.2250   -2.8710    0.0000 C.ar    1  LIG1        0.0024
     21 CL         -1.2920   -5.5540    0.0000 Cl      1  LIG1       -0.0822
     22 C          -2.1080   -1.0130    0.0000 C.ar    1  LIG1        0.0328
     23 C          -2.1250   -0.0330    0.0000 C.ar    1  LIG1        0.0016
     24 C          -3.0040    0.4830    0.0000 C.ar    1  LIG1       -0.0001
     25 C          -3.8960   -0.0630    0.0000 C.ar    1  LIG1       -0.0000
     26 C          -3.8670   -1.0750    0.0000 C.ar    1  LIG1       -0.0001
     27 C          -3.0130   -1.5540    0.0000 C.ar    1  LIG1        0.0016
     28 C          -0.5290    0.0460    0.0000 C.3     1  LIG1        0.1612
     29 C           0.3210    0.5580    0.0000 C.3     1  LIG1        0.1565
     30 O           2.8960    0.0290    0.0000 O.2     1  LIG1       -0.2732
     31 O           1.8790    3.0080    0.0000 O.2     1  LIG1       -0.1511
     32 O           3.8920    3.0170    0.0000 O.2     1  LIG1       -0.1511
@<TRIPOS>BOND
     1     1     2    1
     2     1     7    1
     3     1    31    2
     4     1    32    2
     5     2     3   ar
     6     2     6   ar
     7     3     4   ar
     8     4     5   ar
     9     5     6   ar
    10     7     8    1
    11     8     9    1
    12     9    10   am
    13     9    30    2
    14    10    11    1
    15    10    29    1
    16    11    12    1
    17    12    13    1
    18    13    14    1
    19    13    28    1
    20    14    15    1
    21    14    22    1
    22    15    16   ar
    23    15    20   ar
    24    16    17   ar
    25    17    18   ar
    26    18    19   ar
    27    18    21    1
    28    19    20   ar
    29    22    23   ar
    30    22    27   ar
    31    23    24   ar
    32    24    25   ar
    33    25    26   ar
    34    26    27   ar
    35    28    29    1
