@<TRIPOS>MOLECULE
35352_ChemDiv_C274-0168
 27 29 0 0 0
SMALL
GASTEIGER
Energy = 0

@<TRIPOS>ATOM
      1 S           0.9330    1.6630    0.0000 S.O2    1  LIG1        0.0832
      2 C           1.7670    1.2040    0.0000 C.ar    1  LIG1        0.1535
      3 S           2.6460    1.6130    0.0000 S.2     1  LIG1       -0.0604
      4 C           3.2830    0.9000    0.0000 C.ar    1  LIG1        0.0651
      5 C           2.8130    0.0710    0.0000 C.ar    1  LIG1        0.0152
      6 C           1.8750    0.2750    0.0000 C.ar    1  LIG1        0.0277
      7 BR          4.2580    0.9960    0.0000 Br      1  LIG1       -0.0419
      8 N           0.0920    2.1250    0.0000 N.3     1  LIG1       -0.0649
      9 C          -0.7290    1.5290    0.0000 C.3     1  LIG1        0.1958
     10 C          -0.7920   -0.2130    0.0000 C.2     1  LIG1        0.2476
     11 N          -1.6580   -0.7170    0.0000 N.am    1  LIG1       -0.2781
     12 C          -2.5250   -0.2210    0.0000 C.3     1  LIG1        0.0934
     13 C          -3.3830   -0.7250    0.0000 C.3     1  LIG1        0.0199
     14 C          -3.3830   -1.7250    0.0000 C.3     1  LIG1        0.0034
     15 C          -2.5170   -2.2080    0.0000 C.3     1  LIG1        0.0199
     16 C          -1.6500   -1.7250    0.0000 C.3     1  LIG1        0.0934
     17 C          -2.5170   -3.2170    0.0000 C.3     1  LIG1        0.0018
     18 C          -4.2630   -0.2210    0.0000 C.3     1  LIG1        0.0018
     19 O           0.0540   -0.6750    0.0000 O.2     1  LIG1       -0.2729
     20 C          -1.6330    1.9500    0.0000 C.ar    1  LIG1        0.0041
     21 C          -2.3540    1.3460    0.0000 C.ar    1  LIG1       -0.0024
     22 C          -3.2460    1.6710    0.0000 C.ar    1  LIG1       -0.0003
     23 C          -3.4040    2.6130    0.0000 C.ar    1  LIG1       -0.0000
     24 C          -2.6710    3.2210    0.0000 C.ar    1  LIG1       -0.0003
     25 C          -1.7790    2.8880    0.0000 C.ar    1  LIG1       -0.0024
     26 O           1.3880    2.5130    0.0000 O.2     1  LIG1       -0.1511
     27 O           0.4830    0.8250    0.0000 O.2     1  LIG1       -0.1511
@<TRIPOS>BOND
     1     1     2    1
     2     1     8    1
     3     1    26    2
     4     1    27    2
     5     2     3   ar
     6     2     6   ar
     7     3     4   ar
     8     4     5   ar
     9     4     7    1
    10     5     6   ar
    11     8     9    1
    12     9    10    1
    13     9    20    1
    14    10    11   am
    15    10    19    2
    16    11    12    1
    17    11    16    1
    18    12    13    1
    19    13    14    1
    20    13    18    1
    21    14    15    1
    22    15    16    1
    23    15    17    1
    24    20    21   ar
    25    20    25   ar
    26    21    22   ar
    27    22    23   ar
    28    23    24   ar
    29    24    25   ar
