@<TRIPOS>MOLECULE
35367_ChemDiv_8017-7346
 29 33 0 0 0
SMALL
GASTEIGER
Energy = 0

@<TRIPOS>ATOM
      1 P           1.4540   -0.7500    0.0000 P.3     1  LIG1        0.3153
      2 N           1.9750    0.1210    0.0000 N.2     1  LIG1       -0.0230
      3 C           1.4540    0.9920    0.0000 C.2     1  LIG1        0.3278
      4 C           0.4500    0.9920    0.0000 C.ar    1  LIG1        0.1306
      5 C          -0.0420    0.1210    0.0000 C.ar    1  LIG1        0.1652
      6 N           0.4500   -0.7500    0.0000 N.pl3   1  LIG1       -0.1460
      7 N          -1.0210    0.3420    0.0000 N.ar    1  LIG1       -0.2143
      8 N          -1.1040    1.3210    0.0000 N.ar    1  LIG1       -0.1680
      9 C          -0.2040    1.7290    0.0000 C.ar    1  LIG1        0.0893
     10 C          -0.0170    2.7420    0.0000 C.3     1  LIG1        0.0543
     11 C          -1.7830   -0.3130    0.0000 C.ar    1  LIG1        0.0842
     12 C          -1.5920   -1.2920    0.0000 C.ar    1  LIG1        0.0192
     13 C          -2.3290   -1.9420    0.0000 C.ar    1  LIG1        0.0015
     14 C          -3.3170   -1.5920    0.0000 C.ar    1  LIG1        0.0001
     15 C          -3.4790   -0.6130    0.0000 C.ar    1  LIG1        0.0015
     16 C          -2.7170    0.0460    0.0000 C.ar    1  LIG1        0.0192
     17 N           1.9750    1.8670    0.0000 N.pl3   1  LIG1       -0.1904
     18 C           1.4540    2.7420    0.0000 C.3     1  LIG1        0.2023
     19 C           1.9750    3.6170    0.0000 C.3     1  LIG1        0.0509
     20 C           2.9540    3.6170    0.0000 C.3     1  LIG1        0.0085
     21 C           3.4750    2.7420    0.0000 C.3     1  LIG1        0.0509
     22 C           2.9540    1.8670    0.0000 C.3     1  LIG1        0.2023
     23 N           1.1790   -1.7040    0.0000 N.3     1  LIG1       -0.2043
     24 C           0.2290   -1.9750    0.0000 C.3     1  LIG1        0.0809
     25 C          -0.0170   -2.9290    0.0000 C.3     1  LIG1        0.0178
     26 C           0.6920   -3.6130    0.0000 C.3     1  LIG1        0.0029
     27 C           1.6170   -3.3670    0.0000 C.3     1  LIG1        0.0178
     28 C           1.8920   -2.4130    0.0000 C.3     1  LIG1        0.0809
     29 S           2.4380   -0.7170    0.0000 S.2     1  LIG1        0.0224
@<TRIPOS>BOND
     1     1     2    1
     2     1     6    1
     3     1    23    1
     4     1    29    2
     5     2     3    2
     6     3     4    1
     7     3    17    1
     8     4     5   ar
     9     4     9   ar
    10     5     6    1
    11     5     7   ar
    12     7     8   ar
    13     7    11    1
    14     8     9   ar
    15     9    10    1
    16    11    12   ar
    17    11    16   ar
    18    12    13   ar
    19    13    14   ar
    20    14    15   ar
    21    15    16   ar
    22    17    18    1
    23    17    22    1
    24    18    19    1
    25    19    20    1
    26    20    21    1
    27    21    22    1
    28    23    24    1
    29    23    28    1
    30    24    25    1
    31    25    26    1
    32    26    27    1
    33    27    28    1
