@<TRIPOS>MOLECULE
35363_ChemDiv_8017-7020
 18 20 0 0 0
SMALL
GASTEIGER
Energy = 0

@<TRIPOS>ATOM
      1 P           0.5960    0.3830    0.0000 P.3     1  LIG1        0.2549
      2 N           1.5040   -0.0580    0.0000 N.3     1  LIG1       -0.2205
      3 C           1.5710   -1.0710    0.0000 C.3     1  LIG1        0.1105
      4 C           2.4790   -1.5040    0.0000 C.3     1  LIG1        0.1599
      5 O           3.3080   -0.9420    0.0000 O.3     1  LIG1       -0.3508
      6 C           3.2330    0.0710    0.0000 C.3     1  LIG1        0.1599
      7 C           2.3250    0.5080    0.0000 C.3     1  LIG1        0.1105
      8 C           0.1670    1.2830    0.0000 C.3     1  LIG1        0.2821
      9 O          -0.8080    1.5080    0.0000 O.3     1  LIG1       -0.4629
     10 C          -1.5830    0.8880    0.0000 C.ar    1  LIG1        0.1730
     11 C          -1.5830   -0.1170    0.0000 C.ar    1  LIG1        0.1730
     12 O          -0.8080   -0.7330    0.0000 O.3     1  LIG1       -0.4629
     13 C           0.1670   -0.5080    0.0000 C.3     1  LIG1        0.2821
     14 C          -2.4460   -0.6170    0.0000 C.ar    1  LIG1        0.0401
     15 C          -3.3130   -0.1170    0.0000 C.ar    1  LIG1        0.0033
     16 C          -3.3130    0.8830    0.0000 C.ar    1  LIG1        0.0033
     17 C          -2.4460    1.3830    0.0000 C.ar    1  LIG1        0.0401
     18 O           1.0330    1.2880    0.0000 O.2     1  LIG1       -0.2955
@<TRIPOS>BOND
     1     1     2    1
     2     1     8    1
     3     1    13    1
     4     1    18    2
     5     2     3    1
     6     2     7    1
     7     3     4    1
     8     4     5    1
     9     5     6    1
    10     6     7    1
    11     8     9    1
    12     9    10    1
    13    10    11   ar
    14    10    17   ar
    15    11    12    1
    16    11    14   ar
    17    12    13    1
    18    14    15   ar
    19    15    16   ar
    20    16    17   ar
