@<TRIPOS>MOLECULE
35365_ChemDiv_8017-7143
 34 39 0 0 0
SMALL
GASTEIGER
Energy = 0

@<TRIPOS>ATOM
      1 C           2.6630    0.0080    0.0000 C.ar    1  LIG1        0.1796
      2 N           3.6630    0.0000    0.0000 N.ar    1  LIG1       -0.2723
      3 C           4.1630   -0.8670    0.0000 C.ar    1  LIG1        0.1614
      4 C           3.6580   -1.7290    0.0000 C.ar    1  LIG1        0.0988
      5 C           2.6630   -1.7290    0.0000 C.ar    1  LIG1        0.2839
      6 N           2.1630   -0.8630    0.0000 N.ar    1  LIG1       -0.1840
      7 O           2.1630   -2.6000    0.0000 O.2     1  LIG1       -0.2650
      8 N           5.1580   -0.8670    0.0000 N.pl3   1  LIG1       -0.1084
      9 C           4.1630    0.8670    0.0000 C.ar    1  LIG1        0.0670
     10 C           3.6630    1.7330    0.0000 C.ar    1  LIG1        0.0176
     11 C           4.1630    2.6040    0.0000 C.ar    1  LIG1        0.0015
     12 C           5.1630    2.6040    0.0000 C.ar    1  LIG1        0.0001
     13 C           5.6630    1.7290    0.0000 C.ar    1  LIG1        0.0015
     14 C           5.1630    0.8670    0.0000 C.ar    1  LIG1        0.0176
     15 S           2.1630    0.8670    0.0000 S.3     1  LIG1       -0.0671
     16 C           1.1630    0.8670    0.0000 C.3     1  LIG1        0.1500
     17 C           0.6630    0.0080    0.0000 C.2     1  LIG1        0.2374
     18 N          -0.3380    0.0080    0.0000 N.am    1  LIG1       -0.2674
     19 C          -0.8380   -0.8630    0.0000 C.3     1  LIG1        0.1565
     20 C          -1.8460   -0.8630    0.0000 C.3     1  LIG1        0.1600
     21 N          -2.3460    0.0080    0.0000 N.4     1  LIG1        0.3718
     22 C          -3.3000    0.0080    0.0000 C.3     1  LIG1        0.0457
     23 C          -3.3000    1.0290    0.0000 C.3     1  LIG1        0.0512
     24 C          -4.1920    1.5420    0.0000 C.3     1  LIG1        0.0055
     25 C          -4.7040    0.6540    0.0000 C.3     1  LIG1        0.0004
     26 C          -4.7040   -0.4750    0.0000 C.3     1  LIG1        0.0055
     27 C          -3.8670   -0.7500    0.0000 C.3     1  LIG1        0.0512
     28 C          -5.6670   -0.7500    0.0000 C.3     1  LIG1        0.0004
     29 C          -5.0790   -0.0670    0.0000 C.3     1  LIG1        0.0055
     30 C          -3.8960   -0.4040    0.0000 C.3     1  LIG1        0.0512
     31 C          -5.0790    1.0290    0.0000 C.3     1  LIG1        0.0004
     32 C          -1.8460    0.8670    0.0000 C.3     1  LIG1        0.1600
     33 C          -0.8380    0.8670    0.0000 C.3     1  LIG1        0.1565
     34 O           1.1630   -0.8630    0.0000 O.2     1  LIG1       -0.2739
@<TRIPOS>BOND
     1     1     2   ar
     2     1     6   ar
     3     1    15    1
     4     2     3   ar
     5     2     9    1
     6     3     4   ar
     7     3     8    1
     8     4     5   ar
     9     5     6   ar
    10     5     7    2
    11     9    10   ar
    12     9    14   ar
    13    10    11   ar
    14    11    12   ar
    15    12    13   ar
    16    13    14   ar
    17    15    16    1
    18    16    17    1
    19    17    18   am
    20    17    34    2
    21    18    19    1
    22    18    33    1
    23    19    20    1
    24    20    21    1
    25    21    22    1
    26    21    32    1
    27    22    23    1
    28    22    27    1
    29    22    30    1
    30    23    24    1
    31    24    25    1
    32    24    31    1
    33    25    26    1
    34    26    27    1
    35    26    28    1
    36    28    29    1
    37    29    30    1
    38    29    31    1
    39    32    33    1
