@<TRIPOS>MOLECULE
35369_ChemDiv_8017-7351
 20 22 0 0 0
SMALL
GASTEIGER
Energy = 0

@<TRIPOS>ATOM
      1 P          -0.3210   -0.0130    0.0000 P.3     1  LIG1        0.2860
      2 N           0.3790    0.6920    0.0000 N.pl3   1  LIG1       -0.1651
      3 C           1.3420    0.4290    0.0000 C.ar    1  LIG1        0.1535
      4 N           1.6040   -0.5290    0.0000 N.ar    1  LIG1       -0.2265
      5 C           2.5670   -0.7920    0.0000 C.ar    1  LIG1        0.1117
      6 C           3.2790   -0.0790    0.0000 C.ar    1  LIG1        0.0769
      7 CL          4.2420   -0.3420    0.0000 Cl      1  LIG1       -0.0806
      8 C           3.0170    0.8790    0.0000 C.ar    1  LIG1        0.0159
      9 C           2.0540    1.1420    0.0000 C.ar    1  LIG1        0.0370
     10 C          -0.7540    0.8830    0.0000 C.3     1  LIG1        0.2869
     11 O          -1.7290    1.1040    0.0000 O.3     1  LIG1       -0.4625
     12 C          -2.5170    0.4880    0.0000 C.ar    1  LIG1        0.1730
     13 C          -2.5170   -0.5130    0.0000 C.ar    1  LIG1        0.1730
     14 O          -1.7290   -1.1380    0.0000 O.3     1  LIG1       -0.4625
     15 C          -0.7540   -0.9170    0.0000 C.3     1  LIG1        0.2869
     16 C          -3.3790   -1.0130    0.0000 C.ar    1  LIG1        0.0401
     17 C          -4.2460   -0.5130    0.0000 C.ar    1  LIG1        0.0033
     18 C          -4.2460    0.4880    0.0000 C.ar    1  LIG1        0.0033
     19 C          -3.3790    0.9830    0.0000 C.ar    1  LIG1        0.0401
     20 O          -0.1040   -0.9880    0.0000 O.2     1  LIG1       -0.2902
@<TRIPOS>BOND
     1     1     2    1
     2     1    10    1
     3     1    15    1
     4     1    20    2
     5     2     3    1
     6     3     4   ar
     7     3     9   ar
     8     4     5   ar
     9     5     6   ar
    10     6     7    1
    11     6     8   ar
    12     8     9   ar
    13    10    11    1
    14    11    12    1
    15    12    13   ar
    16    12    19   ar
    17    13    14    1
    18    13    16   ar
    19    14    15    1
    20    16    17   ar
    21    17    18   ar
    22    18    19   ar
