@<TRIPOS>MOLECULE
35377_ChemDiv_A0061044
 29 32 0 0 0
SMALL
GASTEIGER
Energy = 0

@<TRIPOS>ATOM
      1 N           1.3920   -2.2500    0.0000 N.ar    1  LIG1       -0.2725
      2 C           0.5250   -2.7500    0.0000 C.ar    1  LIG1        0.1839
      3 N          -0.3380   -2.2500    0.0000 N.ar    1  LIG1       -0.2217
      4 C          -0.3380   -1.2500    0.0000 C.ar    1  LIG1        0.0881
      5 C           0.5250   -0.7500    0.0000 C.ar    1  LIG1        0.0739
      6 C           1.3920   -1.2500    0.0000 C.ar    1  LIG1        0.2638
      7 O           2.2670   -0.7460    0.0000 O.2     1  LIG1       -0.2669
      8 C           0.5250    0.2500    0.0000 C.ar    1  LIG1        0.0064
      9 C          -0.3380    0.7460    0.0000 C.ar    1  LIG1        0.0048
     10 C          -1.2040    0.2500    0.0000 C.ar    1  LIG1        0.0551
     11 C          -2.0750    0.7540    0.0000 C.2     1  LIG1        0.2494
     12 N          -2.9380    0.2540    0.0000 N.am    1  LIG1       -0.2702
     13 C          -3.8040    0.7540    0.0000 C.3     1  LIG1        0.1205
     14 C          -3.8040    1.7540    0.0000 C.ar    1  LIG1       -0.0023
     15 C          -2.9380    2.2540    0.0000 C.ar    1  LIG1       -0.0026
     16 C          -2.9380    3.2540    0.0000 C.ar    1  LIG1       -0.0003
     17 C          -3.8040    3.7540    0.0000 C.ar    1  LIG1       -0.0000
     18 C          -4.6710    3.2540    0.0000 C.ar    1  LIG1       -0.0003
     19 C          -4.6710    2.2540    0.0000 C.ar    1  LIG1       -0.0026
     20 C          -2.9380   -0.7460    0.0000 C.3     1  LIG1        0.1155
     21 O          -2.0750    1.7540    0.0000 O.2     1  LIG1       -0.2699
     22 C          -1.2040   -0.7500    0.0000 C.ar    1  LIG1        0.0238
     23 S           0.5250   -3.7500    0.0000 S.2     1  LIG1       -0.0109
     24 C           2.2670   -2.7500    0.0000 C.3     1  LIG1        0.1404
     25 C           3.1330   -2.2500    0.0000 C.3     1  LIG1        0.1379
     26 O           3.1330   -1.2500    0.0000 O.3     1  LIG1       -0.3543
     27 C           4.0830   -0.9500    0.0000 C.3     1  LIG1        0.1422
     28 C           4.6670   -1.7460    0.0000 C.3     1  LIG1        0.0346
     29 C           4.0830   -2.5630    0.0000 C.3     1  LIG1        0.0341
@<TRIPOS>BOND
     1     1     2   ar
     2     1     6   ar
     3     1    24    1
     4     2     3   ar
     5     2    23    2
     6     3     4   ar
     7     4     5   ar
     8     4    22   ar
     9     5     6   ar
    10     5     8   ar
    11     6     7    2
    12     8     9   ar
    13     9    10   ar
    14    10    11    1
    15    10    22   ar
    16    11    12   am
    17    11    21    2
    18    12    13    1
    19    12    20    1
    20    13    14    1
    21    14    15   ar
    22    14    19   ar
    23    15    16   ar
    24    16    17   ar
    25    17    18   ar
    26    18    19   ar
    27    24    25    1
    28    25    26    1
    29    25    29    1
    30    26    27    1
    31    27    28    1
    32    28    29    1
