@<TRIPOS>MOLECULE
35379_ChemDiv_A0061174
 32 35 0 0 0
SMALL
GASTEIGER
Energy = 0

@<TRIPOS>ATOM
      1 N           0.4170   -1.0040    0.0000 N.ar    1  LIG1       -0.2708
      2 C          -0.4500   -1.5040    0.0000 C.ar    1  LIG1        0.1841
      3 N          -1.3080   -1.0040    0.0000 N.ar    1  LIG1       -0.2217
      4 C          -1.3080   -0.0040    0.0000 C.ar    1  LIG1        0.0881
      5 C          -0.4500    0.4960    0.0000 C.ar    1  LIG1        0.0739
      6 C           0.4170   -0.0040    0.0000 C.ar    1  LIG1        0.2640
      7 O           1.2920    0.5040    0.0000 O.2     1  LIG1       -0.2669
      8 C          -0.4500    1.4960    0.0000 C.ar    1  LIG1        0.0064
      9 C          -1.3080    1.9920    0.0000 C.ar    1  LIG1        0.0048
     10 C          -2.1750    1.4960    0.0000 C.ar    1  LIG1        0.0565
     11 C          -3.0540    2.0040    0.0000 C.2     1  LIG1        0.2648
     12 O          -3.0540    3.0040    0.0000 O.2     1  LIG1       -0.2684
     13 N          -3.9080    1.4960    0.0000 N.am    1  LIG1       -0.2013
     14 C          -3.9080    0.5040    0.0000 C.3     1  LIG1        0.1198
     15 C          -4.7710    0.0000    0.0000 C.3     1  LIG1        0.0451
     16 C          -4.7710   -1.0000    0.0000 C.2     1  LIG1       -0.0467
     17 C          -5.6380   -1.5000    0.0000 C.2     1  LIG1       -0.0346
     18 C          -5.6380   -2.5000    0.0000 C.3     1  LIG1        0.0254
     19 C          -4.7710   -3.0000    0.0000 C.3     1  LIG1        0.0050
     20 C          -3.9080   -2.5000    0.0000 C.3     1  LIG1        0.0047
     21 C          -3.9080   -1.5000    0.0000 C.3     1  LIG1        0.0218
     22 C          -2.1750    0.4960    0.0000 C.ar    1  LIG1        0.0239
     23 S          -0.4500   -2.5040    0.0000 S.2     1  LIG1       -0.0109
     24 C           1.2920   -1.5040    0.0000 C.3     1  LIG1        0.1377
     25 C           2.1580   -1.0040    0.0000 C.ar    1  LIG1        0.0007
     26 C           2.1580   -0.0040    0.0000 C.ar    1  LIG1        0.0007
     27 C           3.0170    0.4960    0.0000 C.ar    1  LIG1        0.0366
     28 C           3.8920   -0.0040    0.0000 C.ar    1  LIG1        0.1387
     29 C           3.8920   -1.0040    0.0000 C.ar    1  LIG1        0.0366
     30 C           3.0250   -1.5040    0.0000 C.ar    1  LIG1        0.0007
     31 O           4.7670    0.4960    0.0000 O.3     1  LIG1       -0.4714
     32 C           5.6330   -0.0040    0.0000 C.3     1  LIG1        0.2525
@<TRIPOS>BOND
     1     1     2   ar
     2     1     6   ar
     3     1    24    1
     4     2     3   ar
     5     2    23    2
     6     3     4   ar
     7     4     5   ar
     8     4    22   ar
     9     5     6   ar
    10     5     8   ar
    11     6     7    2
    12     8     9   ar
    13     9    10   ar
    14    10    11    1
    15    10    22   ar
    16    11    12    2
    17    11    13   am
    18    13    14    1
    19    14    15    1
    20    15    16    1
    21    16    17    2
    22    16    21    1
    23    17    18    1
    24    18    19    1
    25    19    20    1
    26    20    21    1
    27    24    25    1
    28    25    26   ar
    29    25    30   ar
    30    26    27   ar
    31    27    28   ar
    32    28    29   ar
    33    28    31    1
    34    29    30   ar
    35    31    32    1
