@<TRIPOS>MOLECULE
35375_ChemDiv_8017-7412
 10 11 0 0 0
SMALL
GASTEIGER
Energy = 0

@<TRIPOS>ATOM
      1 C           0.7420   -0.5250    0.0000 C.ar    1  LIG1        0.0810
      2 C           0.7420    0.4670    0.0000 C.ar    1  LIG1        0.0369
      3 C          -0.2040    0.7790    0.0000 C.ar    1  LIG1        0.0465
      4 C          -0.7920   -0.0250    0.0000 C.ar    1  LIG1        0.1696
      5 S          -0.2040   -0.8380    0.0000 S.2     1  LIG1       -0.0425
      6 O          -1.7920   -0.0250    0.0000 O.3     1  LIG1       -0.4656
      7 C          -2.2920    0.8420    0.0000 C.3     1  LIG1        0.2531
      8 C           1.6920    0.7790    0.0000 C.ar    1  LIG1        0.1084
      9 N           2.2880   -0.0250    0.0000 N.ar    1  LIG1       -0.2071
     10 S           1.7000   -0.8380    0.0000 S.2     1  LIG1        0.0197
@<TRIPOS>BOND
     1     1     2   ar
     2     1     5   ar
     3     1    10   ar
     4     2     3   ar
     5     2     8   ar
     6     3     4   ar
     7     4     5   ar
     8     4     6    1
     9     6     7    1
    10     8     9   ar
    11     9    10   ar
