@<TRIPOS>MOLECULE
35386_ChemDiv_C046-0238
 39 44 0 0 0
SMALL
GASTEIGER
Energy = 0

@<TRIPOS>ATOM
      1 C          -0.7080    4.3130    0.0000 C.ar    1  LIG1        0.0762
      2 C          -0.7080    3.3000    0.0000 C.ar    1  LIG1        0.1164
      3 N           0.1420    2.7880    0.0000 N.ar    1  LIG1       -0.2186
      4 C           1.0170    3.3000    0.0000 C.ar    1  LIG1        0.1817
      5 N           1.0170    4.3130    0.0000 N.ar    1  LIG1       -0.2690
      6 C           0.1420    4.8040    0.0000 C.ar    1  LIG1        0.2640
      7 O           0.1420    5.8210    0.0000 O.2     1  LIG1       -0.2669
      8 C           1.9080    4.8040    0.0000 C.3     1  LIG1        0.1971
      9 C           2.7830    4.2920    0.0000 C.2     1  LIG1        0.2646
     10 O           3.6380    4.8040    0.0000 O.2     1  LIG1       -0.2712
     11 N           2.7630    3.3000    0.0000 N.am    1  LIG1       -0.2038
     12 C           1.9080    2.7880    0.0000 C.3     1  LIG1        0.1157
     13 C           1.9210    1.7960    0.0000 C.3     1  LIG1        0.0330
     14 C           1.0460    1.2830    0.0000 C.3     1  LIG1        0.0871
     15 C           1.0460    0.2880    0.0000 C.2     1  LIG1        0.2260
     16 N           0.2040   -0.2250    0.0000 N.am    1  LIG1       -0.2681
     17 C          -0.6670    0.2880    0.0000 C.3     1  LIG1        0.1565
     18 C          -1.5420   -0.2250    0.0000 C.3     1  LIG1        0.1610
     19 N          -1.5420   -1.2080    0.0000 N.4     1  LIG1        0.3834
     20 C          -2.4170   -1.7210    0.0000 C.3     1  LIG1        0.1664
     21 C          -2.3880   -2.7330    0.0000 C.ar    1  LIG1        0.0376
     22 C          -1.5130   -3.2290    0.0000 C.ar    1  LIG1        0.0416
     23 C          -1.5130   -4.2420    0.0000 C.ar    1  LIG1        0.1763
     24 C          -2.3880   -4.7290    0.0000 C.ar    1  LIG1        0.1764
     25 O          -2.1580   -5.6960    0.0000 O.3     1  LIG1       -0.4346
     26 C          -1.1790   -5.8210    0.0000 C.3     1  LIG1        0.4294
     27 O          -0.7920   -4.9170    0.0000 O.3     1  LIG1       -0.4346
     28 C          -3.2210   -4.2420    0.0000 C.ar    1  LIG1        0.0401
     29 C          -3.2500   -3.2290    0.0000 C.ar    1  LIG1        0.0048
     30 C          -0.6670   -1.7210    0.0000 C.3     1  LIG1        0.1610
     31 C           0.2040   -1.2290    0.0000 C.3     1  LIG1        0.1565
     32 O           1.9210   -0.2250    0.0000 O.2     1  LIG1       -0.2749
     33 S          -1.6630    2.9960    0.0000 S.2     1  LIG1       -0.0725
     34 C          -2.2380    3.8130    0.0000 C.ar    1  LIG1        0.0049
     35 C          -1.6630    4.6130    0.0000 C.ar    1  LIG1       -0.0136
     36 C          -2.0830    5.5250    0.0000 C.3     1  LIG1        0.0268
     37 C          -3.0710    5.6130    0.0000 C.3     1  LIG1        0.0050
     38 C          -3.6420    4.8330    0.0000 C.3     1  LIG1        0.0055
     39 C          -3.2210    3.9250    0.0000 C.3     1  LIG1        0.0327
@<TRIPOS>BOND
     1     1     2   ar
     2     1     6   ar
     3     1    35   ar
     4     2     3   ar
     5     2    33   ar
     6     3     4   ar
     7     4     5   ar
     8     5     6   ar
     9     5     8    1
    10     6     7    2
    11     8     9    1
    12     9    10    2
    13     9    11   am
    14    11    12    1
    15    12    13    1
    16    13    14    1
    17    14    15    1
    18    15    16   am
    19    15    32    2
    20    16    17    1
    21    16    31    1
    22    17    18    1
    23    18    19    1
    24    19    20    1
    25    19    30    1
    26    20    21    1
    27    21    22   ar
    28    21    29   ar
    29    22    23   ar
    30    23    24   ar
    31    23    27    1
    32    24    25    1
    33    24    28   ar
    34    25    26    1
    35    26    27    1
    36    28    29   ar
    37    30    31    1
    38    33    34   ar
    39    34    35   ar
    40    34    39    1
    41    35    36    1
    42    36    37    1
    43    37    38    1
    44    38    39    1
