@<TRIPOS>MOLECULE
35389_ChemDiv_C190-0150
 25 26 0 0 0
SMALL
GASTEIGER
Energy = 0

@<TRIPOS>ATOM
      1 N           1.7210   -1.2500    0.0000 N.ar    1  LIG1       -0.2448
      2 C           0.8580   -1.7580    0.0000 C.ar    1  LIG1        0.3525
      3 N          -0.0130   -1.2500    0.0000 N.ar    1  LIG1       -0.1920
      4 C          -0.0130   -0.2580    0.0000 C.ar    1  LIG1        0.0907
      5 C           0.8460    0.2500    0.0000 C.ar    1  LIG1        0.0740
      6 C           1.7210   -0.2580    0.0000 C.ar    1  LIG1        0.2658
      7 O           2.6000    0.2500    0.0000 O.2     1  LIG1       -0.2668
      8 C           0.8290    1.2460    0.0000 C.ar    1  LIG1        0.0064
      9 C          -0.0250    1.7540    0.0000 C.ar    1  LIG1        0.0048
     10 C          -0.8830    1.2460    0.0000 C.ar    1  LIG1        0.0565
     11 C          -1.7540    1.7540    0.0000 C.2     1  LIG1        0.2649
     12 O          -1.7540    2.7580    0.0000 O.2     1  LIG1       -0.2684
     13 N          -2.6250    1.2460    0.0000 N.am    1  LIG1       -0.1998
     14 C          -2.6040    0.2500    0.0000 C.3     1  LIG1        0.1388
     15 C          -3.4670   -0.2460    0.0000 C.3     1  LIG1        0.1385
     16 N          -3.4670   -1.2500    0.0000 N.am    1  LIG1       -0.2035
     17 C          -4.3170   -1.7500    0.0000 C.2     1  LIG1        0.2419
     18 O          -5.1880   -1.2500    0.0000 O.2     1  LIG1       -0.2733
     19 C          -4.3170   -2.7540    0.0000 C.3     1  LIG1        0.0964
     20 C          -0.8830    0.2500    0.0000 C.ar    1  LIG1        0.0240
     21 O           0.8580   -2.7540    0.0000 O.2     1  LIG1       -0.2444
     22 C           2.5880   -1.7580    0.0000 C.3     1  LIG1        0.1456
     23 C           3.4630   -1.2710    0.0000 C.3     1  LIG1        0.1669
     24 O           4.3130   -1.7580    0.0000 O.3     1  LIG1       -0.3490
     25 C           5.1830   -1.2710    0.0000 C.3     1  LIG1        0.1742
@<TRIPOS>BOND
     1     1     2   ar
     2     1     6   ar
     3     1    22    1
     4     2     3   ar
     5     2    21    2
     6     3     4   ar
     7     4     5   ar
     8     4    20   ar
     9     5     6   ar
    10     5     8   ar
    11     6     7    2
    12     8     9   ar
    13     9    10   ar
    14    10    11    1
    15    10    20   ar
    16    11    12    2
    17    11    13   am
    18    13    14    1
    19    14    15    1
    20    15    16    1
    21    16    17   am
    22    17    18    2
    23    17    19    1
    24    22    23    1
    25    23    24    1
    26    24    25    1
