@<TRIPOS>MOLECULE
35381_ChemDiv_A0061259
 30 33 0 0 0
SMALL
GASTEIGER
Energy = 0

@<TRIPOS>ATOM
      1 N           1.6250   -1.2540    0.0000 N.ar    1  LIG1       -0.2708
      2 C           0.7540   -1.7420    0.0000 C.ar    1  LIG1        0.1841
      3 N          -0.0960   -1.2540    0.0000 N.ar    1  LIG1       -0.2217
      4 C          -0.1170   -0.2420    0.0000 C.ar    1  LIG1        0.0881
      5 C           0.7540    0.2460    0.0000 C.ar    1  LIG1        0.0739
      6 C           1.6250   -0.2420    0.0000 C.ar    1  LIG1        0.2640
      7 O           2.4960    0.2460    0.0000 O.2     1  LIG1       -0.2669
      8 C           0.7420    1.2580    0.0000 C.ar    1  LIG1        0.0064
      9 C          -0.1170    1.7500    0.0000 C.ar    1  LIG1        0.0048
     10 C          -0.9880    1.2580    0.0000 C.ar    1  LIG1        0.0565
     11 C          -1.8580    1.7670    0.0000 C.2     1  LIG1        0.2650
     12 N          -2.7080    1.2580    0.0000 N.am    1  LIG1       -0.1955
     13 C          -2.7000    0.2670    0.0000 C.3     1  LIG1        0.1717
     14 C          -3.5670   -0.2420    0.0000 C.3     1  LIG1        0.1092
     15 N          -3.5500   -1.2330    0.0000 N.4     1  LIG1        0.3743
     16 C          -4.5000   -1.5330    0.0000 C.3     1  LIG1        0.1385
     17 C          -5.1000   -0.7540    0.0000 C.3     1  LIG1        0.0687
     18 C          -4.5080    0.0580    0.0000 C.3     1  LIG1        0.0647
     19 C          -2.7290   -1.8330    0.0000 C.3     1  LIG1        0.1385
     20 C          -1.8080   -1.4330    0.0000 C.3     1  LIG1        0.0688
     21 O          -1.8380    2.7580    0.0000 O.2     1  LIG1       -0.2684
     22 C          -0.9880    0.2460    0.0000 C.ar    1  LIG1        0.0239
     23 S           0.7540   -2.7540    0.0000 S.2     1  LIG1       -0.0109
     24 C           2.4960   -1.7630    0.0000 C.3     1  LIG1        0.1377
     25 C           3.3630   -1.2630    0.0000 C.ar    1  LIG1        0.0005
     26 C           3.3630   -0.2630    0.0000 C.ar    1  LIG1       -0.0024
     27 C           4.2330    0.2380    0.0000 C.ar    1  LIG1       -0.0003
     28 C           5.0960   -0.2630    0.0000 C.ar    1  LIG1       -0.0000
     29 C           5.0960   -1.2630    0.0000 C.ar    1  LIG1       -0.0003
     30 C           4.2250   -1.7630    0.0000 C.ar    1  LIG1       -0.0024
@<TRIPOS>BOND
     1     1     2   ar
     2     1     6   ar
     3     1    24    1
     4     2     3   ar
     5     2    23    2
     6     3     4   ar
     7     4     5   ar
     8     4    22   ar
     9     5     6   ar
    10     5     8   ar
    11     6     7    2
    12     8     9   ar
    13     9    10   ar
    14    10    11    1
    15    10    22   ar
    16    11    12   am
    17    11    21    2
    18    12    13    1
    19    13    14    1
    20    14    15    1
    21    14    18    1
    22    15    16    1
    23    15    19    1
    24    16    17    1
    25    17    18    1
    26    19    20    1
    27    24    25    1
    28    25    26   ar
    29    25    30   ar
    30    26    27   ar
    31    27    28   ar
    32    28    29   ar
    33    29    30   ar
