@<TRIPOS>MOLECULE
35382_ChemDiv_C036-1010
 28 30 0 0 0
SMALL
GASTEIGER
Energy = 0

@<TRIPOS>ATOM
      1 S          -1.1290    2.6000    0.0000 S.O2    1  LIG1        0.0692
      2 C          -1.7460    3.4130    0.0000 C.ar    1  LIG1        0.1521
      3 S          -1.3710    4.3420    0.0000 S.2     1  LIG1       -0.0604
      4 C          -2.1630    4.9790    0.0000 C.ar    1  LIG1        0.0651
      5 C          -3.0080    4.4500    0.0000 C.ar    1  LIG1        0.0152
      6 C          -2.7670    3.4710    0.0000 C.ar    1  LIG1        0.0276
      7 BR         -2.1040    5.9920    0.0000 Br      1  LIG1       -0.0419
      8 N          -0.4920    1.8040    0.0000 N.3     1  LIG1       -0.1487
      9 C           0.4920    1.8380    0.0000 C.3     1  LIG1        0.1582
     10 C           1.1460    1.0920    0.0000 C.3     1  LIG1        0.1587
     11 N           0.9540    0.1000    0.0000 N.4     1  LIG1        0.3856
     12 C           1.8420   -0.4130    0.0000 C.3     1  LIG1        0.2269
     13 C           1.8420   -1.4250    0.0000 C.2     1  LIG1        0.3033
     14 N           0.9540   -1.9330    0.0000 N.am    1  LIG1       -0.1742
     15 C           1.0580   -2.9420    0.0000 C.ar    1  LIG1        0.0733
     16 C           1.9750   -3.3790    0.0000 C.ar    1  LIG1        0.0128
     17 C           2.0710   -4.3750    0.0000 C.ar    1  LIG1       -0.0143
     18 C           1.2420   -4.9670    0.0000 C.ar    1  LIG1        0.0307
     19 C           0.3330   -4.5420    0.0000 C.ar    1  LIG1        0.0077
     20 C           0.2330   -3.5420    0.0000 C.ar    1  LIG1        0.0171
     21 BR          1.3290   -5.9920    0.0000 Br      1  LIG1       -0.0493
     22 C           3.0040   -4.7960    0.0000 C.3     1  LIG1        0.0316
     23 O           2.7290   -1.9330    0.0000 O.2     1  LIG1       -0.2665
     24 C           0.2580   -0.2920    0.0000 C.3     1  LIG1        0.1408
     25 C          -0.6710    0.1170    0.0000 C.3     1  LIG1        0.0818
     26 C          -0.9420    1.0750    0.0000 C.3     1  LIG1        0.1022
     27 O          -1.9210    1.9830    0.0000 O.2     1  LIG1       -0.1523
     28 O          -0.3250    3.2330    0.0000 O.2     1  LIG1       -0.1523
@<TRIPOS>BOND
     1     1     2    1
     2     1     8    1
     3     1    27    2
     4     1    28    2
     5     2     3   ar
     6     2     6   ar
     7     3     4   ar
     8     4     5   ar
     9     4     7    1
    10     5     6   ar
    11     8     9    1
    12     8    26    1
    13     9    10    1
    14    10    11    1
    15    11    12    1
    16    11    24    1
    17    12    13    1
    18    13    14   am
    19    13    23    2
    20    14    15    1
    21    15    16   ar
    22    15    20   ar
    23    16    17   ar
    24    17    18   ar
    25    17    22    1
    26    18    19   ar
    27    18    21    1
    28    19    20   ar
    29    24    25    1
    30    25    26    1
