@<TRIPOS>MOLECULE
35380_ChemDiv_C036-1008
 30 32 0 0 0
SMALL
GASTEIGER
Energy = 0

@<TRIPOS>ATOM
      1 S           1.6170    3.1080    0.0000 S.O2    1  LIG1        0.0692
      2 C           2.6210    3.1080    0.0000 C.ar    1  LIG1        0.1521
      3 S           3.2040    2.3210    0.0000 S.2     1  LIG1       -0.0604
      4 C           4.1460    2.6330    0.0000 C.ar    1  LIG1        0.0651
      5 C           4.1460    3.6130    0.0000 C.ar    1  LIG1        0.0152
      6 C           3.2000    3.9290    0.0000 C.ar    1  LIG1        0.0276
      7 BR          4.9630    2.0500    0.0000 Br      1  LIG1       -0.0419
      8 N           0.6130    3.0960    0.0000 N.3     1  LIG1       -0.1487
      9 C           0.2500    2.1790    0.0000 C.3     1  LIG1        0.1582
     10 C          -0.7040    1.8670    0.0000 C.3     1  LIG1        0.1587
     11 N          -1.5290    2.4250    0.0000 N.4     1  LIG1        0.3856
     12 C          -2.3960    1.9290    0.0000 C.3     1  LIG1        0.2269
     13 C          -2.3960    0.9420    0.0000 C.2     1  LIG1        0.3033
     14 N          -3.2630    0.4290    0.0000 N.am    1  LIG1       -0.1742
     15 C          -3.2460   -0.5830    0.0000 C.ar    1  LIG1        0.0735
     16 C          -2.3790   -1.0790    0.0000 C.ar    1  LIG1        0.0163
     17 C          -2.3790   -2.0790    0.0000 C.ar    1  LIG1       -0.0029
     18 C          -3.2380   -2.5830    0.0000 C.ar    1  LIG1       -0.0224
     19 C          -4.1170   -2.0790    0.0000 C.ar    1  LIG1       -0.0029
     20 C          -4.1170   -1.0830    0.0000 C.ar    1  LIG1        0.0163
     21 C          -3.2210   -3.5920    0.0000 C.3     1  LIG1        0.0223
     22 C          -4.0830   -4.1130    0.0000 C.3     1  LIG1        0.0044
     23 C          -4.9670   -3.6250    0.0000 C.3     1  LIG1        0.0003
     24 C          -2.3500   -4.0790    0.0000 C.3     1  LIG1        0.0047
     25 O          -1.5170    0.4420    0.0000 O.2     1  LIG1       -0.2665
     26 C          -1.6040    3.4330    0.0000 C.3     1  LIG1        0.1408
     27 C          -0.8880    4.0960    0.0000 C.3     1  LIG1        0.0818
     28 C           0.1080    3.9630    0.0000 C.3     1  LIG1        0.1022
     29 O           1.6040    4.1130    0.0000 O.2     1  LIG1       -0.1523
     30 O           1.6170    2.1130    0.0000 O.2     1  LIG1       -0.1523
@<TRIPOS>BOND
     1     1     2    1
     2     1     8    1
     3     1    29    2
     4     1    30    2
     5     2     3   ar
     6     2     6   ar
     7     3     4   ar
     8     4     5   ar
     9     4     7    1
    10     5     6   ar
    11     8     9    1
    12     8    28    1
    13     9    10    1
    14    10    11    1
    15    11    12    1
    16    11    26    1
    17    12    13    1
    18    13    14   am
    19    13    25    2
    20    14    15    1
    21    15    16   ar
    22    15    20   ar
    23    16    17   ar
    24    17    18   ar
    25    18    19   ar
    26    18    21    1
    27    19    20   ar
    28    21    22    1
    29    21    24    1
    30    22    23    1
    31    26    27    1
    32    27    28    1
