@<TRIPOS>MOLECULE
35384_ChemDiv_C046-0079
 37 41 0 0 0
SMALL
GASTEIGER
Energy = 0

@<TRIPOS>ATOM
      1 C           2.3040    1.7330    0.0000 C.ar    1  LIG1        0.0762
      2 C           1.4500    1.2330    0.0000 C.ar    1  LIG1        0.1164
      3 N           1.4630    0.2290    0.0000 N.ar    1  LIG1       -0.2186
      4 C           2.3210   -0.2750    0.0000 C.ar    1  LIG1        0.1817
      5 N           3.1750    0.2290    0.0000 N.ar    1  LIG1       -0.2690
      6 C           3.1750    1.2330    0.0000 C.ar    1  LIG1        0.2640
      7 O           4.0670    1.7330    0.0000 O.2     1  LIG1       -0.2669
      8 C           4.0460   -0.2750    0.0000 C.3     1  LIG1        0.1971
      9 C           4.0460   -1.3000    0.0000 C.2     1  LIG1        0.2646
     10 O           4.9170   -1.7920    0.0000 O.2     1  LIG1       -0.2712
     11 N           3.1750   -1.7920    0.0000 N.am    1  LIG1       -0.2033
     12 C           2.3040   -1.3000    0.0000 C.3     1  LIG1        0.1248
     13 C           1.4500   -1.7920    0.0000 C.3     1  LIG1        0.1086
     14 C           0.5790   -1.2790    0.0000 C.2     1  LIG1        0.2274
     15 N          -0.2880   -1.7920    0.0000 N.am    1  LIG1       -0.2790
     16 C          -0.2880   -2.7960    0.0000 C.3     1  LIG1        0.0997
     17 C          -1.1580   -3.2920    0.0000 C.3     1  LIG1        0.0819
     18 C          -2.0080   -2.7960    0.0000 C.3     1  LIG1        0.1216
     19 N          -2.9960   -2.5250    0.0000 N.4     1  LIG1        0.3754
     20 C          -3.7170   -3.2130    0.0000 C.3     1  LIG1        0.1386
     21 C          -4.6580   -2.9330    0.0000 C.3     1  LIG1        0.0629
     22 C          -4.9210   -1.9920    0.0000 C.3     1  LIG1        0.0123
     23 C          -4.1960   -1.2790    0.0000 C.3     1  LIG1        0.0629
     24 C          -3.2380   -1.5710    0.0000 C.3     1  LIG1        0.1386
     25 C          -2.5420   -3.6670    0.0000 C.2     1  LIG1        0.3061
     26 O          -3.5380   -3.6380    0.0000 O.2     1  LIG1       -0.2657
     27 N          -2.0290   -4.5290    0.0000 N.am    1  LIG1       -0.0830
     28 C          -2.0290   -1.7920    0.0000 C.3     1  LIG1        0.0819
     29 C          -1.1580   -1.3000    0.0000 C.3     1  LIG1        0.0997
     30 O           0.5790   -0.2830    0.0000 O.2     1  LIG1       -0.2748
     31 S           0.7080    1.8920    0.0000 S.2     1  LIG1       -0.0725
     32 C           1.1210    2.7960    0.0000 C.ar    1  LIG1        0.0049
     33 C           2.0920    2.7040    0.0000 C.ar    1  LIG1       -0.0136
     34 C           2.6670    3.5170    0.0000 C.3     1  LIG1        0.0268
     35 C           2.2460    4.4380    0.0000 C.3     1  LIG1        0.0050
     36 C           1.2710    4.5290    0.0000 C.3     1  LIG1        0.0055
     37 C           0.6960    3.7000    0.0000 C.3     1  LIG1        0.0327
@<TRIPOS>BOND
     1     1     2   ar
     2     1     6   ar
     3     1    33   ar
     4     2     3   ar
     5     2    31   ar
     6     3     4   ar
     7     4     5   ar
     8     5     6   ar
     9     5     8    1
    10     6     7    2
    11     8     9    1
    12     9    10    2
    13     9    11   am
    14    11    12    1
    15    12    13    1
    16    13    14    1
    17    14    15   am
    18    14    30    2
    19    15    16    1
    20    15    29    1
    21    16    17    1
    22    17    18    1
    23    18    19    1
    24    18    25    1
    25    18    28    1
    26    19    20    1
    27    19    24    1
    28    20    21    1
    29    21    22    1
    30    22    23    1
    31    23    24    1
    32    25    26    2
    33    25    27   am
    34    28    29    1
    35    31    32   ar
    36    32    33   ar
    37    32    37    1
    38    33    34    1
    39    34    35    1
    40    35    36    1
    41    36    37    1
