@<TRIPOS>MOLECULE
35383_ChemDiv_A0061287
 33 36 0 0 0
SMALL
GASTEIGER
Energy = 0

@<TRIPOS>ATOM
      1 N           2.6130   -1.9130    0.0000 N.ar    1  LIG1       -0.2708
      2 C           1.7540   -2.4130    0.0000 C.ar    1  LIG1        0.1841
      3 N           0.8880   -1.9130    0.0000 N.ar    1  LIG1       -0.2217
      4 C           0.8790   -0.9040    0.0000 C.ar    1  LIG1        0.0881
      5 C           1.7380   -0.4040    0.0000 C.ar    1  LIG1        0.0739
      6 C           2.6130   -0.9040    0.0000 C.ar    1  LIG1        0.2640
      7 O           3.5000   -0.4040    0.0000 O.2     1  LIG1       -0.2669
      8 C           1.7330    0.6040    0.0000 C.ar    1  LIG1        0.0064
      9 C           0.8630    1.1040    0.0000 C.ar    1  LIG1        0.0048
     10 C           0.0040    0.6040    0.0000 C.ar    1  LIG1        0.0569
     11 C          -0.8710    1.1250    0.0000 C.2     1  LIG1        0.2691
     12 N          -1.7380    0.6080    0.0000 N.am    1  LIG1       -0.1724
     13 C          -2.6210    1.1040    0.0000 C.ar    1  LIG1        0.1076
     14 C          -3.4790    0.5750    0.0000 C.ar    1  LIG1        0.0243
     15 C          -4.3580    1.0580    0.0000 C.ar    1  LIG1        0.0582
     16 C          -5.2290    0.5460    0.0000 C.2     1  LIG1        0.2842
     17 O          -6.1040    1.0290    0.0000 O.2     1  LIG1       -0.2667
     18 N          -5.2040   -0.4670    0.0000 N.am    1  LIG1       -0.0837
     19 C          -4.3880    2.0580    0.0000 C.ar    1  LIG1        0.0078
     20 C          -3.5330    2.5790    0.0000 C.ar    1  LIG1        0.0384
     21 C          -2.6420    2.1040    0.0000 C.ar    1  LIG1        0.1539
     22 O          -1.7750    2.6250    0.0000 O.3     1  LIG1       -0.4701
     23 C          -1.7750    3.4250    0.0000 C.3     1  LIG1        0.2525
     24 O          -0.8630    2.1170    0.0000 O.2     1  LIG1       -0.2680
     25 C           0.0040   -0.4040    0.0000 C.ar    1  LIG1        0.0239
     26 S           1.7540   -3.4210    0.0000 S.2     1  LIG1       -0.0109
     27 C           3.4880   -2.4250    0.0000 C.3     1  LIG1        0.1377
     28 C           4.3630   -1.9250    0.0000 C.ar    1  LIG1        0.0005
     29 C           5.2290   -2.4250    0.0000 C.ar    1  LIG1       -0.0024
     30 C           6.1040   -1.9250    0.0000 C.ar    1  LIG1       -0.0003
     31 C           6.1040   -0.9170    0.0000 C.ar    1  LIG1       -0.0000
     32 C           5.2380   -0.4170    0.0000 C.ar    1  LIG1       -0.0003
     33 C           4.3750   -0.9170    0.0000 C.ar    1  LIG1       -0.0024
@<TRIPOS>BOND
     1     1     2   ar
     2     1     6   ar
     3     1    27    1
     4     2     3   ar
     5     2    26    2
     6     3     4   ar
     7     4     5   ar
     8     4    25   ar
     9     5     6   ar
    10     5     8   ar
    11     6     7    2
    12     8     9   ar
    13     9    10   ar
    14    10    11    1
    15    10    25   ar
    16    11    12   am
    17    11    24    2
    18    12    13    1
    19    13    14   ar
    20    13    21   ar
    21    14    15   ar
    22    15    16    1
    23    15    19   ar
    24    16    17    2
    25    16    18   am
    26    19    20   ar
    27    20    21   ar
    28    21    22    1
    29    22    23    1
    30    27    28    1
    31    28    29   ar
    32    28    33   ar
    33    29    30   ar
    34    30    31   ar
    35    31    32   ar
    36    32    33   ar
