@<TRIPOS>MOLECULE
35393_ChemDiv_8017-7416
 12 12 0 0 0
SMALL
GASTEIGER
Energy = 0

@<TRIPOS>ATOM
      1 C          -0.0540   -0.6580    0.0000 C.ar    1  LIG1        0.1362
      2 C          -0.3710    0.2960    0.0000 C.ar    1  LIG1        0.0377
      3 C           0.1330    1.1580    0.0000 C.2     1  LIG1        0.0746
      4 O           1.1330    1.1580    0.0000 O.co2   1  LIG1       -0.5445
      5 O          -0.3710    2.0250    0.0000 O.co2   1  LIG1       -0.5445
      6 C          -1.3710    0.2960    0.0000 C.ar    1  LIG1        0.0099
      7 C          -1.6830   -0.6580    0.0000 C.ar    1  LIG1        0.0368
      8 S          -0.8710   -1.2460    0.0000 S.2     1  LIG1       -0.0682
      9 S           0.8080   -1.1580    0.0000 S.O2    1  LIG1        0.0161
     10 O           0.3080   -2.0210    0.0000 O.2     1  LIG1       -0.1681
     11 O           1.3080   -0.2960    0.0000 O.2     1  LIG1       -0.1681
     12 C           1.6790   -1.6580    0.0000 C.3     1  LIG1        0.1822
@<TRIPOS>BOND
     1     1     2   ar
     2     1     8   ar
     3     1     9    1
     4     2     3    1
     5     2     6   ar
     6     3     4   ar
     7     3     5   ar
     8     6     7   ar
     9     7     8   ar
    10     9    10    2
    11     9    11    2
    12     9    12    1
