@<TRIPOS>MOLECULE
35394_ChemDiv_C066-1255
 35 38 0 0 0
SMALL
GASTEIGER
Energy = 0

@<TRIPOS>ATOM
      1 S          -4.3330   -0.2460    0.0000 S.O2    1  LIG1        0.0633
      2 N          -5.2000    0.2580    0.0000 N.3     1  LIG1       -0.1555
      3 C          -5.2000    1.2540    0.0000 C.3     1  LIG1        0.0958
      4 C          -6.0630    1.7540    0.0000 C.3     1  LIG1        0.0192
      5 C          -6.9250    1.2670    0.0000 C.3     1  LIG1        0.0029
      6 C          -6.9380    0.2670    0.0000 C.3     1  LIG1        0.0192
      7 C          -6.0750   -0.2420    0.0000 C.3     1  LIG1        0.0958
      8 C          -7.7960    1.7670    0.0000 C.3     1  LIG1        0.0001
      9 C          -3.4670   -0.7630    0.0000 C.ar    1  LIG1        0.1224
     10 C          -2.5960   -0.2630    0.0000 C.ar    1  LIG1        0.0262
     11 C          -1.7330   -0.7630    0.0000 C.ar    1  LIG1        0.0752
     12 C          -0.8750   -0.2630    0.0000 C.ar    1  LIG1        0.2638
     13 N          -0.0040   -0.7630    0.0000 N.ar    1  LIG1       -0.2691
     14 C          -0.0040   -1.7580    0.0000 C.ar    1  LIG1        0.1812
     15 N          -0.8750   -2.2540    0.0000 N.ar    1  LIG1       -0.2252
     16 C          -1.7330   -1.7580    0.0000 C.ar    1  LIG1        0.0877
     17 C          -2.5960   -2.2540    0.0000 C.ar    1  LIG1        0.0207
     18 C          -3.4670   -1.7580    0.0000 C.ar    1  LIG1        0.0215
     19 C           0.8630   -0.2460    0.0000 C.3     1  LIG1        0.1956
     20 C           1.7290   -0.7460    0.0000 C.2     1  LIG1        0.2489
     21 N           2.5920   -0.2460    0.0000 N.am    1  LIG1       -0.2779
     22 C           2.5920    0.7500    0.0000 C.3     1  LIG1        0.0940
     23 C           3.4500    1.2500    0.0000 C.3     1  LIG1        0.0326
     24 C           4.3210    0.7500    0.0000 C.3     1  LIG1        0.1025
     25 C           5.1920    1.2670    0.0000 C.2     1  LIG1        0.3165
     26 O           5.1920    2.2580    0.0000 O.2     1  LIG1       -0.2501
     27 O           6.0670    0.7670    0.0000 O.3     1  LIG1       -0.4485
     28 C           6.9250    1.2670    0.0000 C.3     1  LIG1        0.2086
     29 C           7.7960    0.7710    0.0000 C.3     1  LIG1        0.0513
     30 C           4.3210   -0.2460    0.0000 C.3     1  LIG1        0.0326
     31 C           3.4500   -0.7460    0.0000 C.3     1  LIG1        0.0940
     32 O           1.7380   -1.7420    0.0000 O.2     1  LIG1       -0.2728
     33 O          -0.8750    0.7380    0.0000 O.2     1  LIG1       -0.2669
     34 O          -4.8420   -1.1210    0.0000 O.2     1  LIG1       -0.1528
     35 O          -3.8290    0.6170    0.0000 O.2     1  LIG1       -0.1528
@<TRIPOS>BOND
     1     1     2    1
     2     1     9    1
     3     1    34    2
     4     1    35    2
     5     2     3    1
     6     2     7    1
     7     3     4    1
     8     4     5    1
     9     5     6    1
    10     5     8    1
    11     6     7    1
    12     9    10   ar
    13     9    18   ar
    14    10    11   ar
    15    11    12   ar
    16    11    16   ar
    17    12    13   ar
    18    12    33    2
    19    13    14   ar
    20    13    19    1
    21    14    15   ar
    22    15    16   ar
    23    16    17   ar
    24    17    18   ar
    25    19    20    1
    26    20    21   am
    27    20    32    2
    28    21    22    1
    29    21    31    1
    30    22    23    1
    31    23    24    1
    32    24    25    1
    33    24    30    1
    34    25    26    2
    35    25    27    1
    36    27    28    1
    37    28    29    1
    38    30    31    1
