@<TRIPOS>MOLECULE
35391_ChemDiv_C260-1988
 35 39 0 0 0
SMALL
GASTEIGER
Energy = 0

@<TRIPOS>ATOM
      1 N           0.4380    1.2130    0.0000 N.ar    1  LIG1       -0.2445
      2 C           0.4380    0.2170    0.0000 C.ar    1  LIG1        0.3344
      3 N          -0.4330   -0.2830    0.0000 N.ar    1  LIG1       -0.2721
      4 C          -1.2920    0.2170    0.0000 C.ar    1  LIG1        0.0689
      5 C          -1.2920    1.2130    0.0000 C.ar    1  LIG1        0.0722
      6 C          -0.4330    1.7130    0.0000 C.ar    1  LIG1        0.2658
      7 O          -0.4330    2.7130    0.0000 O.2     1  LIG1       -0.2668
      8 C          -2.1580    1.7130    0.0000 C.ar    1  LIG1        0.0062
      9 C          -3.0290    1.2130    0.0000 C.ar    1  LIG1        0.0003
     10 C          -3.0290    0.2170    0.0000 C.ar    1  LIG1        0.0015
     11 C          -2.1580   -0.2830    0.0000 C.ar    1  LIG1        0.0175
     12 C          -0.4330   -1.2790    0.0000 C.3     1  LIG1        0.1959
     13 C           0.4290   -1.7790    0.0000 C.2     1  LIG1        0.2526
     14 N           0.4290   -2.7790    0.0000 N.am    1  LIG1       -0.2571
     15 C           1.2920   -3.2790    0.0000 C.ar    1  LIG1        0.0535
     16 C           1.2920   -4.2880    0.0000 C.ar    1  LIG1        0.0106
     17 C           2.1580   -4.7880    0.0000 C.ar    1  LIG1       -0.0206
     18 C           3.0250   -4.2880    0.0000 C.ar    1  LIG1       -0.0042
     19 C           3.0250   -3.2790    0.0000 C.ar    1  LIG1        0.0010
     20 C           2.1580   -2.7790    0.0000 C.ar    1  LIG1        0.0149
     21 C           2.1580   -5.7880    0.0000 C.3     1  LIG1        0.0311
     22 C          -0.4330   -3.2790    0.0000 C.3     1  LIG1        0.0983
     23 C          -1.3040   -2.7880    0.0000 C.3     1  LIG1        0.0237
     24 O           1.2920   -1.2790    0.0000 O.2     1  LIG1       -0.2724
     25 O           1.3080   -0.2920    0.0000 O.2     1  LIG1       -0.2462
     26 C           1.3080    1.7130    0.0000 C.3     1  LIG1        0.1404
     27 C           1.3170    2.7130    0.0000 C.ar    1  LIG1        0.0038
     28 C           2.1750    3.2130    0.0000 C.ar    1  LIG1        0.0378
     29 C           2.1750    4.2130    0.0000 C.ar    1  LIG1        0.1762
     30 C           1.3170    4.7130    0.0000 C.ar    1  LIG1        0.1764
     31 O           1.5250    5.6920    0.0000 O.3     1  LIG1       -0.4346
     32 C           2.5250    5.7880    0.0000 C.3     1  LIG1        0.4294
     33 O           2.9290    4.8880    0.0000 O.3     1  LIG1       -0.4346
     34 C           0.4500    4.2130    0.0000 C.ar    1  LIG1        0.0399
     35 C           0.4500    3.2130    0.0000 C.ar    1  LIG1        0.0009
@<TRIPOS>BOND
     1     1     2   ar
     2     1     6   ar
     3     1    26    1
     4     2     3   ar
     5     2    25    2
     6     3     4   ar
     7     3    12    1
     8     4     5   ar
     9     4    11   ar
    10     5     6   ar
    11     5     8   ar
    12     6     7    2
    13     8     9   ar
    14     9    10   ar
    15    10    11   ar
    16    12    13    1
    17    13    14   am
    18    13    24    2
    19    14    15    1
    20    14    22    1
    21    15    16   ar
    22    15    20   ar
    23    16    17   ar
    24    17    18   ar
    25    17    21    1
    26    18    19   ar
    27    19    20   ar
    28    22    23    1
    29    26    27    1
    30    27    28   ar
    31    27    35   ar
    32    28    29   ar
    33    29    30   ar
    34    29    33    1
    35    30    31    1
    36    30    34   ar
    37    31    32    1
    38    32    33    1
    39    34    35   ar
