@<TRIPOS>MOLECULE
35395_ChemDiv_8017-7455
 28 31 0 0 0
SMALL
GASTEIGER
Energy = 0

@<TRIPOS>ATOM
      1 C           4.3790    0.5500    0.0000 C.ar    1  LIG1        0.1765
      2 C           4.3920   -0.4420    0.0000 C.ar    1  LIG1        0.0430
      3 C           3.5290   -0.9540    0.0000 C.ar    1  LIG1        0.0380
      4 C           3.5420   -1.9540    0.0000 C.2     1  LIG1        0.1749
      5 O           4.4130   -2.4420    0.0000 O.2     1  LIG1       -0.2913
      6 C           2.6790   -2.4630    0.0000 C.3     1  LIG1        0.0924
      7 C           1.8130   -1.9670    0.0000 C.3     1  LIG1        0.1203
      8 N           0.9500   -2.4790    0.0000 N.pl3   1  LIG1       -0.2371
      9 C           0.0790   -1.9790    0.0000 C.ar    1  LIG1        0.0655
     10 C           0.0670   -0.9790    0.0000 C.ar    1  LIG1        0.0192
     11 C          -0.8000   -0.4880    0.0000 C.ar    1  LIG1        0.0382
     12 C          -1.6580   -0.9920    0.0000 C.ar    1  LIG1        0.1391
     13 O          -2.5210   -0.5000    0.0000 O.3     1  LIG1       -0.4706
     14 C          -2.5210    0.4960    0.0000 C.3     1  LIG1        0.2320
     15 C          -3.3880    0.9960    0.0000 C.ar    1  LIG1        0.0212
     16 C          -4.2580    0.4960    0.0000 C.ar    1  LIG1       -0.0007
     17 C          -5.1210    0.9960    0.0000 C.ar    1  LIG1       -0.0002
     18 C          -5.1210    1.9960    0.0000 C.ar    1  LIG1       -0.0000
     19 C          -4.2580    2.4960    0.0000 C.ar    1  LIG1       -0.0002
     20 C          -3.3960    2.0000    0.0000 C.ar    1  LIG1       -0.0007
     21 C          -1.6580   -1.9920    0.0000 C.ar    1  LIG1        0.0382
     22 C          -0.7830   -2.4920    0.0000 C.ar    1  LIG1        0.0192
     23 C           2.6540   -0.4670    0.0000 C.ar    1  LIG1        0.0062
     24 C           2.6420    0.5330    0.0000 C.ar    1  LIG1        0.0403
     25 C           3.5040    1.0460    0.0000 C.ar    1  LIG1        0.1764
     26 O           3.7130    2.0250    0.0000 O.3     1  LIG1       -0.4346
     27 C           4.7040    2.1420    0.0000 C.3     1  LIG1        0.4294
     28 O           5.1170    1.2250    0.0000 O.3     1  LIG1       -0.4346
@<TRIPOS>BOND
     1     1     2   ar
     2     1    25   ar
     3     1    28    1
     4     2     3   ar
     5     3     4    1
     6     3    23   ar
     7     4     5    2
     8     4     6    1
     9     6     7    1
    10     7     8    1
    11     8     9    1
    12     9    10   ar
    13     9    22   ar
    14    10    11   ar
    15    11    12   ar
    16    12    13    1
    17    12    21   ar
    18    13    14    1
    19    14    15    1
    20    15    16   ar
    21    15    20   ar
    22    16    17   ar
    23    17    18   ar
    24    18    19   ar
    25    19    20   ar
    26    21    22   ar
    27    23    24   ar
    28    24    25   ar
    29    25    26    1
    30    26    27    1
    31    27    28    1
