@<TRIPOS>MOLECULE
35399_ChemDiv_8017-7471
 23 26 0 0 0
SMALL
GASTEIGER
Energy = 0

@<TRIPOS>ATOM
      1 S          -1.6580    0.5830    0.0000 S.O2    1  LIG1        0.0634
      2 C          -0.7750    0.0710    0.0000 C.ar    1  LIG1        0.1220
      3 C           0.1040    0.5830    0.0000 C.ar    1  LIG1        0.0210
      4 C           0.9790    0.0750    0.0000 C.ar    1  LIG1        0.0131
      5 C           0.9790   -0.9500    0.0000 C.ar    1  LIG1        0.0583
      6 N           1.8630   -1.4540    0.0000 N.ar    1  LIG1       -0.2955
      7 C           2.7460   -0.9500    0.0000 C.ar    1  LIG1        0.2606
      8 C           2.7460    0.0710    0.0000 C.ar    1  LIG1        0.0565
      9 C           1.8670    0.5880    0.0000 C.ar    1  LIG1       -0.0157
     10 C           1.8670    1.6080    0.0000 C.3     1  LIG1        0.0312
     11 O           3.6250   -1.4630    0.0000 O.2     1  LIG1       -0.2670
     12 C           1.8540   -2.4710    0.0000 C.3     1  LIG1        0.1137
     13 C           0.1040   -2.4750    0.0000 C.3     1  LIG1        0.0524
     14 C           0.1040   -1.4540    0.0000 C.ar    1  LIG1       -0.0030
     15 C          -0.7830   -0.9500    0.0000 C.ar    1  LIG1        0.0171
     16 N          -2.2500    1.1330    0.0000 N.3     1  LIG1       -0.1504
     17 C          -2.0750    1.9330    0.0000 C.3     1  LIG1        0.1279
     18 C          -2.6710    2.4790    0.0000 C.3     1  LIG1        0.1613
     19 O          -3.4540    2.2380    0.0000 O.3     1  LIG1       -0.3507
     20 C          -3.6290    1.4380    0.0000 C.3     1  LIG1        0.1613
     21 C          -3.0290    0.8830    0.0000 C.3     1  LIG1        0.1279
     22 O          -0.9580    1.3330    0.0000 O.2     1  LIG1       -0.1528
     23 O          -2.4540   -0.3250    0.0000 O.2     1  LIG1       -0.1528
@<TRIPOS>BOND
     1     1     2    1
     2     1    16    1
     3     1    22    2
     4     1    23    2
     5     2     3   ar
     6     2    15   ar
     7     3     4   ar
     8     4     5   ar
     9     4     9   ar
    10     5     6   ar
    11     5    14   ar
    12     6     7   ar
    13     6    12    1
    14     7     8   ar
    15     7    11    2
    16     8     9   ar
    17     9    10    1
    18    12    13    1
    19    13    14    1
    20    14    15   ar
    21    16    17    1
    22    16    21    1
    23    17    18    1
    24    18    19    1
    25    19    20    1
    26    20    21    1
