@<TRIPOS>MOLECULE
35390_ChemDiv_C060-0075
 30 32 0 0 0
SMALL
GASTEIGER
Energy = 0

@<TRIPOS>ATOM
      1 C          -3.4420   -2.5330    0.0000 C.ar    1  LIG1        0.0762
      2 C          -3.4420   -3.5330    0.0000 C.ar    1  LIG1        0.1164
      3 N          -2.5790   -4.0330    0.0000 N.ar    1  LIG1       -0.2186
      4 C          -1.7080   -3.5330    0.0000 C.ar    1  LIG1        0.1817
      5 N          -1.7080   -2.5330    0.0000 N.ar    1  LIG1       -0.2690
      6 C          -2.5790   -2.0330    0.0000 C.ar    1  LIG1        0.2640
      7 O          -2.5790   -1.0380    0.0000 O.2     1  LIG1       -0.2669
      8 C          -0.8420   -2.0330    0.0000 C.3     1  LIG1        0.1971
      9 C          -0.8290   -1.0380    0.0000 C.2     1  LIG1        0.2646
     10 O          -1.7040   -0.5380    0.0000 O.2     1  LIG1       -0.2712
     11 N           0.0330   -0.5380    0.0000 N.am    1  LIG1       -0.2038
     12 C           0.0330    0.4710    0.0000 C.3     1  LIG1        0.1157
     13 C           0.8960    0.9710    0.0000 C.3     1  LIG1        0.0330
     14 C           0.8960    1.9710    0.0000 C.3     1  LIG1        0.0886
     15 C           1.7580    2.4670    0.0000 C.2     1  LIG1        0.2416
     16 N           2.6080    1.9710    0.0000 N.am    1  LIG1       -0.1993
     17 C           3.5000    2.4830    0.0000 C.3     1  LIG1        0.1714
     18 C           4.3790    2.0000    0.0000 C.3     1  LIG1        0.1092
     19 N           5.2830    2.4130    0.0000 N.4     1  LIG1        0.3743
     20 C           5.9630    1.6830    0.0000 C.3     1  LIG1        0.1385
     21 C           5.4670    0.8080    0.0000 C.3     1  LIG1        0.0687
     22 C           4.5000    1.0000    0.0000 C.3     1  LIG1        0.0647
     23 C           5.4630    3.4040    0.0000 C.3     1  LIG1        0.1385
     24 C           4.6960    4.0330    0.0000 C.3     1  LIG1        0.0688
     25 O           1.7580    3.4710    0.0000 O.2     1  LIG1       -0.2733
     26 S          -4.3830   -3.8380    0.0000 S.2     1  LIG1       -0.0725
     27 C          -4.9710   -3.0380    0.0000 C.ar    1  LIG1        0.0053
     28 C          -4.3830   -2.2210    0.0000 C.ar    1  LIG1       -0.0132
     29 C          -4.6960   -1.2670    0.0000 C.3     1  LIG1        0.0314
     30 C          -5.9670   -3.0380    0.0000 C.3     1  LIG1        0.0379
@<TRIPOS>BOND
     1     1     2   ar
     2     1     6   ar
     3     1    28   ar
     4     2     3   ar
     5     2    26   ar
     6     3     4   ar
     7     4     5   ar
     8     5     6   ar
     9     5     8    1
    10     6     7    2
    11     8     9    1
    12     9    10    2
    13     9    11   am
    14    11    12    1
    15    12    13    1
    16    13    14    1
    17    14    15    1
    18    15    16   am
    19    15    25    2
    20    16    17    1
    21    17    18    1
    22    18    19    1
    23    18    22    1
    24    19    20    1
    25    19    23    1
    26    20    21    1
    27    21    22    1
    28    23    24    1
    29    26    27   ar
    30    27    28   ar
    31    27    30    1
    32    28    29    1
