@<TRIPOS>MOLECULE
35397_ChemDiv_8017-7465
 23 26 0 0 0
SMALL
GASTEIGER
Energy = 0

@<TRIPOS>ATOM
      1 N          -2.0710    0.1130    0.0000 N.ar    1  LIG1       -0.2407
      2 C          -1.2000    0.6130    0.0000 C.ar    1  LIG1        0.1364
      3 C          -0.3250    0.1210    0.0000 C.2     1  LIG1        0.2867
      4 N           0.5420    0.6210    0.0000 N.am    1  LIG1       -0.1742
      5 C           1.4040    0.1330    0.0000 C.ar    1  LIG1        0.0735
      6 C           2.2750    0.6330    0.0000 C.ar    1  LIG1        0.0161
      7 C           3.1380    0.1330    0.0000 C.ar    1  LIG1        0.0288
      8 C           3.1420   -0.8580    0.0000 C.ar    1  LIG1        0.0753
      9 C           4.0880   -1.1670    0.0000 C.2     1  LIG1        0.3413
     10 O           4.6670   -0.3580    0.0000 O.3     1  LIG1       -0.4404
     11 C           4.0790    0.4460    0.0000 C.3     1  LIG1        0.2356
     12 O           4.4040   -2.1170    0.0000 O.2     1  LIG1       -0.2449
     13 C           2.2750   -1.3710    0.0000 C.ar    1  LIG1        0.0076
     14 C           1.4040   -0.8710    0.0000 C.ar    1  LIG1        0.0168
     15 O          -0.3210   -0.8830    0.0000 O.2     1  LIG1       -0.2663
     16 C          -1.2080    1.6210    0.0000 C.ar    1  LIG1        0.0238
     17 C          -2.0750    2.1210    0.0000 C.ar    1  LIG1        0.0032
     18 C          -2.9380    1.6130    0.0000 C.ar    1  LIG1        0.0177
     19 C          -2.9380    0.6080    0.0000 C.ar    1  LIG1        0.0814
     20 C          -3.8080    0.1080    0.0000 C.ar    1  LIG1        0.0191
     21 C          -4.6710    0.6080    0.0000 C.ar    1  LIG1        0.0015
     22 C          -4.6710    1.6080    0.0000 C.ar    1  LIG1        0.0001
     23 C          -3.8080    2.1130    0.0000 C.ar    1  LIG1        0.0015
@<TRIPOS>BOND
     1     1     2   ar
     2     1    19   ar
     3     2     3    1
     4     2    16   ar
     5     3     4   am
     6     3    15    2
     7     4     5    1
     8     5     6   ar
     9     5    14   ar
    10     6     7   ar
    11     7     8   ar
    12     7    11    1
    13     8     9    1
    14     8    13   ar
    15     9    10    1
    16     9    12    2
    17    10    11    1
    18    13    14   ar
    19    16    17   ar
    20    17    18   ar
    21    18    19   ar
    22    18    23   ar
    23    19    20   ar
    24    20    21   ar
    25    21    22   ar
    26    22    23   ar
