@<TRIPOS>MOLECULE
35409_ChemDiv_C260-1989
 34 38 0 0 0
SMALL
GASTEIGER
Energy = 0

@<TRIPOS>ATOM
      1 N           0.4330    0.7170    0.0000 N.ar    1  LIG1       -0.2445
      2 C           0.4330   -0.2830    0.0000 C.ar    1  LIG1        0.3344
      3 N          -0.4330   -0.7830    0.0000 N.ar    1  LIG1       -0.2721
      4 C          -1.2960   -0.2830    0.0000 C.ar    1  LIG1        0.0689
      5 C          -1.2960    0.7170    0.0000 C.ar    1  LIG1        0.0722
      6 C          -0.4330    1.2170    0.0000 C.ar    1  LIG1        0.2658
      7 O          -0.4330    2.2130    0.0000 O.2     1  LIG1       -0.2668
      8 C          -2.1580    1.2170    0.0000 C.ar    1  LIG1        0.0062
      9 C          -3.0250    0.7170    0.0000 C.ar    1  LIG1        0.0003
     10 C          -3.0250   -0.2830    0.0000 C.ar    1  LIG1        0.0015
     11 C          -2.1580   -0.7830    0.0000 C.ar    1  LIG1        0.0175
     12 C          -0.4330   -1.7830    0.0000 C.3     1  LIG1        0.1959
     13 C           0.4330   -2.2830    0.0000 C.2     1  LIG1        0.2526
     14 N           0.4330   -3.2790    0.0000 N.am    1  LIG1       -0.2571
     15 C           1.2920   -3.7790    0.0000 C.ar    1  LIG1        0.0539
     16 C           1.2920   -4.7880    0.0000 C.ar    1  LIG1        0.0149
     17 C           2.1540   -5.2880    0.0000 C.ar    1  LIG1        0.0013
     18 C           3.0210   -4.7880    0.0000 C.ar    1  LIG1        0.0001
     19 C           3.0210   -3.7790    0.0000 C.ar    1  LIG1        0.0013
     20 C           2.1540   -3.2790    0.0000 C.ar    1  LIG1        0.0149
     21 C          -0.4330   -3.7790    0.0000 C.3     1  LIG1        0.0983
     22 C          -1.3000   -3.2920    0.0000 C.3     1  LIG1        0.0237
     23 O           1.2920   -1.7830    0.0000 O.2     1  LIG1       -0.2724
     24 O           1.3080   -0.7920    0.0000 O.2     1  LIG1       -0.2462
     25 C           1.3080    1.2170    0.0000 C.3     1  LIG1        0.1404
     26 C           1.3080    2.2130    0.0000 C.ar    1  LIG1        0.0038
     27 C           2.1790    2.7130    0.0000 C.ar    1  LIG1        0.0378
     28 C           2.1790    3.7290    0.0000 C.ar    1  LIG1        0.1762
     29 C           1.3210    4.2130    0.0000 C.ar    1  LIG1        0.1764
     30 O           1.5210    5.1920    0.0000 O.3     1  LIG1       -0.4346
     31 C           2.5210    5.2880    0.0000 C.3     1  LIG1        0.4294
     32 O           2.9290    4.3880    0.0000 O.3     1  LIG1       -0.4346
     33 C           0.4460    3.7290    0.0000 C.ar    1  LIG1        0.0399
     34 C           0.4460    2.7130    0.0000 C.ar    1  LIG1        0.0009
@<TRIPOS>BOND
     1     1     2   ar
     2     1     6   ar
     3     1    25    1
     4     2     3   ar
     5     2    24    2
     6     3     4   ar
     7     3    12    1
     8     4     5   ar
     9     4    11   ar
    10     5     6   ar
    11     5     8   ar
    12     6     7    2
    13     8     9   ar
    14     9    10   ar
    15    10    11   ar
    16    12    13    1
    17    13    14   am
    18    13    23    2
    19    14    15    1
    20    14    21    1
    21    15    16   ar
    22    15    20   ar
    23    16    17   ar
    24    17    18   ar
    25    18    19   ar
    26    19    20   ar
    27    21    22    1
    28    25    26    1
    29    26    27   ar
    30    26    34   ar
    31    27    28   ar
    32    28    29   ar
    33    28    32    1
    34    29    30    1
    35    29    33   ar
    36    30    31    1
    37    31    32    1
    38    33    34   ar
