@<TRIPOS>MOLECULE
35403_ChemDiv_8017-7486
 32 35 0 0 0
SMALL
GASTEIGER
Energy = 0

@<TRIPOS>ATOM
      1 N           0.0000   -1.6420    0.0000 N.ar    1  LIG1       -0.3137
      2 C           0.8630   -1.1380    0.0000 C.ar    1  LIG1        0.0630
      3 C           0.8630   -0.1380    0.0000 C.ar    1  LIG1        0.0031
      4 C           0.0040    0.3580    0.0000 C.3     1  LIG1        0.0736
      5 C           0.0000    1.3580    0.0000 C.ar    1  LIG1        0.0635
      6 C          -0.8670    1.8580    0.0000 C.ar    1  LIG1        0.0171
      7 C          -1.7290    1.3540    0.0000 C.ar    1  LIG1        0.0412
      8 C          -2.5960    1.8540    0.0000 C.ar    1  LIG1        0.1724
      9 C          -2.5960    2.8580    0.0000 C.ar    1  LIG1        0.1724
     10 C          -1.7290    3.3540    0.0000 C.ar    1  LIG1        0.0401
     11 C          -0.8670    2.8670    0.0000 C.ar    1  LIG1        0.0059
     12 C          -0.0040    3.3670    0.0000 C.ar    1  LIG1        0.0208
     13 C           0.8630    2.8710    0.0000 C.ar    1  LIG1        0.0985
     14 N           0.8670    1.8670    0.0000 N.ar    1  LIG1       -0.2478
     15 O          -3.4580    3.3540    0.0000 O.3     1  LIG1       -0.4684
     16 C          -4.3290    2.8580    0.0000 C.3     1  LIG1        0.2526
     17 O          -3.4580    1.3540    0.0000 O.3     1  LIG1       -0.4684
     18 C          -3.4580    0.3540    0.0000 C.3     1  LIG1        0.2526
     19 C           1.7250    0.3580    0.0000 C.ar    1  LIG1        0.0376
     20 C           2.5920   -0.1290    0.0000 C.ar    1  LIG1        0.1722
     21 C           2.5920   -1.1290    0.0000 C.ar    1  LIG1        0.1738
     22 C           1.7290   -1.6380    0.0000 C.ar    1  LIG1        0.0572
     23 O           3.4540   -1.6290    0.0000 O.3     1  LIG1       -0.4683
     24 C           4.3250   -1.1250    0.0000 C.3     1  LIG1        0.2526
     25 O           3.4420    0.3710    0.0000 O.3     1  LIG1       -0.4684
     26 C           3.4420    1.3710    0.0000 C.3     1  LIG1        0.2526
     27 C          -0.8670   -1.1380    0.0000 C.ar    1  LIG1        0.0414
     28 C          -1.6170   -1.8040    0.0000 C.ar    1  LIG1        0.0142
     29 C          -1.2040   -2.7250    0.0000 C.ar    1  LIG1        0.0142
     30 C          -0.2040   -2.6170    0.0000 C.ar    1  LIG1        0.0414
     31 C           0.4540   -3.3630    0.0000 C.3     1  LIG1        0.0504
     32 C          -0.9710   -0.1420    0.0000 C.3     1  LIG1        0.0504
@<TRIPOS>BOND
     1     1     2    1
     2     1    27   ar
     3     1    30   ar
     4     2     3   ar
     5     2    22   ar
     6     3     4    1
     7     3    19   ar
     8     4     5    1
     9     5     6   ar
    10     5    14   ar
    11     6     7   ar
    12     6    11   ar
    13     7     8   ar
    14     8     9   ar
    15     8    17    1
    16     9    10   ar
    17     9    15    1
    18    10    11   ar
    19    11    12   ar
    20    12    13   ar
    21    13    14   ar
    22    15    16    1
    23    17    18    1
    24    19    20   ar
    25    20    21   ar
    26    20    25    1
    27    21    22   ar
    28    21    23    1
    29    23    24    1
    30    25    26    1
    31    27    28   ar
    32    27    32    1
    33    28    29   ar
    34    29    30   ar
    35    30    31    1
