@<TRIPOS>MOLECULE
35407_ChemDiv_8017-7531
 14 15 0 0 0
SMALL
GASTEIGER
Energy = 0

@<TRIPOS>ATOM
      1 N          -1.3790   -0.9040    0.0000 N.ar    1  LIG1       -0.2079
      2 N          -1.5080   -1.9170    0.0000 N.ar    1  LIG1       -0.1409
      3 C          -2.4670   -2.0920    0.0000 C.ar    1  LIG1        0.2214
      4 N          -2.9790   -1.2380    0.0000 N.ar    1  LIG1       -0.2004
      5 C          -2.2830   -0.4920    0.0000 C.ar    1  LIG1        0.2016
      6 C          -0.5170   -0.4040    0.0000 C.ar    1  LIG1        0.0846
      7 C          -0.5170    0.5830    0.0000 C.ar    1  LIG1        0.0191
      8 C           0.3420    1.0830    0.0000 C.ar    1  LIG1        0.0033
      9 C           1.2040    0.5830    0.0000 C.ar    1  LIG1        0.0445
     10 C           1.2040   -0.4040    0.0000 C.ar    1  LIG1        0.0033
     11 C           0.3420   -0.9040    0.0000 C.ar    1  LIG1        0.0191
     12 C           2.0920    1.1000    0.0000 C.3     1  LIG1        0.2719
     13 N           2.9750    0.5830    0.0000 N.4     1  LIG1        0.5948
     14 C           2.0920    2.0960    0.0000 C.3     1  LIG1        0.0856
@<TRIPOS>BOND
     1     1     2   ar
     2     1     5   ar
     3     1     6    1
     4     2     3   ar
     5     3     4   ar
     6     4     5   ar
     7     6     7   ar
     8     6    11   ar
     9     7     8   ar
    10     8     9   ar
    11     9    10   ar
    12     9    12    1
    13    10    11   ar
    14    12    13    1
    15    12    14    1
