@<TRIPOS>MOLECULE
35401_ChemDiv_8017-7477
 24 27 0 0 0
SMALL
GASTEIGER
Energy = 0

@<TRIPOS>ATOM
      1 S          -1.2420    1.6210    0.0000 S.O2    1  LIG1        0.0634
      2 N          -1.8540    2.1920    0.0000 N.3     1  LIG1       -0.1504
      3 C          -1.6580    3.0130    0.0000 C.3     1  LIG1        0.1279
      4 C          -2.2710    3.5920    0.0000 C.3     1  LIG1        0.1613
      5 O          -3.0790    3.3500    0.0000 O.3     1  LIG1       -0.3507
      6 C          -3.2790    2.5290    0.0000 C.3     1  LIG1        0.1613
      7 C          -2.6670    1.9540    0.0000 C.3     1  LIG1        0.1279
      8 C          -0.3330    1.0960    0.0000 C.ar    1  LIG1        0.1223
      9 C          -0.3420    0.0460    0.0000 C.ar    1  LIG1        0.0214
     10 C           0.5670   -0.4670    0.0000 C.ar    1  LIG1        0.0192
     11 C           0.5670   -1.5040    0.0000 C.ar    1  LIG1        0.0061
     12 C           1.4630   -2.0380    0.0000 C.ar    1  LIG1        0.0579
     13 C           2.3670   -1.5170    0.0000 C.ar    1  LIG1        0.2791
     14 N           2.3790   -0.4670    0.0000 N.ar    1  LIG1       -0.2079
     15 C           1.4750    0.0460    0.0000 C.ar    1  LIG1        0.0846
     16 C           1.4750    1.1040    0.0000 C.ar    1  LIG1        0.0206
     17 C           0.5670    1.6210    0.0000 C.ar    1  LIG1        0.0215
     18 O           3.2750   -2.0500    0.0000 O.2     1  LIG1       -0.2652
     19 C           1.4540   -3.0750    0.0000 C.ar    1  LIG1        0.0048
     20 C           0.5540   -3.5880    0.0000 C.ar    1  LIG1        0.0002
     21 C          -0.3460   -3.0540    0.0000 C.ar    1  LIG1        0.0000
     22 C          -0.3420   -2.0170    0.0000 C.ar    1  LIG1        0.0002
     23 O          -0.5210    2.4040    0.0000 O.2     1  LIG1       -0.1528
     24 O          -2.0670    0.6920    0.0000 O.2     1  LIG1       -0.1528
@<TRIPOS>BOND
     1     1     2    1
     2     1     8    1
     3     1    23    2
     4     1    24    2
     5     2     3    1
     6     2     7    1
     7     3     4    1
     8     4     5    1
     9     5     6    1
    10     6     7    1
    11     8     9   ar
    12     8    17   ar
    13     9    10   ar
    14    10    11   ar
    15    10    15   ar
    16    11    12   ar
    17    11    22   ar
    18    12    13   ar
    19    12    19   ar
    20    13    14   ar
    21    13    18    2
    22    14    15   ar
    23    15    16   ar
    24    16    17   ar
    25    19    20   ar
    26    20    21   ar
    27    21    22   ar
