@<TRIPOS>MOLECULE
35405_ChemDiv_8017-7530
 13 14 0 0 0
SMALL
GASTEIGER
Energy = 0

@<TRIPOS>ATOM
      1 N          -0.8710    0.7250    0.0000 N.ar    1  LIG1       -0.2080
      2 N          -0.0330    1.2830    0.0000 N.ar    1  LIG1       -0.1409
      3 C          -0.2830    2.2250    0.0000 C.ar    1  LIG1        0.2214
      4 N          -1.2960    2.2750    0.0000 N.ar    1  LIG1       -0.2004
      5 C          -1.6580    1.3630    0.0000 C.ar    1  LIG1        0.2016
      6 C          -0.8710   -0.2710    0.0000 C.ar    1  LIG1        0.0867
      7 C           0.0000   -0.7710    0.0000 C.ar    1  LIG1        0.0691
      8 C           0.8670   -0.2710    0.0000 C.3     1  LIG1        0.3446
      9 N           1.7290   -0.7710    0.0000 N.4     1  LIG1        0.6018
     10 C           0.0000   -1.7920    0.0000 C.ar    1  LIG1        0.0035
     11 C          -0.8710   -2.2710    0.0000 C.ar    1  LIG1       -0.0000
     12 C          -1.7330   -1.7920    0.0000 C.ar    1  LIG1        0.0015
     13 C          -1.7330   -0.7710    0.0000 C.ar    1  LIG1        0.0191
@<TRIPOS>BOND
     1     1     2   ar
     2     1     5   ar
     3     1     6    1
     4     2     3   ar
     5     3     4   ar
     6     4     5   ar
     7     6     7   ar
     8     6    13   ar
     9     7     8    1
    10     7    10   ar
    11     8     9    1
    12    10    11   ar
    13    11    12   ar
    14    12    13   ar
