@<TRIPOS>MOLECULE
35411_ChemDiv_C487-0383
 37 41 0 0 0
SMALL
GASTEIGER
Energy = 0

@<TRIPOS>ATOM
      1 N           2.6670    0.3210    0.0000 N.ar    1  LIG1       -0.2445
      2 C           2.6670   -0.6880    0.0000 C.ar    1  LIG1        0.3345
      3 N           1.7960   -1.1880    0.0000 N.ar    1  LIG1       -0.2703
      4 C           0.9290   -0.6880    0.0000 C.ar    1  LIG1        0.0691
      5 C           0.9290    0.3210    0.0000 C.ar    1  LIG1        0.0722
      6 C           1.7960    0.8210    0.0000 C.ar    1  LIG1        0.2658
      7 O           1.7960    1.8290    0.0000 O.2     1  LIG1       -0.2668
      8 C           0.0580    0.8210    0.0000 C.ar    1  LIG1        0.0063
      9 C          -0.8250    0.3210    0.0000 C.ar    1  LIG1        0.0048
     10 C          -0.8250   -0.6880    0.0000 C.ar    1  LIG1        0.0565
     11 C          -1.6960   -1.2000    0.0000 C.2     1  LIG1        0.2648
     12 N          -2.5790   -0.6960    0.0000 N.am    1  LIG1       -0.2034
     13 C          -3.4460   -1.2040    0.0000 C.3     1  LIG1        0.0956
     14 C          -4.3170   -0.7000    0.0000 C.3     1  LIG1        0.0217
     15 C          -5.1830   -1.2040    0.0000 C.3     1  LIG1        0.0018
     16 C          -5.1830   -2.2080    0.0000 C.3     1  LIG1        0.0001
     17 C          -4.3170   -2.7130    0.0000 C.3     1  LIG1        0.0018
     18 C          -3.4460   -2.2080    0.0000 C.3     1  LIG1        0.0217
     19 O          -1.6960   -2.2040    0.0000 O.2     1  LIG1       -0.2684
     20 C           0.0580   -1.1880    0.0000 C.ar    1  LIG1        0.0220
     21 C           1.7960   -1.9040    0.0000 C.3     1  LIG1        0.2200
     22 C           2.6670   -2.4080    0.0000 C.2     1  LIG1        0.3405
     23 O           3.5330   -1.9040    0.0000 O.2     1  LIG1       -0.2479
     24 O           2.6670   -3.4130    0.0000 O.3     1  LIG1       -0.4472
     25 C           3.5330   -3.9170    0.0000 C.3     1  LIG1        0.2086
     26 C           3.5330   -4.9250    0.0000 C.3     1  LIG1        0.0513
     27 O           3.5500   -1.2000    0.0000 O.2     1  LIG1       -0.2462
     28 C           3.5500    0.8210    0.0000 C.3     1  LIG1        0.1404
     29 C           3.5500    1.8290    0.0000 C.ar    1  LIG1        0.0038
     30 C           4.4170    2.3290    0.0000 C.ar    1  LIG1        0.0378
     31 C           4.4170    3.3420    0.0000 C.ar    1  LIG1        0.1762
     32 C           3.5500    3.8460    0.0000 C.ar    1  LIG1        0.1764
     33 O           3.7630    4.8250    0.0000 O.3     1  LIG1       -0.4346
     34 C           4.7670    4.9250    0.0000 C.3     1  LIG1        0.4294
     35 O           5.1790    4.0170    0.0000 O.3     1  LIG1       -0.4346
     36 C           2.6790    3.3420    0.0000 C.ar    1  LIG1        0.0399
     37 C           2.6790    2.3290    0.0000 C.ar    1  LIG1        0.0009
@<TRIPOS>BOND
     1     1     2   ar
     2     1     6   ar
     3     1    28    1
     4     2     3   ar
     5     2    27    2
     6     3     4   ar
     7     3    21    1
     8     4     5   ar
     9     4    20   ar
    10     5     6   ar
    11     5     8   ar
    12     6     7    2
    13     8     9   ar
    14     9    10   ar
    15    10    11    1
    16    10    20   ar
    17    11    12   am
    18    11    19    2
    19    12    13    1
    20    13    14    1
    21    13    18    1
    22    14    15    1
    23    15    16    1
    24    16    17    1
    25    17    18    1
    26    21    22    1
    27    22    23    2
    28    22    24    1
    29    24    25    1
    30    25    26    1
    31    28    29    1
    32    29    30   ar
    33    29    37   ar
    34    30    31   ar
    35    31    32   ar
    36    31    35    1
    37    32    33    1
    38    32    36   ar
    39    33    34    1
    40    34    35    1
    41    36    37   ar
