@<TRIPOS>MOLECULE
35414_ChemDiv_K889-1599
 27 29 0 0 0
SMALL
GASTEIGER
Energy = 0

@<TRIPOS>ATOM
      1 C           1.4500    3.4380    0.0000 C.ar    1  LIG1        0.0762
      2 C           0.5830    3.9290    0.0000 C.ar    1  LIG1        0.1164
      3 N          -0.2830    3.4380    0.0000 N.ar    1  LIG1       -0.2186
      4 C          -0.2830    2.4380    0.0000 C.ar    1  LIG1        0.1817
      5 N           0.5830    1.9330    0.0000 N.ar    1  LIG1       -0.2690
      6 C           1.4500    2.4380    0.0000 C.ar    1  LIG1        0.2640
      7 O           2.3170    1.9330    0.0000 O.2     1  LIG1       -0.2669
      8 C           0.5830    0.9170    0.0000 C.3     1  LIG1        0.1971
      9 C          -0.2830    0.4130    0.0000 C.2     1  LIG1        0.2650
     10 N          -0.2830   -0.5920    0.0000 N.am    1  LIG1       -0.1938
     11 C          -1.1500   -1.0790    0.0000 C.3     1  LIG1        0.2014
     12 C          -1.1500   -2.0790    0.0000 C.2     1  LIG1        0.2634
     13 N          -2.0170   -2.5750    0.0000 N.am    1  LIG1       -0.2057
     14 C          -2.0170   -3.6080    0.0000 C.3     1  LIG1        0.0954
     15 C          -2.9630   -4.0710    0.0000 C.3     1  LIG1        0.0217
     16 C          -3.1750   -5.1210    0.0000 C.3     1  LIG1        0.0018
     17 C          -2.4750   -5.8670    0.0000 C.3     1  LIG1        0.0001
     18 C          -1.5920   -5.7580    0.0000 C.3     1  LIG1        0.0001
     19 C          -0.9750   -4.9170    0.0000 C.3     1  LIG1        0.0018
     20 C          -1.1080   -4.0540    0.0000 C.3     1  LIG1        0.0217
     21 O          -0.2830   -2.5790    0.0000 O.2     1  LIG1       -0.2714
     22 O          -1.1500    0.9170    0.0000 O.2     1  LIG1       -0.2712
     23 S           0.7960    4.8960    0.0000 S.2     1  LIG1       -0.0725
     24 C           1.7880    5.0040    0.0000 C.ar    1  LIG1        0.0053
     25 C           2.1920    4.0920    0.0000 C.ar    1  LIG1       -0.0132
     26 C           3.1710    3.8920    0.0000 C.3     1  LIG1        0.0314
     27 C           2.2880    5.8670    0.0000 C.3     1  LIG1        0.0379
@<TRIPOS>BOND
     1     1     2   ar
     2     1     6   ar
     3     1    25   ar
     4     2     3   ar
     5     2    23   ar
     6     3     4   ar
     7     4     5   ar
     8     5     6   ar
     9     5     8    1
    10     6     7    2
    11     8     9    1
    12     9    10   am
    13     9    22    2
    14    10    11    1
    15    11    12    1
    16    12    13   am
    17    12    21    2
    18    13    14    1
    19    14    15    1
    20    14    20    1
    21    15    16    1
    22    16    17    1
    23    17    18    1
    24    18    19    1
    25    19    20    1
    26    23    24   ar
    27    24    25   ar
    28    24    27    1
    29    25    26    1
