@<TRIPOS>MOLECULE
35416_ChemDiv_C046-0350
 27 29 0 0 0
SMALL
GASTEIGER
Energy = 0

@<TRIPOS>ATOM
      1 N           2.3380   -0.4960    0.0000 N.ar    1  LIG1       -0.2690
      2 C           2.3380    0.4960    0.0000 C.ar    1  LIG1        0.2638
      3 C           1.4710    1.0080    0.0000 C.ar    1  LIG1        0.0739
      4 C           0.6170    0.4960    0.0000 C.ar    1  LIG1        0.0876
      5 N           0.6290   -0.4960    0.0000 N.ar    1  LIG1       -0.2252
      6 C           1.4880   -1.0080    0.0000 C.ar    1  LIG1        0.1812
      7 C          -0.2500    1.0080    0.0000 C.ar    1  LIG1        0.0193
      8 C          -0.2500    2.0000    0.0000 C.ar    1  LIG1        0.0015
      9 C           0.6000    2.5080    0.0000 C.ar    1  LIG1        0.0003
     10 C           1.4710    2.0000    0.0000 C.ar    1  LIG1        0.0063
     11 O           3.2290    1.0080    0.0000 O.2     1  LIG1       -0.2669
     12 C           3.2080   -1.0080    0.0000 C.3     1  LIG1        0.1971
     13 C           3.2080   -1.9960    0.0000 C.2     1  LIG1        0.2646
     14 O           4.0790   -2.5040    0.0000 O.2     1  LIG1       -0.2712
     15 N           2.3380   -2.5040    0.0000 N.am    1  LIG1       -0.2033
     16 C           1.4710   -1.9960    0.0000 C.3     1  LIG1        0.1248
     17 C           0.6170   -2.5040    0.0000 C.3     1  LIG1        0.1102
     18 C          -0.2500   -1.9960    0.0000 C.2     1  LIG1        0.2431
     19 N          -1.1130   -2.5040    0.0000 N.am    1  LIG1       -0.2071
     20 C          -1.9790   -1.9960    0.0000 C.3     1  LIG1        0.0953
     21 C          -1.8330   -1.0080    0.0000 C.3     1  LIG1        0.0217
     22 C          -2.5250   -0.2830    0.0000 C.3     1  LIG1        0.0018
     23 C          -3.5130   -0.3750    0.0000 C.3     1  LIG1        0.0001
     24 C          -4.0830   -1.1830    0.0000 C.3     1  LIG1        0.0001
     25 C          -3.7830   -2.1250    0.0000 C.3     1  LIG1        0.0018
     26 C          -2.8500   -2.5040    0.0000 C.3     1  LIG1        0.0217
     27 O          -0.2500   -1.0080    0.0000 O.2     1  LIG1       -0.2733
@<TRIPOS>BOND
     1     1     2   ar
     2     1     6   ar
     3     1    12    1
     4     2     3   ar
     5     2    11    2
     6     3     4   ar
     7     3    10   ar
     8     4     5   ar
     9     4     7   ar
    10     5     6   ar
    11     7     8   ar
    12     8     9   ar
    13     9    10   ar
    14    12    13    1
    15    13    14    2
    16    13    15   am
    17    15    16    1
    18    16    17    1
    19    17    18    1
    20    18    19   am
    21    18    27    2
    22    19    20    1
    23    20    21    1
    24    20    26    1
    25    21    22    1
    26    22    23    1
    27    23    24    1
    28    24    25    1
    29    25    26    1
