@<TRIPOS>MOLECULE
35419_ChemDiv_E243-0053
 27 31 0 0 0
SMALL
GASTEIGER
Energy = 0

@<TRIPOS>ATOM
      1 C          -1.0880   -2.3580    0.0000 C.ar    1  LIG1        0.2186
      2 C          -1.4000   -1.4170    0.0000 C.ar    1  LIG1        0.1251
      3 N          -0.7330   -0.6750    0.0000 N.ar    1  LIG1       -0.2220
      4 C           0.2460   -0.8750    0.0000 C.ar    1  LIG1        0.1814
      5 N           0.5540   -1.8290    0.0000 N.ar    1  LIG1       -0.2665
      6 C          -0.1130   -2.5710    0.0000 C.ar    1  LIG1        0.2986
      7 O           0.2000   -3.5210    0.0000 O.2     1  LIG1       -0.2635
      8 C           1.5380   -2.0250    0.0000 C.3     1  LIG1        0.1976
      9 C           2.2040   -1.2830    0.0000 C.2     1  LIG1        0.2688
     10 N           1.8790   -0.3500    0.0000 N.am    1  LIG1       -0.1775
     11 C           2.5380    0.4000    0.0000 C.ar    1  LIG1        0.0767
     12 C           2.2130    1.3460    0.0000 C.ar    1  LIG1        0.0568
     13 C           2.8710    2.1000    0.0000 C.ar    1  LIG1        0.1777
     14 C           3.8540    1.9130    0.0000 C.ar    1  LIG1        0.1765
     15 O           4.3460    2.7830    0.0000 O.3     1  LIG1       -0.4346
     16 C           3.6540    3.5250    0.0000 C.3     1  LIG1        0.4294
     17 O           2.7460    3.1000    0.0000 O.3     1  LIG1       -0.4346
     18 C           4.1790    0.9630    0.0000 C.ar    1  LIG1        0.0415
     19 C           3.5210    0.2080    0.0000 C.ar    1  LIG1        0.0199
     20 O           3.1830   -1.4830    0.0000 O.2     1  LIG1       -0.2709
     21 C          -2.4000   -1.4170    0.0000 C.ar    1  LIG1        0.0554
     22 C          -2.7080   -2.3710    0.0000 C.ar    1  LIG1        0.1471
     23 O          -1.9000   -2.9500    0.0000 O.2     1  LIG1       -0.4471
     24 C          -3.6830   -2.5710    0.0000 C.ar    1  LIG1        0.0375
     25 C          -4.3500   -1.8290    0.0000 C.ar    1  LIG1        0.0031
     26 C          -4.0500   -0.8750    0.0000 C.ar    1  LIG1        0.0003
     27 C          -3.0670   -0.6750    0.0000 C.ar    1  LIG1        0.0046
@<TRIPOS>BOND
     1     1     2   ar
     2     1     6   ar
     3     1    23   ar
     4     2     3   ar
     5     2    21   ar
     6     3     4   ar
     7     4     5   ar
     8     5     6   ar
     9     5     8    1
    10     6     7    2
    11     8     9    1
    12     9    10   am
    13     9    20    2
    14    10    11    1
    15    11    12   ar
    16    11    19   ar
    17    12    13   ar
    18    13    14   ar
    19    13    17    1
    20    14    15    1
    21    14    18   ar
    22    15    16    1
    23    16    17    1
    24    18    19   ar
    25    21    22   ar
    26    21    27   ar
    27    22    23   ar
    28    22    24   ar
    29    24    25   ar
    30    25    26   ar
    31    26    27   ar
