@<TRIPOS>MOLECULE
35418_ChemDiv_C046-0399
 30 32 0 0 0
SMALL
GASTEIGER
Energy = 0

@<TRIPOS>ATOM
      1 N           3.6710    0.3080    0.0000 N.ar    1  LIG1       -0.2690
      2 C           3.6710    1.3040    0.0000 C.ar    1  LIG1        0.2638
      3 C           2.8000    1.8130    0.0000 C.ar    1  LIG1        0.0739
      4 C           1.9500    1.3040    0.0000 C.ar    1  LIG1        0.0876
      5 N           1.9630    0.3080    0.0000 N.ar    1  LIG1       -0.2252
      6 C           2.8210   -0.2000    0.0000 C.ar    1  LIG1        0.1812
      7 C           1.0790    1.8130    0.0000 C.ar    1  LIG1        0.0193
      8 C           1.0790    2.8040    0.0000 C.ar    1  LIG1        0.0015
      9 C           1.9290    3.3170    0.0000 C.ar    1  LIG1        0.0003
     10 C           2.8000    2.8040    0.0000 C.ar    1  LIG1        0.0063
     11 O           4.5580    1.8130    0.0000 O.2     1  LIG1       -0.2669
     12 C           4.5420   -0.2000    0.0000 C.3     1  LIG1        0.1971
     13 C           4.5420   -1.1920    0.0000 C.2     1  LIG1        0.2646
     14 O           5.4130   -1.7000    0.0000 O.2     1  LIG1       -0.2712
     15 N           3.6710   -1.7000    0.0000 N.am    1  LIG1       -0.2033
     16 C           2.8000   -1.1920    0.0000 C.3     1  LIG1        0.1248
     17 C           1.9500   -1.7000    0.0000 C.3     1  LIG1        0.1102
     18 C           1.0790   -1.1920    0.0000 C.2     1  LIG1        0.2432
     19 O           1.0790   -0.2000    0.0000 O.2     1  LIG1       -0.2733
     20 N           0.2170   -1.7000    0.0000 N.am    1  LIG1       -0.2052
     21 C          -0.6500   -1.1920    0.0000 C.3     1  LIG1        0.1213
     22 C          -1.5250   -1.7000    0.0000 C.3     1  LIG1        0.0861
     23 C          -2.3960   -1.1920    0.0000 C.3     1  LIG1        0.1404
     24 N          -3.2460   -1.7000    0.0000 N.4     1  LIG1        0.3773
     25 C          -4.0460   -1.0710    0.0000 C.3     1  LIG1        0.1385
     26 C          -4.9880   -1.2920    0.0000 C.3     1  LIG1        0.0627
     27 C          -5.4170   -2.1750    0.0000 C.3     1  LIG1        0.0063
     28 C          -4.9790   -3.0920    0.0000 C.3     1  LIG1        0.0063
     29 C          -4.0170   -3.3130    0.0000 C.3     1  LIG1        0.0627
     30 C          -3.2380   -2.6830    0.0000 C.3     1  LIG1        0.1385
@<TRIPOS>BOND
     1     1     2   ar
     2     1     6   ar
     3     1    12    1
     4     2     3   ar
     5     2    11    2
     6     3     4   ar
     7     3    10   ar
     8     4     5   ar
     9     4     7   ar
    10     5     6   ar
    11     7     8   ar
    12     8     9   ar
    13     9    10   ar
    14    12    13    1
    15    13    14    2
    16    13    15   am
    17    15    16    1
    18    16    17    1
    19    17    18    1
    20    18    19    2
    21    18    20   am
    22    20    21    1
    23    21    22    1
    24    22    23    1
    25    23    24    1
    26    24    25    1
    27    24    30    1
    28    25    26    1
    29    26    27    1
    30    27    28    1
    31    28    29    1
    32    29    30    1
