@<TRIPOS>MOLECULE
35412_ChemDiv_K889-1569
 31 33 0 0 0
SMALL
GASTEIGER
Energy = 0

@<TRIPOS>ATOM
      1 C           1.4630    4.7540    0.0000 C.ar    1  LIG1        0.0762
      2 C           0.5960    5.2460    0.0000 C.ar    1  LIG1        0.1164
      3 N          -0.2750    4.7540    0.0000 N.ar    1  LIG1       -0.2186
      4 C          -0.2750    3.7580    0.0000 C.ar    1  LIG1        0.1817
      5 N           0.5960    3.2580    0.0000 N.ar    1  LIG1       -0.2690
      6 C           1.4630    3.7580    0.0000 C.ar    1  LIG1        0.2640
      7 O           2.3290    3.2580    0.0000 O.2     1  LIG1       -0.2669
      8 C           0.5960    2.2380    0.0000 C.3     1  LIG1        0.1971
      9 C          -0.2750    1.7330    0.0000 C.2     1  LIG1        0.2650
     10 N          -0.2750    0.7290    0.0000 N.am    1  LIG1       -0.1938
     11 C          -1.1420    0.2420    0.0000 C.3     1  LIG1        0.2018
     12 C          -1.1420   -0.7580    0.0000 C.2     1  LIG1        0.2694
     13 N          -2.0080   -1.2540    0.0000 N.am    1  LIG1       -0.1528
     14 C          -2.0080   -2.2500    0.0000 C.ar    1  LIG1        0.1857
     15 N          -2.8460   -2.7380    0.0000 N.ar    1  LIG1       -0.2267
     16 C          -2.5880   -3.7670    0.0000 C.ar    1  LIG1        0.0736
     17 C          -1.6040   -3.8170    0.0000 C.ar    1  LIG1        0.1212
     18 S          -1.2040   -2.8750    0.0000 S.2     1  LIG1       -0.0436
     19 C          -1.1000   -4.6830    0.0000 C.2     1  LIG1        0.3486
     20 O          -0.0790   -4.6540    0.0000 O.2     1  LIG1       -0.2443
     21 O          -1.6460   -5.4920    0.0000 O.3     1  LIG1       -0.4451
     22 C          -1.2330   -6.3750    0.0000 C.3     1  LIG1        0.2089
     23 C          -1.7670   -7.1920    0.0000 C.3     1  LIG1        0.0513
     24 C          -3.1880   -4.5460    0.0000 C.3     1  LIG1        0.0529
     25 O          -0.2750   -1.2580    0.0000 O.2     1  LIG1       -0.2710
     26 O          -1.1420    2.2380    0.0000 O.2     1  LIG1       -0.2712
     27 S           0.8080    6.2210    0.0000 S.2     1  LIG1       -0.0725
     28 C           1.7960    6.3290    0.0000 C.ar    1  LIG1        0.0053
     29 C           2.2040    5.4170    0.0000 C.ar    1  LIG1       -0.0132
     30 C           3.1830    5.2130    0.0000 C.3     1  LIG1        0.0314
     31 C           2.3000    7.1920    0.0000 C.3     1  LIG1        0.0379
@<TRIPOS>BOND
     1     1     2   ar
     2     1     6   ar
     3     1    29   ar
     4     2     3   ar
     5     2    27   ar
     6     3     4   ar
     7     4     5   ar
     8     5     6   ar
     9     5     8    1
    10     6     7    2
    11     8     9    1
    12     9    10   am
    13     9    26    2
    14    10    11    1
    15    11    12    1
    16    12    13   am
    17    12    25    2
    18    13    14    1
    19    14    15   ar
    20    14    18   ar
    21    15    16   ar
    22    16    17   ar
    23    16    24    1
    24    17    18   ar
    25    17    19    1
    26    19    20    2
    27    19    21    1
    28    21    22    1
    29    22    23    1
    30    27    28   ar
    31    28    29   ar
    32    28    31    1
    33    29    30    1
