@<TRIPOS>MOLECULE
35410_ChemDiv_C060-0091
 33 36 0 0 0
SMALL
GASTEIGER
Energy = 0

@<TRIPOS>ATOM
      1 C          -4.0830   -2.2500    0.0000 C.ar    1  LIG1        0.0762
      2 C          -4.0830   -3.2500    0.0000 C.ar    1  LIG1        0.1164
      3 N          -3.2210   -3.7500    0.0000 N.ar    1  LIG1       -0.2186
      4 C          -2.3500   -3.2500    0.0000 C.ar    1  LIG1        0.1817
      5 N          -2.3500   -2.2500    0.0000 N.ar    1  LIG1       -0.2690
      6 C          -3.2210   -1.7500    0.0000 C.ar    1  LIG1        0.2640
      7 O          -3.2210   -0.7540    0.0000 O.2     1  LIG1       -0.2669
      8 C          -1.4830   -1.7500    0.0000 C.3     1  LIG1        0.1971
      9 C          -1.4710   -0.7540    0.0000 C.2     1  LIG1        0.2646
     10 O          -2.3460   -0.2540    0.0000 O.2     1  LIG1       -0.2712
     11 N          -0.6080   -0.2540    0.0000 N.am    1  LIG1       -0.2038
     12 C          -0.6080    0.7540    0.0000 C.3     1  LIG1        0.1157
     13 C           0.2500    1.2540    0.0000 C.3     1  LIG1        0.0330
     14 C           0.2500    2.2500    0.0000 C.3     1  LIG1        0.0871
     15 C           1.1130    2.7500    0.0000 C.2     1  LIG1        0.2258
     16 N           1.9670    2.2500    0.0000 N.am    1  LIG1       -0.2760
     17 C           1.9670    1.2420    0.0000 C.3     1  LIG1        0.1149
     18 C           2.8420    0.7540    0.0000 C.3     1  LIG1        0.1137
     19 N           3.7170    1.2540    0.0000 N.pl3   1  LIG1       -0.2897
     20 C           4.6750    0.9960    0.0000 C.ar    1  LIG1        0.1318
     21 N           5.3830    1.7040    0.0000 N.ar    1  LIG1       -0.2292
     22 C           6.3500    1.4500    0.0000 C.ar    1  LIG1        0.1003
     23 C           6.6040    0.4710    0.0000 C.ar    1  LIG1        0.0208
     24 C           5.9000   -0.2290    0.0000 C.ar    1  LIG1        0.0045
     25 C           4.9290    0.0330    0.0000 C.ar    1  LIG1        0.0343
     26 C           3.7170    2.2500    0.0000 C.3     1  LIG1        0.1137
     27 C           2.8420    2.7500    0.0000 C.3     1  LIG1        0.1149
     28 O           1.1130    3.7540    0.0000 O.2     1  LIG1       -0.2749
     29 S          -5.0250   -3.5580    0.0000 S.2     1  LIG1       -0.0725
     30 C          -5.6130   -2.7540    0.0000 C.ar    1  LIG1        0.0053
     31 C          -5.0250   -1.9380    0.0000 C.ar    1  LIG1       -0.0132
     32 C          -5.3380   -0.9830    0.0000 C.3     1  LIG1        0.0314
     33 C          -6.6040   -2.7540    0.0000 C.3     1  LIG1        0.0379
@<TRIPOS>BOND
     1     1     2   ar
     2     1     6   ar
     3     1    31   ar
     4     2     3   ar
     5     2    29   ar
     6     3     4   ar
     7     4     5   ar
     8     5     6   ar
     9     5     8    1
    10     6     7    2
    11     8     9    1
    12     9    10    2
    13     9    11   am
    14    11    12    1
    15    12    13    1
    16    13    14    1
    17    14    15    1
    18    15    16   am
    19    15    28    2
    20    16    17    1
    21    16    27    1
    22    17    18    1
    23    18    19    1
    24    19    20    1
    25    19    26    1
    26    20    21   ar
    27    20    25   ar
    28    21    22   ar
    29    22    23   ar
    30    23    24   ar
    31    24    25   ar
    32    26    27    1
    33    29    30   ar
    34    30    31   ar
    35    30    33    1
    36    31    32    1
