@<TRIPOS>MOLECULE
35427_ChemDiv_8017-7605
 30 32 0 0 0
SMALL
GASTEIGER
Energy = 0

@<TRIPOS>ATOM
      1 C          -1.8830    1.5000    0.0000 C.ar    1  LIG1        0.2180
      2 N          -2.4500    0.7000    0.0000 N.ar    1  LIG1       -0.2923
      3 C          -3.4080    0.9960    0.0000 C.ar    1  LIG1        0.0801
      4 C          -3.4080    2.0080    0.0000 C.ar    1  LIG1        0.1000
      5 N          -2.4500    2.3080    0.0000 N.ar    1  LIG1       -0.2124
      6 C          -4.2710    2.4960    0.0000 C.ar    1  LIG1        0.0207
      7 C          -5.1330    2.0080    0.0000 C.ar    1  LIG1        0.0016
      8 C          -5.1330    0.9960    0.0000 C.ar    1  LIG1        0.0016
      9 C          -4.2710    0.5080    0.0000 C.ar    1  LIG1        0.0188
     10 C          -2.1130   -0.2670    0.0000 C.3     1  LIG1        0.1712
     11 C          -1.1330   -0.4540    0.0000 C.3     1  LIG1        0.1635
     12 N          -0.7960   -1.3920    0.0000 N.4     1  LIG1        0.3788
     13 C          -1.4330   -2.1540    0.0000 C.3     1  LIG1        0.1389
     14 C          -2.4080   -1.9790    0.0000 C.3     1  LIG1        0.0688
     15 C           0.1790   -1.5500    0.0000 C.3     1  LIG1        0.1389
     16 C           0.5250   -2.4920    0.0000 C.3     1  LIG1        0.0688
     17 N          -0.8830    1.4960    0.0000 N.pl3   1  LIG1       -0.2004
     18 C          -0.3830    0.6580    0.0000 C.3     1  LIG1        0.1417
     19 C           0.6290    0.6580    0.0000 C.ar    1  LIG1        0.0027
     20 C           1.1380   -0.2290    0.0000 C.ar    1  LIG1        0.0375
     21 C           2.1290   -0.2290    0.0000 C.ar    1  LIG1        0.1719
     22 C           2.6380    0.6580    0.0000 C.ar    1  LIG1        0.1722
     23 C           2.1290    1.5210    0.0000 C.ar    1  LIG1        0.0398
     24 C           1.1380    1.5210    0.0000 C.ar    1  LIG1        0.0008
     25 O           3.6290    0.6580    0.0000 O.3     1  LIG1       -0.4724
     26 C           4.1380   -0.2290    0.0000 C.3     1  LIG1        0.2057
     27 C           5.1290   -0.2290    0.0000 C.3     1  LIG1        0.0512
     28 O           2.6380   -1.0920    0.0000 O.3     1  LIG1       -0.4724
     29 C           3.6500   -1.0920    0.0000 C.3     1  LIG1        0.2057
     30 C           4.1380   -1.9630    0.0000 C.3     1  LIG1        0.0512
@<TRIPOS>BOND
     1     1     2   ar
     2     1     5   ar
     3     1    17    1
     4     2     3   ar
     5     2    10    1
     6     3     4   ar
     7     3     9   ar
     8     4     5   ar
     9     4     6   ar
    10     6     7   ar
    11     7     8   ar
    12     8     9   ar
    13    10    11    1
    14    11    12    1
    15    12    13    1
    16    12    15    1
    17    13    14    1
    18    15    16    1
    19    17    18    1
    20    18    19    1
    21    19    20   ar
    22    19    24   ar
    23    20    21   ar
    24    21    22   ar
    25    21    28    1
    26    22    23   ar
    27    22    25    1
    28    23    24   ar
    29    25    26    1
    30    26    27    1
    31    28    29    1
    32    29    30    1
