@<TRIPOS>MOLECULE
35425_ChemDiv_8017-7534
 14 15 0 0 0
SMALL
GASTEIGER
Energy = 0

@<TRIPOS>ATOM
      1 N          -1.3830   -0.4040    0.0000 N.ar    1  LIG1       -0.2923
      2 C          -2.2880    0.0000    0.0000 C.ar    1  LIG1        0.1247
      3 N          -2.9830   -0.7420    0.0000 N.ar    1  LIG1       -0.2290
      4 C          -2.4710   -1.5920    0.0000 C.ar    1  LIG1        0.1192
      5 C          -1.5130   -1.4170    0.0000 C.ar    1  LIG1        0.1019
      6 C          -2.4710    0.9830    0.0000 C.3     1  LIG1        0.0722
      7 C          -0.5210    0.0880    0.0000 C.ar    1  LIG1        0.0651
      8 C          -0.5210    1.0830    0.0000 C.ar    1  LIG1        0.0174
      9 C           0.3460    1.5750    0.0000 C.ar    1  LIG1        0.0035
     10 C           1.2080    1.0830    0.0000 C.ar    1  LIG1        0.0515
     11 C           1.2080    0.0880    0.0000 C.ar    1  LIG1        0.0035
     12 C           0.3460   -0.4040    0.0000 C.ar    1  LIG1        0.0174
     13 C           2.0920    1.5960    0.0000 C.3     1  LIG1        0.3431
     14 N           2.9790    1.0830    0.0000 N.4     1  LIG1        0.6017
@<TRIPOS>BOND
     1     1     2   ar
     2     1     5   ar
     3     1     7    1
     4     2     3   ar
     5     2     6    1
     6     3     4   ar
     7     4     5   ar
     8     7     8   ar
     9     7    12   ar
    10     8     9   ar
    11     9    10   ar
    12    10    11   ar
    13    10    13    1
    14    11    12   ar
    15    13    14    1
