@<TRIPOS>MOLECULE
35422_ChemDiv_C260-2391
 41 45 0 0 0
SMALL
GASTEIGER
Energy = 0

@<TRIPOS>ATOM
      1 N           0.0000   -0.0380    0.0000 N.ar    1  LIG1       -0.2487
      2 C           0.0000   -1.0330    0.0000 C.ar    1  LIG1        0.3341
      3 N          -0.8670   -1.5290    0.0000 N.ar    1  LIG1       -0.2720
      4 C          -1.7290   -1.0330    0.0000 C.ar    1  LIG1        0.0689
      5 C          -1.7290   -0.0380    0.0000 C.ar    1  LIG1        0.0722
      6 C          -0.8670    0.4670    0.0000 C.ar    1  LIG1        0.2656
      7 O          -0.8670    1.4670    0.0000 O.2     1  LIG1       -0.2668
      8 C          -2.5960    0.4670    0.0000 C.ar    1  LIG1        0.0062
      9 C          -3.4670   -0.0380    0.0000 C.ar    1  LIG1        0.0003
     10 C          -3.4670   -1.0330    0.0000 C.ar    1  LIG1        0.0015
     11 C          -2.5960   -1.5290    0.0000 C.ar    1  LIG1        0.0175
     12 C          -0.8670   -2.5290    0.0000 C.3     1  LIG1        0.1974
     13 C          -0.0130   -3.0330    0.0000 C.2     1  LIG1        0.2688
     14 N          -0.0130   -4.0290    0.0000 N.am    1  LIG1       -0.1774
     15 C           0.8540   -4.5330    0.0000 C.ar    1  LIG1        0.0795
     16 C           1.7170   -4.0290    0.0000 C.ar    1  LIG1        0.0537
     17 C           2.5920   -4.5330    0.0000 C.ar    1  LIG1        0.1431
     18 C           2.5920   -5.5330    0.0000 C.ar    1  LIG1        0.0738
     19 C           1.7170   -6.0290    0.0000 C.ar    1  LIG1        0.1431
     20 C           0.8540   -5.5330    0.0000 C.ar    1  LIG1        0.0537
     21 O           1.7170   -7.0330    0.0000 O.3     1  LIG1       -0.4713
     22 C           2.5830   -7.5290    0.0000 C.3     1  LIG1        0.2525
     23 O           3.4630   -4.0210    0.0000 O.3     1  LIG1       -0.4713
     24 C           3.4460   -3.0250    0.0000 C.3     1  LIG1        0.2525
     25 O           0.8540   -2.5290    0.0000 O.2     1  LIG1       -0.2709
     26 O           0.8710   -1.5380    0.0000 O.2     1  LIG1       -0.2462
     27 C           0.8710    0.4670    0.0000 C.3     1  LIG1        0.1135
     28 C           0.8790    1.4670    0.0000 C.3     1  LIG1        0.0229
     29 C           0.0170    1.9630    0.0000 C.3     1  LIG1        0.0024
     30 C           0.0170    2.9670    0.0000 C.3     1  LIG1        0.0092
     31 C           0.8790    3.4710    0.0000 C.3     1  LIG1        0.0782
     32 C           0.8790    4.4670    0.0000 C.2     1  LIG1        0.2408
     33 N           1.7420    4.9710    0.0000 N.am    1  LIG1       -0.2072
     34 C           1.7420    5.9500    0.0000 C.3     1  LIG1        0.0953
     35 C           2.4830    6.6330    0.0000 C.3     1  LIG1        0.0217
     36 C           2.0790    7.5290    0.0000 C.3     1  LIG1        0.0018
     37 C           1.0880    7.4380    0.0000 C.3     1  LIG1        0.0018
     38 C           0.8790    6.4540    0.0000 C.3     1  LIG1        0.0217
     39 O           0.0080    4.9710    0.0000 O.2     1  LIG1       -0.2734
     40 C           1.7420    2.9670    0.0000 C.3     1  LIG1        0.0092
     41 C           1.7420    1.9630    0.0000 C.3     1  LIG1        0.0024
@<TRIPOS>BOND
     1     1     2   ar
     2     1     6   ar
     3     1    27    1
     4     2     3   ar
     5     2    26    2
     6     3     4   ar
     7     3    12    1
     8     4     5   ar
     9     4    11   ar
    10     5     6   ar
    11     5     8   ar
    12     6     7    2
    13     8     9   ar
    14     9    10   ar
    15    10    11   ar
    16    12    13    1
    17    13    14   am
    18    13    25    2
    19    14    15    1
    20    15    16   ar
    21    15    20   ar
    22    16    17   ar
    23    17    18   ar
    24    17    23    1
    25    18    19   ar
    26    19    20   ar
    27    19    21    1
    28    21    22    1
    29    23    24    1
    30    27    28    1
    31    28    29    1
    32    28    41    1
    33    29    30    1
    34    30    31    1
    35    31    32    1
    36    31    40    1
    37    32    33   am
    38    32    39    2
    39    33    34    1
    40    34    35    1
    41    34    38    1
    42    35    36    1
    43    36    37    1
    44    37    38    1
    45    40    41    1
