@<TRIPOS>MOLECULE
35429_ChemDiv_8017-7669
 31 36 0 0 0
SMALL
GASTEIGER
Energy = 0

@<TRIPOS>ATOM
      1 C           1.4330    0.5960    0.0000 C.ar    1  LIG1        0.1343
      2 N           2.4750    0.5960    0.0000 N.ar    1  LIG1       -0.2446
      3 N           2.7960    1.5830    0.0000 N.ar    1  LIG1       -0.1735
      4 C           1.9540    2.2000    0.0000 C.ar    1  LIG1        0.0798
      5 C           1.1170    1.5830    0.0000 C.ar    1  LIG1        0.0398
      6 C           1.9460    3.2380    0.0000 C.3     1  LIG1        0.0421
      7 C           2.4670    4.1290    0.0000 C.3     1  LIG1        0.0064
      8 C           1.4210    4.1290    0.0000 C.3     1  LIG1        0.0064
      9 C           3.0830   -0.2500    0.0000 C.3     1  LIG1        0.1539
     10 C           0.8170   -0.2500    0.0000 C.2     1  LIG1        0.2864
     11 N          -0.2130   -0.1420    0.0000 N.am    1  LIG1       -0.1740
     12 C          -0.8670    0.5960    0.0000 C.ar    1  LIG1        0.0781
     13 C          -1.8250    0.3830    0.0000 C.ar    1  LIG1        0.0703
     14 C          -2.1380   -0.5500    0.0000 C.2     1  LIG1        0.2659
     15 N          -1.4750   -1.2750    0.0000 N.am    1  LIG1       -0.2050
     16 C          -1.7830   -2.2040    0.0000 C.3     1  LIG1        0.0789
     17 C          -2.3130   -1.2250    0.0000 C.3     1  LIG1        0.0200
     18 C          -2.3580   -2.2170    0.0000 C.3     1  LIG1        0.0017
     19 C          -2.9750   -2.9420    0.0000 C.3     1  LIG1        0.0001
     20 C          -2.4080   -3.8130    0.0000 C.3     1  LIG1        0.0017
     21 C          -2.3460   -2.9040    0.0000 C.3     1  LIG1        0.0200
     22 C          -1.4960   -4.1290    0.0000 C.3     1  LIG1        0.0001
     23 C          -0.8580   -3.4000    0.0000 C.3     1  LIG1        0.0017
     24 C          -0.8880   -2.4920    0.0000 C.3     1  LIG1        0.0200
     25 C          -1.3960   -2.5380    0.0000 C.3     1  LIG1        0.0001
     26 O          -3.0880   -0.7540    0.0000 O.2     1  LIG1       -0.2683
     27 C          -2.4830    1.1080    0.0000 C.ar    1  LIG1        0.0059
     28 C          -2.1830    2.0330    0.0000 C.ar    1  LIG1        0.0002
     29 C          -1.2210    2.2460    0.0000 C.ar    1  LIG1        0.0013
     30 C          -0.5710    1.5130    0.0000 C.ar    1  LIG1        0.0168
     31 O           1.2380   -1.2000    0.0000 O.2     1  LIG1       -0.2664
@<TRIPOS>BOND
     1     1     2   ar
     2     1     5   ar
     3     1    10    1
     4     2     3   ar
     5     2     9    1
     6     3     4   ar
     7     4     5   ar
     8     4     6    1
     9     6     7    1
    10     6     8    1
    11     7     8    1
    12    10    11   am
    13    10    31    2
    14    11    12    1
    15    12    13   ar
    16    12    30   ar
    17    13    14    1
    18    13    27   ar
    19    14    15   am
    20    14    26    2
    21    15    16    1
    22    16    17    1
    23    16    21    1
    24    16    24    1
    25    17    18    1
    26    18    19    1
    27    18    25    1
    28    19    20    1
    29    20    21    1
    30    20    22    1
    31    22    23    1
    32    23    24    1
    33    23    25    1
    34    27    28   ar
    35    28    29   ar
    36    29    30   ar
