@<TRIPOS>MOLECULE
35424_ChemDiv_C260-2662
 31 34 0 0 0
SMALL
GASTEIGER
Energy = 0

@<TRIPOS>ATOM
      1 N           1.3040    2.1420    0.0000 N.ar    1  LIG1       -0.2506
      2 C           1.3040    1.1420    0.0000 C.ar    1  LIG1        0.3341
      3 N           0.4330    0.6460    0.0000 N.ar    1  LIG1       -0.2719
      4 C          -0.4290    1.1420    0.0000 C.ar    1  LIG1        0.0721
      5 C          -0.4290    2.1420    0.0000 C.ar    1  LIG1        0.0754
      6 C           0.4330    2.6330    0.0000 C.ar    1  LIG1        0.2656
      7 O           0.4330    3.6330    0.0000 O.2     1  LIG1       -0.2668
      8 C          -1.2880    2.6330    0.0000 C.ar    1  LIG1        0.0462
      9 C          -2.1500    2.1420    0.0000 C.ar    1  LIG1        0.1726
     10 C          -2.1500    1.1420    0.0000 C.ar    1  LIG1        0.1738
     11 C          -1.2880    0.6460    0.0000 C.ar    1  LIG1        0.0575
     12 O          -3.0210    0.6380    0.0000 O.3     1  LIG1       -0.4683
     13 C          -3.8920    1.1420    0.0000 C.3     1  LIG1        0.2526
     14 O          -3.0210    2.6330    0.0000 O.3     1  LIG1       -0.4684
     15 C          -3.8830    2.1290    0.0000 C.3     1  LIG1        0.2526
     16 C           0.4330   -0.3540    0.0000 C.3     1  LIG1        0.1974
     17 C           1.2960   -0.8500    0.0000 C.2     1  LIG1        0.2688
     18 N           1.2960   -1.8500    0.0000 N.am    1  LIG1       -0.1776
     19 C           2.1540   -2.3540    0.0000 C.ar    1  LIG1        0.0734
     20 C           3.0170   -1.8500    0.0000 C.ar    1  LIG1        0.0166
     21 C           3.8880   -2.3540    0.0000 C.ar    1  LIG1        0.0013
     22 C           3.8880   -3.3420    0.0000 C.ar    1  LIG1        0.0001
     23 C           3.0170   -3.8500    0.0000 C.ar    1  LIG1        0.0013
     24 C           2.1540   -3.3420    0.0000 C.ar    1  LIG1        0.0166
     25 O           2.1540   -0.3540    0.0000 O.2     1  LIG1       -0.2709
     26 O           2.1750    0.6380    0.0000 O.2     1  LIG1       -0.2462
     27 C           2.1750    2.6330    0.0000 C.3     1  LIG1        0.0928
     28 C           3.0960    2.2290    0.0000 C.3     1  LIG1        0.0228
     29 C           3.7710    2.9830    0.0000 C.3     1  LIG1        0.0020
     30 C           3.2540    3.8540    0.0000 C.3     1  LIG1        0.0020
     31 C           2.2750    3.6460    0.0000 C.3     1  LIG1        0.0228
@<TRIPOS>BOND
     1     1     2   ar
     2     1     6   ar
     3     1    27    1
     4     2     3   ar
     5     2    26    2
     6     3     4   ar
     7     3    16    1
     8     4     5   ar
     9     4    11   ar
    10     5     6   ar
    11     5     8   ar
    12     6     7    2
    13     8     9   ar
    14     9    10   ar
    15     9    14    1
    16    10    11   ar
    17    10    12    1
    18    12    13    1
    19    14    15    1
    20    16    17    1
    21    17    18   am
    22    17    25    2
    23    18    19    1
    24    19    20   ar
    25    19    24   ar
    26    20    21   ar
    27    21    22   ar
    28    22    23   ar
    29    23    24   ar
    30    27    28    1
    31    27    31    1
    32    28    29    1
    33    29    30    1
    34    30    31    1
