@<TRIPOS>MOLECULE
35421_ChemDiv_E243-0070
 24 26 0 0 0
SMALL
GASTEIGER
Energy = 0

@<TRIPOS>ATOM
      1 C          -0.5380   -2.5040    0.0000 C.ar    1  LIG1        0.2186
      2 C          -0.8500   -1.5580    0.0000 C.ar    1  LIG1        0.1251
      3 N          -0.1830   -0.8170    0.0000 N.ar    1  LIG1       -0.2220
      4 C           0.7960   -1.0210    0.0000 C.ar    1  LIG1        0.1814
      5 N           1.1040   -1.9710    0.0000 N.ar    1  LIG1       -0.2665
      6 C           0.4380   -2.7130    0.0000 C.ar    1  LIG1        0.2986
      7 O           0.7500   -3.6630    0.0000 O.2     1  LIG1       -0.2635
      8 C           2.0880   -2.1710    0.0000 C.3     1  LIG1        0.1972
      9 C           2.7500   -1.4290    0.0000 C.2     1  LIG1        0.2651
     10 N           2.4330   -0.4830    0.0000 N.am    1  LIG1       -0.1917
     11 C           3.1000    0.2630    0.0000 C.3     1  LIG1        0.2240
     12 C           2.7830    1.2000    0.0000 C.2     1  LIG1        0.3394
     13 O           1.8000    1.4130    0.0000 O.2     1  LIG1       -0.2481
     14 O           3.4580    1.9580    0.0000 O.3     1  LIG1       -0.4473
     15 C           3.1290    2.9250    0.0000 C.3     1  LIG1        0.2086
     16 C           3.7960    3.6670    0.0000 C.3     1  LIG1        0.0513
     17 O           3.7290   -1.6250    0.0000 O.2     1  LIG1       -0.2712
     18 C          -1.8500   -1.5580    0.0000 C.ar    1  LIG1        0.0554
     19 C          -2.1540   -2.5130    0.0000 C.ar    1  LIG1        0.1471
     20 O          -1.3500   -3.0920    0.0000 O.2     1  LIG1       -0.4471
     21 C          -3.1330   -2.7130    0.0000 C.ar    1  LIG1        0.0375
     22 C          -3.8000   -1.9710    0.0000 C.ar    1  LIG1        0.0031
     23 C          -3.4960   -1.0210    0.0000 C.ar    1  LIG1        0.0003
     24 C          -2.5130   -0.8170    0.0000 C.ar    1  LIG1        0.0046
@<TRIPOS>BOND
     1     1     2   ar
     2     1     6   ar
     3     1    20   ar
     4     2     3   ar
     5     2    18   ar
     6     3     4   ar
     7     4     5   ar
     8     5     6   ar
     9     5     8    1
    10     6     7    2
    11     8     9    1
    12     9    10   am
    13     9    17    2
    14    10    11    1
    15    11    12    1
    16    12    13    2
    17    12    14    1
    18    14    15    1
    19    15    16    1
    20    18    19   ar
    21    18    24   ar
    22    19    20   ar
    23    19    21   ar
    24    21    22   ar
    25    22    23   ar
    26    23    24   ar
