@<TRIPOS>MOLECULE
35437_ChemDiv_8017-7859
 26 29 0 0 0
SMALL
GASTEIGER
Energy = 0

@<TRIPOS>ATOM
      1 C           0.4290   -1.2420    0.0000 C.2     1  LIG1        0.0588
      2 C           0.4290   -2.2420    0.0000 C.2     1  LIG1        0.1864
      3 C          -0.4330   -2.7420    0.0000 C.2     1  LIG1        0.2298
      4 C          -1.3000   -2.2420    0.0000 C.ar    1  LIG1        0.0451
      5 C          -1.3000   -1.2420    0.0000 C.ar    1  LIG1        0.0419
      6 C          -0.4330   -0.7420    0.0000 C.2     1  LIG1        0.1951
      7 O          -0.4330    0.2580    0.0000 O.2     1  LIG1       -0.2868
      8 C          -2.1710   -0.7420    0.0000 C.ar    1  LIG1        0.0033
      9 C          -3.0330   -1.2420    0.0000 C.ar    1  LIG1        0.0001
     10 C          -3.0330   -2.2420    0.0000 C.ar    1  LIG1        0.0001
     11 C          -2.1710   -2.7420    0.0000 C.ar    1  LIG1        0.0034
     12 O          -0.4330   -3.7420    0.0000 O.2     1  LIG1       -0.2833
     13 O           1.2920   -2.7420    0.0000 O.3     1  LIG1       -0.4210
     14 C           2.1630   -2.2420    0.0000 C.2     1  LIG1        0.3222
     15 C           2.1630   -1.2420    0.0000 C.3     1  LIG1        0.1189
     16 C           1.2920   -0.7420    0.0000 C.3     1  LIG1        0.0619
     17 C           1.2920    0.2580    0.0000 C.ar    1  LIG1       -0.0175
     18 C           0.4290    0.7580    0.0000 C.ar    1  LIG1       -0.0008
     19 C           0.4290    1.7580    0.0000 C.ar    1  LIG1        0.0366
     20 C           1.2920    2.2580    0.0000 C.ar    1  LIG1        0.1385
     21 C           2.1630    1.7580    0.0000 C.ar    1  LIG1        0.0366
     22 C           2.1630    0.7580    0.0000 C.ar    1  LIG1       -0.0008
     23 O           1.2920    3.2580    0.0000 O.3     1  LIG1       -0.4755
     24 C           0.4250    3.7460    0.0000 C.3     1  LIG1        0.2055
     25 C          -0.4380    3.2380    0.0000 C.3     1  LIG1        0.0512
     26 O           3.0290   -2.7420    0.0000 O.2     1  LIG1       -0.2497
@<TRIPOS>BOND
     1     1     2    2
     2     1     6    1
     3     1    16    1
     4     2     3    1
     5     2    13    1
     6     3     4    1
     7     3    12    2
     8     4     5   ar
     9     4    11   ar
    10     5     6    1
    11     5     8   ar
    12     6     7    2
    13     8     9   ar
    14     9    10   ar
    15    10    11   ar
    16    13    14    1
    17    14    15    1
    18    14    26    2
    19    15    16    1
    20    16    17    1
    21    17    18   ar
    22    17    22   ar
    23    18    19   ar
    24    19    20   ar
    25    20    21   ar
    26    20    23    1
    27    21    22   ar
    28    23    24    1
    29    24    25    1
