@<TRIPOS>MOLECULE
35435_ChemDiv_8017-7857
 15 18 0 0 0
SMALL
GASTEIGER
Energy = 0

@<TRIPOS>ATOM
      1 N           1.6000   -0.4670    0.0000 N.3     1  LIG1       -0.2022
      2 N           2.4000    0.9170    0.0000 N.3     1  LIG1       -0.2022
      3 C           1.6000    0.4540    0.0000 C.3     1  LIG1        0.1450
      4 C           0.8000    0.9170    0.0000 C.3     1  LIG1        0.0354
      5 C          -0.0080    0.4580    0.0000 C.3     1  LIG1        0.0058
      6 C          -0.8040    0.9330    0.0000 C.3     1  LIG1        0.0354
      7 C          -1.6040    0.4710    0.0000 C.3     1  LIG1        0.1450
      8 N          -1.6040   -0.4500    0.0000 N.3     1  LIG1       -0.2022
      9 N          -2.4040    0.9330    0.0000 N.3     1  LIG1       -0.2022
     10 C          -3.2040    0.4710    0.0000 C.3     1  LIG1        0.0917
     11 C          -3.2040   -0.4500    0.0000 C.3     1  LIG1        0.0377
     12 C          -2.4040   -0.9130    0.0000 C.3     1  LIG1        0.0917
     13 C           3.2000    0.4540    0.0000 C.3     1  LIG1        0.0917
     14 C           3.2000   -0.4670    0.0000 C.3     1  LIG1        0.0377
     15 C           2.4000   -0.9290    0.0000 C.3     1  LIG1        0.0917
@<TRIPOS>BOND
     1     1     2    1
     2     1     3    1
     3     1    15    1
     4     2     3    1
     5     2    13    1
     6     3     4    1
     7     4     5    1
     8     5     6    1
     9     6     7    1
    10     7     8    1
    11     7     9    1
    12     8     9    1
    13     8    12    1
    14     9    10    1
    15    10    11    1
    16    11    12    1
    17    13    14    1
    18    14    15    1
