@<TRIPOS>MOLECULE
35431_ChemDiv_8017-7675
 31 36 0 0 0
SMALL
GASTEIGER
Energy = 0

@<TRIPOS>ATOM
      1 C           2.4920   -1.5000    0.0000 C.ar    1  LIG1        0.1325
      2 N           3.4880   -1.5000    0.0000 N.ar    1  LIG1       -0.2447
      3 N           3.8000   -0.5500    0.0000 N.ar    1  LIG1       -0.1735
      4 C           2.9920    0.0330    0.0000 C.ar    1  LIG1        0.0795
      5 C           2.1920   -0.5500    0.0000 C.ar    1  LIG1        0.0397
      6 C           2.9920    1.0330    0.0000 C.3     1  LIG1        0.0372
      7 C           3.2880    2.0330    0.0000 C.3     1  LIG1        0.0056
      8 C           2.8670    2.9790    0.0000 C.3     1  LIG1        0.0004
      9 C           3.6500    3.6080    0.0000 C.3     1  LIG1        0.0000
     10 C           3.2670    2.5420    0.0000 C.3     1  LIG1        0.0004
     11 C           3.6670    1.6710    0.0000 C.3     1  LIG1        0.0056
     12 C           2.3630    2.4920    0.0000 C.3     1  LIG1        0.0000
     13 C           1.6170    1.9250    0.0000 C.3     1  LIG1        0.0004
     14 C           2.0040    1.0130    0.0000 C.3     1  LIG1        0.0056
     15 C           1.8880    2.9460    0.0000 C.3     1  LIG1        0.0000
     16 C           4.0790   -2.3080    0.0000 C.3     1  LIG1        0.1539
     17 C           1.9040   -2.3080    0.0000 C.2     1  LIG1        0.2665
     18 N           0.9170   -2.2000    0.0000 N.am    1  LIG1       -0.2713
     19 C           0.4920   -1.2880    0.0000 C.3     1  LIG1        0.1152
     20 C          -0.5080   -1.1790    0.0000 C.3     1  LIG1        0.1124
     21 N          -1.0960   -1.9830    0.0000 N.pl3   1  LIG1       -0.3023
     22 C          -2.0960   -1.8790    0.0000 C.ar    1  LIG1        0.0758
     23 C          -2.6750   -2.6880    0.0000 C.ar    1  LIG1        0.1533
     24 F          -2.2710   -3.6040    0.0000 F       1  LIG1       -0.2029
     25 C          -3.6750   -2.5920    0.0000 C.ar    1  LIG1        0.0309
     26 C          -4.0830   -1.6710    0.0000 C.ar    1  LIG1        0.0024
     27 C          -3.4960   -0.8500    0.0000 C.ar    1  LIG1        0.0014
     28 C          -2.4960   -0.9580    0.0000 C.ar    1  LIG1        0.0168
     29 C          -0.6960   -2.9040    0.0000 C.3     1  LIG1        0.1124
     30 C           0.3040   -3.0130    0.0000 C.3     1  LIG1        0.1152
     31 O           2.3130   -3.2210    0.0000 O.2     1  LIG1       -0.2683
@<TRIPOS>BOND
     1     1     2   ar
     2     1     5   ar
     3     1    17    1
     4     2     3   ar
     5     2    16    1
     6     3     4   ar
     7     4     5   ar
     8     4     6    1
     9     6     7    1
    10     6    11    1
    11     6    14    1
    12     7     8    1
    13     8     9    1
    14     8    15    1
    15     9    10    1
    16    10    11    1
    17    10    12    1
    18    12    13    1
    19    13    14    1
    20    13    15    1
    21    17    18   am
    22    17    31    2
    23    18    19    1
    24    18    30    1
    25    19    20    1
    26    20    21    1
    27    21    22    1
    28    21    29    1
    29    22    23   ar
    30    22    28   ar
    31    23    24    1
    32    23    25   ar
    33    25    26   ar
    34    26    27   ar
    35    27    28   ar
    36    29    30    1
