@<TRIPOS>MOLECULE
35443_ChemDiv_E545-0590
 29 33 0 0 0
SMALL
GASTEIGER
Energy = 0

@<TRIPOS>ATOM
      1 N          -0.1750    1.2540    0.0000 N.ar    1  LIG1       -0.2420
      2 C          -0.1750    0.2540    0.0000 C.ar    1  LIG1        0.3346
      3 N          -1.0500   -0.2540    0.0000 N.ar    1  LIG1       -0.2689
      4 C          -1.9170    0.2540    0.0000 C.ar    1  LIG1        0.1065
      5 C          -1.9170    1.2540    0.0000 C.ar    1  LIG1        0.2169
      6 C          -1.0580    1.7540    0.0000 C.ar    1  LIG1        0.3006
      7 O          -1.0580    2.7580    0.0000 O.2     1  LIG1       -0.2634
      8 O          -2.8710    1.5420    0.0000 O.2     1  LIG1       -0.4471
      9 C          -3.4500    0.7250    0.0000 C.ar    1  LIG1        0.1470
     10 C          -2.8540   -0.0630    0.0000 C.ar    1  LIG1        0.0536
     11 C          -3.2500   -0.9880    0.0000 C.ar    1  LIG1        0.0046
     12 C          -4.2380   -1.0920    0.0000 C.ar    1  LIG1        0.0003
     13 C          -4.8290   -0.3000    0.0000 C.ar    1  LIG1        0.0031
     14 C          -4.4460    0.6170    0.0000 C.ar    1  LIG1        0.0375
     15 C          -1.0420   -1.2460    0.0000 C.3     1  LIG1        0.1989
     16 C          -1.9170   -1.7580    0.0000 C.2     1  LIG1        0.2839
     17 O          -2.7790   -1.2580    0.0000 O.2     1  LIG1       -0.2695
     18 N          -1.9170   -2.7540    0.0000 N.am    1  LIG1       -0.0861
     19 O           0.6920   -0.2460    0.0000 O.2     1  LIG1       -0.2462
     20 C           0.6830    1.7540    0.0000 C.3     1  LIG1        0.1405
     21 C           1.5540    1.2540    0.0000 C.ar    1  LIG1        0.0038
     22 C           2.4130    1.7580    0.0000 C.ar    1  LIG1        0.0378
     23 C           3.2790    1.2710    0.0000 C.ar    1  LIG1        0.1762
     24 C           3.2790    0.2540    0.0000 C.ar    1  LIG1        0.1764
     25 O           4.2330   -0.0500    0.0000 O.3     1  LIG1       -0.4346
     26 C           4.8250    0.7710    0.0000 C.3     1  LIG1        0.4294
     27 O           4.2290    1.5880    0.0000 O.3     1  LIG1       -0.4346
     28 C           2.4130   -0.2460    0.0000 C.ar    1  LIG1        0.0399
     29 C           1.5460    0.2710    0.0000 C.ar    1  LIG1        0.0009
@<TRIPOS>BOND
     1     1     2   ar
     2     1     6   ar
     3     1    20    1
     4     2     3   ar
     5     2    19    2
     6     3     4   ar
     7     3    15    1
     8     4     5   ar
     9     4    10   ar
    10     5     6   ar
    11     5     8   ar
    12     6     7    2
    13     8     9   ar
    14     9    10   ar
    15     9    14   ar
    16    10    11   ar
    17    11    12   ar
    18    12    13   ar
    19    13    14   ar
    20    15    16    1
    21    16    17    2
    22    16    18   am
    23    20    21    1
    24    21    22   ar
    25    21    29   ar
    26    22    23   ar
    27    23    24   ar
    28    23    27    1
    29    24    25    1
    30    24    28   ar
    31    25    26    1
    32    26    27    1
    33    28    29   ar
