@<TRIPOS>MOLECULE
35441_ChemDiv_E243-0212
 20 22 0 0 0
SMALL
GASTEIGER
Energy = 0

@<TRIPOS>ATOM
      1 C          -0.5040   -1.2790    0.0000 C.ar    1  LIG1        0.2186
      2 C          -0.8170   -0.3330    0.0000 C.ar    1  LIG1        0.1251
      3 N          -0.1500    0.4080    0.0000 N.ar    1  LIG1       -0.2220
      4 C           0.8290    0.2080    0.0000 C.ar    1  LIG1        0.1814
      5 N           1.1380   -0.7460    0.0000 N.ar    1  LIG1       -0.2647
      6 C           0.4710   -1.4880    0.0000 C.ar    1  LIG1        0.2986
      7 O           0.7830   -2.4380    0.0000 O.2     1  LIG1       -0.2635
      8 C           2.1210   -0.9460    0.0000 C.3     1  LIG1        0.2202
      9 C           2.7880   -0.2040    0.0000 C.2     1  LIG1        0.3405
     10 O           3.7670   -0.4080    0.0000 O.2     1  LIG1       -0.2479
     11 O           2.4630    0.7420    0.0000 O.3     1  LIG1       -0.4472
     12 C           3.1330    1.4880    0.0000 C.3     1  LIG1        0.2086
     13 C           2.8130    2.4420    0.0000 C.3     1  LIG1        0.0513
     14 C          -1.8170   -0.3330    0.0000 C.ar    1  LIG1        0.0554
     15 C          -2.1250   -1.2880    0.0000 C.ar    1  LIG1        0.1471
     16 O          -1.3170   -1.8670    0.0000 O.2     1  LIG1       -0.4471
     17 C          -3.1040   -1.4880    0.0000 C.ar    1  LIG1        0.0375
     18 C          -3.7710   -0.7460    0.0000 C.ar    1  LIG1        0.0031
     19 C          -3.4670    0.2080    0.0000 C.ar    1  LIG1        0.0003
     20 C          -2.4830    0.4080    0.0000 C.ar    1  LIG1        0.0046
@<TRIPOS>BOND
     1     1     2   ar
     2     1     6   ar
     3     1    16   ar
     4     2     3   ar
     5     2    14   ar
     6     3     4   ar
     7     4     5   ar
     8     5     6   ar
     9     5     8    1
    10     6     7    2
    11     8     9    1
    12     9    10    2
    13     9    11    1
    14    11    12    1
    15    12    13    1
    16    14    15   ar
    17    14    20   ar
    18    15    16   ar
    19    15    17   ar
    20    17    18   ar
    21    18    19   ar
    22    19    20   ar
