@<TRIPOS>MOLECULE
35459_ChemDiv_8017-7988
 25 28 0 0 0
SMALL
GASTEIGER
Energy = 0

@<TRIPOS>ATOM
      1 C          -0.0080   -0.5000    0.0000 C.2     1  LIG1        0.0588
      2 C          -0.0080   -1.5000    0.0000 C.2     1  LIG1        0.1864
      3 C          -0.8670   -2.0000    0.0000 C.2     1  LIG1        0.2298
      4 C          -1.7290   -1.5000    0.0000 C.ar    1  LIG1        0.0451
      5 C          -1.7290   -0.5000    0.0000 C.ar    1  LIG1        0.0419
      6 C          -0.8670   -0.0040    0.0000 C.2     1  LIG1        0.1951
      7 O          -0.8670    0.9960    0.0000 O.2     1  LIG1       -0.2868
      8 C          -2.5960   -0.0040    0.0000 C.ar    1  LIG1        0.0033
      9 C          -3.4670   -0.5000    0.0000 C.ar    1  LIG1        0.0001
     10 C          -3.4670   -1.5000    0.0000 C.ar    1  LIG1        0.0001
     11 C          -2.5960   -2.0000    0.0000 C.ar    1  LIG1        0.0034
     12 O          -0.8670   -3.0000    0.0000 O.2     1  LIG1       -0.2833
     13 O           0.8630   -2.0000    0.0000 O.3     1  LIG1       -0.4210
     14 C           1.7290   -1.5000    0.0000 C.2     1  LIG1        0.3222
     15 C           1.7290   -0.5000    0.0000 C.3     1  LIG1        0.1189
     16 C           0.8630   -0.0040    0.0000 C.3     1  LIG1        0.0620
     17 C           0.8630    0.9960    0.0000 C.ar    1  LIG1       -0.0147
     18 C           1.7290    1.4960    0.0000 C.ar    1  LIG1        0.0330
     19 C           1.7290    2.4960    0.0000 C.ar    1  LIG1        0.1384
     20 O           2.5920    3.0040    0.0000 O.3     1  LIG1       -0.4714
     21 C           3.4630    2.4960    0.0000 C.3     1  LIG1        0.2525
     22 C           0.8630    2.9960    0.0000 C.ar    1  LIG1        0.0369
     23 C          -0.0080    2.4960    0.0000 C.ar    1  LIG1        0.0028
     24 C          -0.0080    1.4960    0.0000 C.ar    1  LIG1       -0.0037
     25 O           2.5920   -2.0000    0.0000 O.2     1  LIG1       -0.2497
@<TRIPOS>BOND
     1     1     2    2
     2     1     6    1
     3     1    16    1
     4     2     3    1
     5     2    13    1
     6     3     4    1
     7     3    12    2
     8     4     5   ar
     9     4    11   ar
    10     5     6    1
    11     5     8   ar
    12     6     7    2
    13     8     9   ar
    14     9    10   ar
    15    10    11   ar
    16    13    14    1
    17    14    15    1
    18    14    25    2
    19    15    16    1
    20    16    17    1
    21    17    18   ar
    22    17    24   ar
    23    18    19   ar
    24    19    20    1
    25    19    22   ar
    26    20    21    1
    27    22    23   ar
    28    23    24   ar
