@<TRIPOS>MOLECULE
35454_ChemDiv_C054-0505
 28 31 0 0 0
SMALL
GASTEIGER
Energy = 0

@<TRIPOS>ATOM
      1 S          -0.7630    0.0040    0.0000 S.O2    1  LIG1        0.0636
      2 C          -0.7750   -1.6670    0.0000 C.ar    1  LIG1        0.1238
      3 C           0.0540   -2.1460    0.0000 C.ar    1  LIG1        0.0393
      4 C           0.0540   -3.1040    0.0000 C.ar    1  LIG1        0.1164
      5 N           0.8790   -3.5830    0.0000 N.ar    1  LIG1       -0.2407
      6 C           1.7210   -3.1040    0.0000 C.ar    1  LIG1        0.0989
      7 C           1.7210   -2.1460    0.0000 C.ar    1  LIG1        0.0207
      8 C           0.8790   -1.6670    0.0000 C.ar    1  LIG1        0.0045
      9 C          -0.7750   -3.5830    0.0000 C.ar    1  LIG1        0.1561
     10 C          -1.6040   -3.1040    0.0000 C.ar    1  LIG1        0.0398
     11 C          -1.6040   -2.1460    0.0000 C.ar    1  LIG1        0.0231
     12 O          -0.7750   -4.5420    0.0000 O.3     1  LIG1       -0.4739
     13 C           0.0540   -5.0210    0.0000 C.3     1  LIG1        0.2056
     14 C           0.0540   -5.9790    0.0000 C.3     1  LIG1        0.0512
     15 N          -0.7580    0.9920    0.0000 N.3     1  LIG1       -0.1507
     16 C           0.1080    1.4790    0.0000 C.3     1  LIG1        0.1215
     17 C           0.1040    2.4710    0.0000 C.2     1  LIG1       -0.0113
     18 C          -0.7580    2.9750    0.0000 C.2     1  LIG1       -0.0236
     19 C          -1.6210    2.4920    0.0000 C.3     1  LIG1        0.0452
     20 C          -1.6290    1.4880    0.0000 C.3     1  LIG1        0.1008
     21 C          -0.7580    3.9790    0.0000 C.ar    1  LIG1       -0.0042
     22 C           0.1080    4.4670    0.0000 C.ar    1  LIG1       -0.0003
     23 C           0.1080    5.4710    0.0000 C.ar    1  LIG1       -0.0000
     24 C          -0.7580    5.9790    0.0000 C.ar    1  LIG1       -0.0000
     25 C          -1.6290    5.4790    0.0000 C.ar    1  LIG1       -0.0000
     26 C          -1.6290    4.4830    0.0000 C.ar    1  LIG1       -0.0003
     27 O          -1.7250    0.0040    0.0000 O.2     1  LIG1       -0.1528
     28 O           0.1920    0.0040    0.0000 O.2     1  LIG1       -0.1528
@<TRIPOS>BOND
     1     1     2    1
     2     1    15    1
     3     1    27    2
     4     1    28    2
     5     2     3   ar
     6     2    11   ar
     7     3     4   ar
     8     3     8   ar
     9     4     5   ar
    10     4     9   ar
    11     5     6   ar
    12     6     7   ar
    13     7     8   ar
    14     9    10   ar
    15     9    12    1
    16    10    11   ar
    17    12    13    1
    18    13    14    1
    19    15    16    1
    20    15    20    1
    21    16    17    1
    22    17    18    2
    23    18    19    1
    24    18    21    1
    25    19    20    1
    26    21    22   ar
    27    21    26   ar
    28    22    23   ar
    29    23    24   ar
    30    24    25   ar
    31    25    26   ar
