@<TRIPOS>MOLECULE
35451_ChemDiv_E545-0652
 33 38 0 0 0
SMALL
GASTEIGER
Energy = 0

@<TRIPOS>ATOM
      1 N           0.4830    0.8830    0.0000 N.ar    1  LIG1       -0.2420
      2 C           0.1670   -0.0670    0.0000 C.ar    1  LIG1        0.3344
      3 N          -0.8210   -0.2670    0.0000 N.ar    1  LIG1       -0.2739
      4 C          -1.4790    0.4790    0.0000 C.ar    1  LIG1        0.1063
      5 C          -1.1630    1.4330    0.0000 C.ar    1  LIG1        0.2169
      6 C          -0.1880    1.6290    0.0000 C.ar    1  LIG1        0.3006
      7 O           0.1330    2.5830    0.0000 O.2     1  LIG1       -0.2634
      8 O          -1.9710    2.0170    0.0000 O.2     1  LIG1       -0.4471
      9 C          -2.7790    1.4290    0.0000 C.ar    1  LIG1        0.1470
     10 C          -2.4710    0.4790    0.0000 C.ar    1  LIG1        0.0536
     11 C          -3.1330   -0.2580    0.0000 C.ar    1  LIG1        0.0046
     12 C          -4.1000   -0.0500    0.0000 C.ar    1  LIG1        0.0003
     13 C          -4.4130    0.9000    0.0000 C.ar    1  LIG1        0.0031
     14 C          -3.7500    1.6420    0.0000 C.ar    1  LIG1        0.0375
     15 C          -1.1330   -1.2130    0.0000 C.3     1  LIG1        0.1373
     16 C          -2.1170   -1.4130    0.0000 C.ar    1  LIG1        0.0006
     17 C          -2.4330   -2.3670    0.0000 C.ar    1  LIG1       -0.0015
     18 C          -3.4040   -2.5790    0.0000 C.ar    1  LIG1        0.0111
     19 C          -4.0830   -1.8210    0.0000 C.ar    1  LIG1        0.0577
     20 CL         -5.0630   -2.0290    0.0000 Cl      1  LIG1       -0.0822
     21 C          -3.7710   -0.8710    0.0000 C.ar    1  LIG1        0.0111
     22 C          -2.7880   -0.6580    0.0000 C.ar    1  LIG1       -0.0015
     23 O           0.8250   -0.8210    0.0000 O.2     1  LIG1       -0.2462
     24 C           1.4630    1.0790    0.0000 C.3     1  LIG1        0.1405
     25 C           2.1170    0.3290    0.0000 C.ar    1  LIG1        0.0038
     26 C           3.0960    0.5380    0.0000 C.ar    1  LIG1        0.0378
     27 C           3.7500   -0.2130    0.0000 C.ar    1  LIG1        0.1762
     28 C           3.4330   -1.1670    0.0000 C.ar    1  LIG1        0.1764
     29 O           4.2420   -1.7630    0.0000 O.3     1  LIG1       -0.4346
     30 C           5.0580   -1.1710    0.0000 C.3     1  LIG1        0.4294
     31 O           4.7460   -0.2210    0.0000 O.3     1  LIG1       -0.4346
     32 C           2.4500   -1.3630    0.0000 C.ar    1  LIG1        0.0399
     33 C           1.8000   -0.6130    0.0000 C.ar    1  LIG1        0.0009
@<TRIPOS>BOND
     1     1     2   ar
     2     1     6   ar
     3     1    24    1
     4     2     3   ar
     5     2    23    2
     6     3     4   ar
     7     3    15    1
     8     4     5   ar
     9     4    10   ar
    10     5     6   ar
    11     5     8   ar
    12     6     7    2
    13     8     9   ar
    14     9    10   ar
    15     9    14   ar
    16    10    11   ar
    17    11    12   ar
    18    12    13   ar
    19    13    14   ar
    20    15    16    1
    21    16    17   ar
    22    16    22   ar
    23    17    18   ar
    24    18    19   ar
    25    19    20    1
    26    19    21   ar
    27    21    22   ar
    28    24    25    1
    29    25    26   ar
    30    25    33   ar
    31    26    27   ar
    32    27    28   ar
    33    27    31    1
    34    28    29    1
    35    28    32   ar
    36    29    30    1
    37    30    31    1
    38    32    33   ar
