@<TRIPOS>MOLECULE
35455_ChemDiv_K221-3404
 31 35 0 0 0
SMALL
GASTEIGER
Energy = 0

@<TRIPOS>ATOM
      1 N           2.6500   -0.7830    0.0000 N.ar    1  LIG1       -0.2431
      2 C           2.6500   -1.7790    0.0000 C.ar    1  LIG1        0.3527
      3 N           1.7830   -2.2790    0.0000 N.ar    1  LIG1       -0.1920
      4 C           0.9210   -1.7790    0.0000 C.ar    1  LIG1        0.0907
      5 C           0.9210   -0.7830    0.0000 C.ar    1  LIG1        0.0741
      6 C           1.7830   -0.2830    0.0000 C.ar    1  LIG1        0.2659
      7 O           1.7830    0.7170    0.0000 O.2     1  LIG1       -0.2668
      8 C           0.0580   -0.2830    0.0000 C.ar    1  LIG1        0.0064
      9 C          -0.8130   -0.7830    0.0000 C.ar    1  LIG1        0.0048
     10 C          -0.8130   -1.7790    0.0000 C.ar    1  LIG1        0.0565
     11 C          -1.6830   -2.2830    0.0000 C.2     1  LIG1        0.2648
     12 N          -2.5540   -1.7880    0.0000 N.am    1  LIG1       -0.2034
     13 C          -3.4170   -2.2960    0.0000 C.3     1  LIG1        0.0956
     14 C          -4.2790   -1.7960    0.0000 C.3     1  LIG1        0.0217
     15 C          -5.1460   -2.2960    0.0000 C.3     1  LIG1        0.0018
     16 C          -5.1420   -3.2920    0.0000 C.3     1  LIG1        0.0001
     17 C          -4.2790   -3.7920    0.0000 C.3     1  LIG1        0.0018
     18 C          -3.4170   -3.2920    0.0000 C.3     1  LIG1        0.0217
     19 O          -1.6750   -3.2830    0.0000 O.2     1  LIG1       -0.2684
     20 C           0.0580   -2.2790    0.0000 C.ar    1  LIG1        0.0240
     21 O           3.5250   -2.2830    0.0000 O.2     1  LIG1       -0.2444
     22 C           3.5250   -0.2830    0.0000 C.3     1  LIG1        0.1404
     23 C           3.5290    0.7170    0.0000 C.ar    1  LIG1        0.0038
     24 C           4.3920    1.2170    0.0000 C.ar    1  LIG1        0.0378
     25 C           4.3920    2.2250    0.0000 C.ar    1  LIG1        0.1762
     26 C           3.5290    2.7210    0.0000 C.ar    1  LIG1        0.1764
     27 O           3.7420    3.6960    0.0000 O.3     1  LIG1       -0.4346
     28 C           4.7380    3.7960    0.0000 C.3     1  LIG1        0.4294
     29 O           5.1420    2.8960    0.0000 O.3     1  LIG1       -0.4346
     30 C           2.6670    2.2250    0.0000 C.ar    1  LIG1        0.0399
     31 C           2.6670    1.2170    0.0000 C.ar    1  LIG1        0.0009
@<TRIPOS>BOND
     1     1     2   ar
     2     1     6   ar
     3     1    22    1
     4     2     3   ar
     5     2    21    2
     6     3     4   ar
     7     4     5   ar
     8     4    20   ar
     9     5     6   ar
    10     5     8   ar
    11     6     7    2
    12     8     9   ar
    13     9    10   ar
    14    10    11    1
    15    10    20   ar
    16    11    12   am
    17    11    19    2
    18    12    13    1
    19    13    14    1
    20    13    18    1
    21    14    15    1
    22    15    16    1
    23    16    17    1
    24    17    18    1
    25    22    23    1
    26    23    24   ar
    27    23    31   ar
    28    24    25   ar
    29    25    26   ar
    30    25    29    1
    31    26    27    1
    32    26    30   ar
    33    27    28    1
    34    28    29    1
    35    30    31   ar
