@<TRIPOS>MOLECULE
35464_ChemDiv_C066-2055
 29 31 0 0 0
SMALL
GASTEIGER
Energy = 0

@<TRIPOS>ATOM
      1 N          -1.7290   -1.7330    0.0000 N.ar    1  LIG1       -0.2852
      2 C          -2.5960   -1.2250    0.0000 C.ar    1  LIG1        0.2612
      3 C          -3.4580   -1.7330    0.0000 C.ar    1  LIG1        0.0562
      4 C          -3.4670   -2.7330    0.0000 C.ar    1  LIG1        0.0061
      5 C          -2.5960   -3.2380    0.0000 C.ar    1  LIG1        0.0189
      6 C          -1.7290   -2.7380    0.0000 C.ar    1  LIG1        0.0788
      7 C          -4.3330   -3.2380    0.0000 C.ar    1  LIG1        0.0002
      8 C          -5.1960   -2.7380    0.0000 C.ar    1  LIG1        0.0000
      9 C          -5.1960   -1.7330    0.0000 C.ar    1  LIG1        0.0002
     10 C          -4.3330   -1.2330    0.0000 C.ar    1  LIG1        0.0047
     11 O          -2.6080   -0.2250    0.0000 O.2     1  LIG1       -0.2670
     12 C          -0.8670   -1.2420    0.0000 C.3     1  LIG1        0.1958
     13 C          -0.0040   -1.7380    0.0000 C.2     1  LIG1        0.2646
     14 O          -0.0040   -2.7380    0.0000 O.2     1  LIG1       -0.2712
     15 N           0.8630   -1.2420    0.0000 N.am    1  LIG1       -0.2033
     16 C           1.7330   -1.7380    0.0000 C.3     1  LIG1        0.1248
     17 C           2.5960   -1.2420    0.0000 C.3     1  LIG1        0.1102
     18 C           3.4670   -1.7380    0.0000 C.2     1  LIG1        0.2432
     19 O           3.4580   -2.7380    0.0000 O.2     1  LIG1       -0.2733
     20 N           4.3250   -1.2420    0.0000 N.am    1  LIG1       -0.2053
     21 C           4.3210   -0.2420    0.0000 C.3     1  LIG1        0.1169
     22 C           5.1920    0.2500    0.0000 C.3     1  LIG1        0.0449
     23 C           5.1920    1.2460    0.0000 C.3     1  LIG1        0.0952
     24 N           4.3210    1.7420    0.0000 N.am    1  LIG1       -0.2795
     25 C           4.2210    2.7330    0.0000 C.2     1  LIG1        0.2257
     26 O           5.0830    3.2420    0.0000 O.2     1  LIG1       -0.2749
     27 C           3.2380    2.9380    0.0000 C.3     1  LIG1        0.0870
     28 C           2.7380    2.0750    0.0000 C.3     1  LIG1        0.0311
     29 C           3.4130    1.3330    0.0000 C.3     1  LIG1        0.0939
@<TRIPOS>BOND
     1     1     2   ar
     2     1     6   ar
     3     1    12    1
     4     2     3   ar
     5     2    11    2
     6     3     4   ar
     7     3    10   ar
     8     4     5   ar
     9     4     7   ar
    10     5     6   ar
    11     7     8   ar
    12     8     9   ar
    13     9    10   ar
    14    12    13    1
    15    13    14    2
    16    13    15   am
    17    15    16    1
    18    16    17    1
    19    17    18    1
    20    18    19    2
    21    18    20   am
    22    20    21    1
    23    21    22    1
    24    22    23    1
    25    23    24    1
    26    24    25   am
    27    24    29    1
    28    25    26    2
    29    25    27    1
    30    27    28    1
    31    28    29    1
