@<TRIPOS>MOLECULE
35466_ChemDiv_C066-2059
 35 39 0 0 0
SMALL
GASTEIGER
Energy = 0

@<TRIPOS>ATOM
      1 N           4.9790    2.2670    0.0000 N.ar    1  LIG1       -0.3272
      2 C           4.2420    1.6040    0.0000 C.ar    1  LIG1        0.0600
      3 C           3.3790    2.1000    0.0000 C.ar    1  LIG1        0.0185
      4 C           3.5920    3.0750    0.0000 C.ar    1  LIG1        0.0172
      5 C           4.5830    3.1710    0.0000 C.ar    1  LIG1        0.0599
      6 C           4.9790    4.0790    0.0000 C.ar    1  LIG1        0.0172
      7 C           4.4040    4.8920    0.0000 C.ar    1  LIG1        0.0015
      8 C           3.4040    4.7830    0.0000 C.ar    1  LIG1        0.0001
      9 C           3.0040    3.8710    0.0000 C.ar    1  LIG1        0.0015
     10 C           2.5130    1.5920    0.0000 C.ar    1  LIG1        0.0181
     11 C           2.5170    0.6040    0.0000 C.ar    1  LIG1        0.0735
     12 N           1.4920    0.0960    0.0000 N.am    1  LIG1       -0.1792
     13 C           0.6330   -0.3920    0.0000 C.2     1  LIG1        0.2474
     14 C           0.6330   -1.4040    0.0000 C.3     1  LIG1        0.1105
     15 C          -0.2290   -1.9040    0.0000 C.3     1  LIG1        0.1248
     16 N          -0.2290   -2.9000    0.0000 N.am    1  LIG1       -0.2033
     17 C          -1.0920   -3.3960    0.0000 C.2     1  LIG1        0.2646
     18 C          -1.9540   -2.9000    0.0000 C.3     1  LIG1        0.1958
     19 N          -2.8210   -3.3960    0.0000 N.ar    1  LIG1       -0.2852
     20 C          -3.6880   -2.9000    0.0000 C.ar    1  LIG1        0.2612
     21 C          -4.5500   -3.3960    0.0000 C.ar    1  LIG1        0.0562
     22 C          -4.5500   -4.3960    0.0000 C.ar    1  LIG1        0.0061
     23 C          -3.6880   -4.8920    0.0000 C.ar    1  LIG1        0.0189
     24 C          -2.8210   -4.3960    0.0000 C.ar    1  LIG1        0.0788
     25 C          -5.4130   -4.8920    0.0000 C.ar    1  LIG1        0.0002
     26 C          -6.2670   -4.3960    0.0000 C.ar    1  LIG1        0.0000
     27 C          -6.2670   -3.3960    0.0000 C.ar    1  LIG1        0.0002
     28 C          -5.4130   -2.9000    0.0000 C.ar    1  LIG1        0.0047
     29 O          -3.6880   -1.9040    0.0000 O.2     1  LIG1       -0.2670
     30 O          -1.0920   -4.3960    0.0000 O.2     1  LIG1       -0.2712
     31 O          -0.2290    0.0960    0.0000 O.2     1  LIG1       -0.2729
     32 C           3.3790    0.1130    0.0000 C.ar    1  LIG1        0.0181
     33 C           4.2420    0.6040    0.0000 C.ar    1  LIG1        0.0185
     34 C           5.9580    2.0580    0.0000 C.3     1  LIG1        0.1061
     35 C           6.2670    1.1080    0.0000 C.3     1  LIG1        0.0265
@<TRIPOS>BOND
     1     1     2   ar
     2     1     5   ar
     3     1    34    1
     4     2     3   ar
     5     2    33   ar
     6     3     4   ar
     7     3    10   ar
     8     4     5   ar
     9     4     9   ar
    10     5     6   ar
    11     6     7   ar
    12     7     8   ar
    13     8     9   ar
    14    10    11   ar
    15    11    12    1
    16    11    32   ar
    17    12    13   am
    18    13    14    1
    19    13    31    2
    20    14    15    1
    21    15    16    1
    22    16    17   am
    23    17    18    1
    24    17    30    2
    25    18    19    1
    26    19    20   ar
    27    19    24   ar
    28    20    21   ar
    29    20    29    2
    30    21    22   ar
    31    21    28   ar
    32    22    23   ar
    33    22    25   ar
    34    23    24   ar
    35    25    26   ar
    36    26    27   ar
    37    27    28   ar
    38    32    33   ar
    39    34    35    1
