@<TRIPOS>MOLECULE
35465_ChemDiv_8017-8020
 14 15 0 0 0
SMALL
GASTEIGER
Energy = 0

@<TRIPOS>ATOM
      1 C          -1.0580   -1.1880    0.0000 C.2     1  LIG1        0.3289
      2 N          -0.1330   -1.5790    0.0000 N.am    1  LIG1       -0.1410
      3 C           0.6670   -0.9750    0.0000 C.ar    1  LIG1        0.1849
      4 N           1.6290   -1.2670    0.0000 N.ar    1  LIG1       -0.1730
      5 S           2.2040   -0.4540    0.0000 S.2     1  LIG1        0.1179
      6 N           1.5920    0.3420    0.0000 N.ar    1  LIG1       -0.1871
      7 C           0.6540    0.0170    0.0000 C.ar    1  LIG1        0.1456
      8 N          -1.1710   -0.1920    0.0000 N.am    1  LIG1       -0.2626
      9 C          -0.3630    0.4040    0.0000 C.3     1  LIG1        0.0950
     10 C          -0.4830    1.3920    0.0000 C.3     1  LIG1        0.0216
     11 C          -1.4080    1.7920    0.0000 C.3     1  LIG1        0.0035
     12 C          -2.2080    1.1920    0.0000 C.3     1  LIG1        0.0216
     13 C          -2.0880    0.1920    0.0000 C.3     1  LIG1        0.0950
     14 O          -1.8500   -1.7880    0.0000 O.2     1  LIG1       -0.2504
@<TRIPOS>BOND
     1     1     2   am
     2     1     8   am
     3     1    14    2
     4     2     3    1
     5     3     4   ar
     6     3     7   ar
     7     4     5   ar
     8     5     6   ar
     9     6     7   ar
    10     8     9    1
    11     8    13    1
    12     9    10    1
    13    10    11    1
    14    11    12    1
    15    12    13    1
