@<TRIPOS>MOLECULE
35468_ChemDiv_C066-2084
 36 38 0 0 0
SMALL
GASTEIGER
Energy = 0

@<TRIPOS>ATOM
      1 N          -1.3000   -6.0040    0.0000 N.ar    1  LIG1       -0.2852
      2 C          -2.1710   -5.5040    0.0000 C.ar    1  LIG1        0.2612
      3 C          -3.0380   -6.0040    0.0000 C.ar    1  LIG1        0.0562
      4 C          -3.0380   -7.0040    0.0000 C.ar    1  LIG1        0.0061
      5 C          -2.1710   -7.5040    0.0000 C.ar    1  LIG1        0.0189
      6 C          -1.3000   -7.0040    0.0000 C.ar    1  LIG1        0.0788
      7 C          -3.8960   -7.5040    0.0000 C.ar    1  LIG1        0.0002
      8 C          -4.7580   -7.0040    0.0000 C.ar    1  LIG1        0.0000
      9 C          -4.7580   -6.0130    0.0000 C.ar    1  LIG1        0.0002
     10 C          -3.8960   -5.5040    0.0000 C.ar    1  LIG1        0.0047
     11 O          -2.1710   -4.5040    0.0000 O.2     1  LIG1       -0.2670
     12 C          -0.4290   -5.5040    0.0000 C.3     1  LIG1        0.1958
     13 C          -0.4210   -4.5040    0.0000 C.2     1  LIG1        0.2646
     14 O          -1.2960   -4.0040    0.0000 O.2     1  LIG1       -0.2712
     15 N           0.4420   -4.0040    0.0000 N.am    1  LIG1       -0.2033
     16 C           0.4420   -3.0080    0.0000 C.3     1  LIG1        0.1248
     17 C           1.3040   -2.5080    0.0000 C.3     1  LIG1        0.1105
     18 C           1.3040   -1.5040    0.0000 C.2     1  LIG1        0.2474
     19 N           2.1670   -1.0040    0.0000 N.am    1  LIG1       -0.1792
     20 C           2.1670    0.0040    0.0000 C.ar    1  LIG1        0.0734
     21 C           3.0330    0.5040    0.0000 C.ar    1  LIG1        0.0168
     22 C           3.0330    1.5040    0.0000 C.ar    1  LIG1        0.0078
     23 C           2.1670    2.0040    0.0000 C.ar    1  LIG1        0.0757
     24 C           2.1670    3.0000    0.0000 C.2     1  LIG1        0.3414
     25 O           1.2920    3.5000    0.0000 O.2     1  LIG1       -0.2449
     26 O           3.0290    3.5000    0.0000 O.3     1  LIG1       -0.4389
     27 C           3.0290    4.5040    0.0000 C.3     1  LIG1        0.2708
     28 C           3.8920    5.0000    0.0000 C.3     1  LIG1        0.1868
     29 N           3.8920    6.0080    0.0000 N.4     1  LIG1        0.3802
     30 C           4.7540    6.5080    0.0000 C.3     1  LIG1        0.1389
     31 C           4.7540    7.5040    0.0000 C.3     1  LIG1        0.0688
     32 C           3.0210    6.5080    0.0000 C.3     1  LIG1        0.1389
     33 C           2.1580    6.0080    0.0000 C.3     1  LIG1        0.0688
     34 C           1.3040    1.5040    0.0000 C.ar    1  LIG1        0.0078
     35 C           1.3040    0.5040    0.0000 C.ar    1  LIG1        0.0168
     36 O           0.4290   -1.0040    0.0000 O.2     1  LIG1       -0.2729
@<TRIPOS>BOND
     1     1     2   ar
     2     1     6   ar
     3     1    12    1
     4     2     3   ar
     5     2    11    2
     6     3     4   ar
     7     3    10   ar
     8     4     5   ar
     9     4     7   ar
    10     5     6   ar
    11     7     8   ar
    12     8     9   ar
    13     9    10   ar
    14    12    13    1
    15    13    14    2
    16    13    15   am
    17    15    16    1
    18    16    17    1
    19    17    18    1
    20    18    19   am
    21    18    36    2
    22    19    20    1
    23    20    21   ar
    24    20    35   ar
    25    21    22   ar
    26    22    23   ar
    27    23    24    1
    28    23    34   ar
    29    24    25    2
    30    24    26    1
    31    26    27    1
    32    27    28    1
    33    28    29    1
    34    29    30    1
    35    29    32    1
    36    30    31    1
    37    32    33    1
    38    34    35   ar
