@<TRIPOS>MOLECULE
35467_ChemDiv_8017-8078
 28 31 0 0 0
SMALL
GASTEIGER
Energy = 0

@<TRIPOS>ATOM
      1 N           0.5040   -1.7170    0.0000 N.am    1  LIG1       -0.2229
      2 C           1.4250   -1.3080    0.0000 C.2     1  LIG1        0.2551
      3 C           2.0920   -2.0540    0.0000 C.ar    1  LIG1        0.0584
      4 C           1.5920   -2.9210    0.0000 C.ar    1  LIG1        0.0584
      5 C           0.6170   -2.7080    0.0000 C.2     1  LIG1        0.2551
      6 O          -0.2460   -3.2080    0.0000 O.2     1  LIG1       -0.2695
      7 C           2.0920   -3.7830    0.0000 C.ar    1  LIG1        0.0047
      8 C           3.0920   -3.7830    0.0000 C.ar    1  LIG1        0.0001
      9 C           3.5920   -2.9210    0.0000 C.ar    1  LIG1        0.0001
     10 C           3.0920   -2.0540    0.0000 C.ar    1  LIG1        0.0047
     11 O           1.4250   -0.3080    0.0000 O.2     1  LIG1       -0.2695
     12 C          -0.3540   -1.2170    0.0000 C.3     1  LIG1        0.1015
     13 C          -0.3540   -0.2170    0.0000 C.3     1  LIG1        0.0225
     14 C          -1.2330    0.2830    0.0000 C.3     1  LIG1        0.0104
     15 C          -1.7290   -0.5830    0.0000 C.3     1  LIG1        0.0277
     16 C          -2.7290   -0.5830    0.0000 C.3     1  LIG1        0.0929
     17 O          -3.2290    0.2830    0.0000 O.3     1  LIG1       -0.3585
     18 C          -2.7290    1.1330    0.0000 C.3     1  LIG1        0.1420
     19 C          -1.7290    1.1330    0.0000 C.3     1  LIG1        0.0325
     20 C          -3.5960   -1.0830    0.0000 C.3     1  LIG1        0.0296
     21 C          -2.7290   -1.5960    0.0000 C.3     1  LIG1        0.0296
     22 C          -0.3670    0.7790    0.0000 C.3     1  LIG1        0.0265
     23 C          -0.3670    1.7790    0.0000 C.ar    1  LIG1       -0.0222
     24 C           0.5000    2.2790    0.0000 C.ar    1  LIG1       -0.0043
     25 C           0.4880    3.2790    0.0000 C.ar    1  LIG1       -0.0003
     26 C          -0.3790    3.7880    0.0000 C.ar    1  LIG1       -0.0000
     27 C          -1.2420    3.2670    0.0000 C.ar    1  LIG1       -0.0003
     28 C          -1.2330    2.2670    0.0000 C.ar    1  LIG1       -0.0043
@<TRIPOS>BOND
     1     1     2   am
     2     1     5   am
     3     1    12    1
     4     2     3    1
     5     2    11    2
     6     3     4   ar
     7     3    10   ar
     8     4     5    1
     9     4     7   ar
    10     5     6    2
    11     7     8   ar
    12     8     9   ar
    13     9    10   ar
    14    12    13    1
    15    13    14    1
    16    14    15    1
    17    14    19    1
    18    14    22    1
    19    15    16    1
    20    16    17    1
    21    16    20    1
    22    16    21    1
    23    17    18    1
    24    18    19    1
    25    22    23    1
    26    23    24   ar
    27    23    28   ar
    28    24    25   ar
    29    25    26   ar
    30    26    27   ar
    31    27    28   ar
