@<TRIPOS>MOLECULE
35461_ChemDiv_8017-7990
 22 25 0 0 0
SMALL
GASTEIGER
Energy = 0

@<TRIPOS>ATOM
      1 C           0.4290   -0.2670    0.0000 C.2     1  LIG1        0.0588
      2 C           0.4290   -1.2670    0.0000 C.2     1  LIG1        0.1864
      3 C          -0.4330   -1.7670    0.0000 C.2     1  LIG1        0.2298
      4 C          -1.3000   -1.2670    0.0000 C.ar    1  LIG1        0.0451
      5 C          -1.3000   -0.2670    0.0000 C.ar    1  LIG1        0.0419
      6 C          -0.4330    0.2330    0.0000 C.2     1  LIG1        0.1951
      7 O          -0.4330    1.2330    0.0000 O.2     1  LIG1       -0.2868
      8 C          -2.1710    0.2330    0.0000 C.ar    1  LIG1        0.0033
      9 C          -3.0330   -0.2670    0.0000 C.ar    1  LIG1        0.0001
     10 C          -3.0330   -1.2670    0.0000 C.ar    1  LIG1        0.0001
     11 C          -2.1710   -1.7670    0.0000 C.ar    1  LIG1        0.0034
     12 O          -0.4330   -2.7670    0.0000 O.2     1  LIG1       -0.2833
     13 O           1.2920   -1.7670    0.0000 O.3     1  LIG1       -0.4210
     14 C           2.1630   -1.2670    0.0000 C.2     1  LIG1        0.3222
     15 C           2.1630   -0.2670    0.0000 C.3     1  LIG1        0.1189
     16 C           1.2920    0.2330    0.0000 C.3     1  LIG1        0.0625
     17 C           1.2920    1.2330    0.0000 C.ar    1  LIG1       -0.0107
     18 C           0.4880    1.8210    0.0000 C.ar    1  LIG1        0.0315
     19 S           0.7920    2.7710    0.0000 S.2     1  LIG1       -0.0863
     20 C           1.7920    2.7710    0.0000 C.ar    1  LIG1        0.0351
     21 C           2.1040    1.8210    0.0000 C.ar    1  LIG1        0.0035
     22 O           3.0290   -1.7670    0.0000 O.2     1  LIG1       -0.2497
@<TRIPOS>BOND
     1     1     2    2
     2     1     6    1
     3     1    16    1
     4     2     3    1
     5     2    13    1
     6     3     4    1
     7     3    12    2
     8     4     5   ar
     9     4    11   ar
    10     5     6    1
    11     5     8   ar
    12     6     7    2
    13     8     9   ar
    14     9    10   ar
    15    10    11   ar
    16    13    14    1
    17    14    15    1
    18    14    22    2
    19    15    16    1
    20    16    17    1
    21    17    18   ar
    22    17    21   ar
    23    18    19   ar
    24    19    20   ar
    25    20    21   ar
