@<TRIPOS>MOLECULE
35474_ChemDiv_E587-0446
 34 38 0 0 0
SMALL
GASTEIGER
Energy = 0

@<TRIPOS>ATOM
      1 N          -2.6920    1.1380    0.0000 N.ar    1  LIG1       -0.3173
      2 C          -1.8830    1.7250    0.0000 C.ar    1  LIG1        0.0825
      3 C          -2.1960    2.6750    0.0000 C.ar    1  LIG1        0.0443
      4 C          -3.1920    2.6750    0.0000 C.ar    1  LIG1        0.0229
      5 C          -3.5000    1.7250    0.0000 C.ar    1  LIG1        0.0608
      6 C          -4.4790    1.5130    0.0000 C.ar    1  LIG1        0.0172
      7 C          -5.1420    2.2540    0.0000 C.ar    1  LIG1        0.0015
      8 C          -4.8420    3.2080    0.0000 C.ar    1  LIG1        0.0001
      9 C          -3.8580    3.4170    0.0000 C.ar    1  LIG1        0.0020
     10 S          -1.6040    3.4830    0.0000 S.3     1  LIG1       -0.1023
     11 C          -0.6130    3.3880    0.0000 C.3     1  LIG1        0.1487
     12 C          -0.2040    2.4630    0.0000 C.2     1  LIG1        0.2530
     13 N           0.7960    2.3580    0.0000 N.am    1  LIG1       -0.1998
     14 C           1.2040    1.4420    0.0000 C.3     1  LIG1        0.1416
     15 C           2.2000    1.3330    0.0000 C.ar    1  LIG1        0.0027
     16 C           2.5920    0.4130    0.0000 C.ar    1  LIG1        0.0376
     17 C           3.5960    0.3080    0.0000 C.ar    1  LIG1        0.1762
     18 C           4.1790    1.1170    0.0000 C.ar    1  LIG1        0.1764
     19 O           5.1380    0.8170    0.0000 O.3     1  LIG1       -0.4346
     20 C           5.1380   -0.1830    0.0000 C.3     1  LIG1        0.4294
     21 O           4.1880   -0.4960    0.0000 O.3     1  LIG1       -0.4346
     22 C           3.7630    2.0420    0.0000 C.ar    1  LIG1        0.0399
     23 C           2.7750    2.1330    0.0000 C.ar    1  LIG1        0.0008
     24 O          -0.8040    1.6630    0.0000 O.2     1  LIG1       -0.2724
     25 C          -2.6920    0.1420    0.0000 C.3     1  LIG1        0.1919
     26 C          -1.8330   -0.3580    0.0000 C.2     1  LIG1        0.2487
     27 N          -1.8330   -1.3540    0.0000 N.am    1  LIG1       -0.2780
     28 C          -0.8790   -1.8170    0.0000 C.3     1  LIG1        0.0935
     29 C          -0.6830   -2.8210    0.0000 C.3     1  LIG1        0.0215
     30 C          -1.2920   -3.4580    0.0000 C.3     1  LIG1        0.0018
     31 C          -2.3290   -3.4790    0.0000 C.3     1  LIG1        0.0018
     32 C          -2.9670   -2.8380    0.0000 C.3     1  LIG1        0.0215
     33 C          -2.8000   -1.8290    0.0000 C.3     1  LIG1        0.0935
     34 O          -0.9710    0.1420    0.0000 O.2     1  LIG1       -0.2728
@<TRIPOS>BOND
     1     1     2   ar
     2     1     5   ar
     3     1    25    1
     4     2     3   ar
     5     3     4   ar
     6     3    10    1
     7     4     5   ar
     8     4     9   ar
     9     5     6   ar
    10     6     7   ar
    11     7     8   ar
    12     8     9   ar
    13    10    11    1
    14    11    12    1
    15    12    13   am
    16    12    24    2
    17    13    14    1
    18    14    15    1
    19    15    16   ar
    20    15    23   ar
    21    16    17   ar
    22    17    18   ar
    23    17    21    1
    24    18    19    1
    25    18    22   ar
    26    19    20    1
    27    20    21    1
    28    22    23   ar
    29    25    26    1
    30    26    27   am
    31    26    34    2
    32    27    28    1
    33    27    33    1
    34    28    29    1
    35    29    30    1
    36    30    31    1
    37    31    32    1
    38    32    33    1
