@<TRIPOS>MOLECULE
35470_ChemDiv_C067-0007
 24 26 0 0 0
SMALL
GASTEIGER
Energy = 0

@<TRIPOS>ATOM
      1 N           0.0000   -2.5000    0.0000 N.ar    1  LIG1       -0.2904
      2 C          -0.8670   -2.0000    0.0000 C.ar    1  LIG1        0.2609
      3 C          -1.7330   -2.5000    0.0000 C.ar    1  LIG1        0.0562
      4 C          -1.7330   -3.5000    0.0000 C.ar    1  LIG1        0.0057
      5 C          -0.8670   -4.0000    0.0000 C.ar    1  LIG1        0.0130
      6 C           0.0000   -3.5000    0.0000 C.ar    1  LIG1        0.0407
      7 C           0.8670   -4.0040    0.0000 C.3     1  LIG1        0.0501
      8 C          -2.5880   -4.0000    0.0000 C.ar    1  LIG1        0.0002
      9 C          -3.4670   -3.5000    0.0000 C.ar    1  LIG1        0.0000
     10 C          -3.4670   -2.5000    0.0000 C.ar    1  LIG1        0.0002
     11 C          -2.5880   -2.0000    0.0000 C.ar    1  LIG1        0.0047
     12 O          -0.8670   -1.0000    0.0000 O.2     1  LIG1       -0.2670
     13 C           0.8670   -1.9920    0.0000 C.3     1  LIG1        0.1955
     14 C           0.8670   -0.9880    0.0000 C.2     1  LIG1        0.2645
     15 O           0.0000   -0.4880    0.0000 O.2     1  LIG1       -0.2712
     16 N           1.7330   -0.4880    0.0000 N.am    1  LIG1       -0.2034
     17 C           1.7330    0.5080    0.0000 C.3     1  LIG1        0.1195
     18 C           2.5960    1.0040    0.0000 C.3     1  LIG1        0.0451
     19 C           2.5960    2.0080    0.0000 C.2     1  LIG1       -0.0467
     20 C           3.4630    2.5080    0.0000 C.2     1  LIG1       -0.0346
     21 C           3.4630    3.5080    0.0000 C.3     1  LIG1        0.0254
     22 C           2.5960    4.0040    0.0000 C.3     1  LIG1        0.0050
     23 C           1.7330    3.5080    0.0000 C.3     1  LIG1        0.0047
     24 C           1.7330    2.5080    0.0000 C.3     1  LIG1        0.0218
@<TRIPOS>BOND
     1     1     2   ar
     2     1     6   ar
     3     1    13    1
     4     2     3   ar
     5     2    12    2
     6     3     4   ar
     7     3    11   ar
     8     4     5   ar
     9     4     8   ar
    10     5     6   ar
    11     6     7    1
    12     8     9   ar
    13     9    10   ar
    14    10    11   ar
    15    13    14    1
    16    14    15    2
    17    14    16   am
    18    16    17    1
    19    17    18    1
    20    18    19    1
    21    19    20    2
    22    19    24    1
    23    20    21    1
    24    21    22    1
    25    22    23    1
    26    23    24    1
