@<TRIPOS>MOLECULE
35478_ChemDiv_E587-0682
 30 32 0 0 0
SMALL
GASTEIGER
Energy = 0

@<TRIPOS>ATOM
      1 N          -1.6130    0.8290    0.0000 N.ar    1  LIG1       -0.3173
      2 C          -0.8000    1.4130    0.0000 C.ar    1  LIG1        0.0825
      3 C          -1.1130    2.3670    0.0000 C.ar    1  LIG1        0.0443
      4 C          -2.1130    2.3670    0.0000 C.ar    1  LIG1        0.0229
      5 C          -2.4210    1.4130    0.0000 C.ar    1  LIG1        0.0608
      6 C          -3.3960    1.2000    0.0000 C.ar    1  LIG1        0.0172
      7 C          -4.0630    1.9420    0.0000 C.ar    1  LIG1        0.0015
      8 C          -3.7630    2.9000    0.0000 C.ar    1  LIG1        0.0001
      9 C          -2.7790    3.1080    0.0000 C.ar    1  LIG1        0.0020
     10 S          -0.5250    3.1750    0.0000 S.3     1  LIG1       -0.1023
     11 C           0.4710    3.0790    0.0000 C.3     1  LIG1        0.1471
     12 C           0.8790    2.1540    0.0000 C.2     1  LIG1        0.2370
     13 N           1.8670    2.0630    0.0000 N.am    1  LIG1       -0.2788
     14 C           2.2000    1.0790    0.0000 C.3     1  LIG1        0.0934
     15 C           2.9790    0.6790    0.0000 C.3     1  LIG1        0.0215
     16 C           3.8790    1.1420    0.0000 C.3     1  LIG1        0.0018
     17 C           4.0580    2.2000    0.0000 C.3     1  LIG1        0.0018
     18 C           3.3330    2.9880    0.0000 C.3     1  LIG1        0.0215
     19 C           2.3170    2.8540    0.0000 C.3     1  LIG1        0.0934
     20 O           0.3040    1.3420    0.0000 O.2     1  LIG1       -0.2739
     21 C          -1.6130   -0.1710    0.0000 C.3     1  LIG1        0.1919
     22 C          -0.7500   -0.6670    0.0000 C.2     1  LIG1        0.2486
     23 N          -0.7500   -1.6670    0.0000 N.am    1  LIG1       -0.2812
     24 C          -1.6130   -2.1710    0.0000 C.3     1  LIG1        0.0754
     25 C          -2.4790   -1.6710    0.0000 C.3     1  LIG1        0.0215
     26 C          -1.6130   -3.1710    0.0000 C.3     1  LIG1        0.0215
     27 C           0.1210   -2.1670    0.0000 C.3     1  LIG1        0.0754
     28 C           0.9880   -1.6670    0.0000 C.3     1  LIG1        0.0215
     29 C           0.1210   -3.1710    0.0000 C.3     1  LIG1        0.0215
     30 O           0.1130   -0.1710    0.0000 O.2     1  LIG1       -0.2728
@<TRIPOS>BOND
     1     1     2   ar
     2     1     5   ar
     3     1    21    1
     4     2     3   ar
     5     3     4   ar
     6     3    10    1
     7     4     5   ar
     8     4     9   ar
     9     5     6   ar
    10     6     7   ar
    11     7     8   ar
    12     8     9   ar
    13    10    11    1
    14    11    12    1
    15    12    13   am
    16    12    20    2
    17    13    14    1
    18    13    19    1
    19    14    15    1
    20    15    16    1
    21    16    17    1
    22    17    18    1
    23    18    19    1
    24    21    22    1
    25    22    23   am
    26    22    30    2
    27    23    24    1
    28    23    27    1
    29    24    25    1
    30    24    26    1
    31    27    28    1
    32    27    29    1
