@<TRIPOS>MOLECULE
35473_ChemDiv_K221-3423
 32 36 0 0 0
SMALL
GASTEIGER
Energy = 0

@<TRIPOS>ATOM
      1 N           2.8380   -0.6670    0.0000 N.ar    1  LIG1       -0.2431
      2 C           2.8380   -1.6670    0.0000 C.ar    1  LIG1        0.3527
      3 N           1.9630   -2.1630    0.0000 N.ar    1  LIG1       -0.1920
      4 C           1.1040   -1.6670    0.0000 C.ar    1  LIG1        0.0907
      5 C           1.1040   -0.6670    0.0000 C.ar    1  LIG1        0.0741
      6 C           1.9630   -0.1670    0.0000 C.ar    1  LIG1        0.2659
      7 O           1.9630    0.8330    0.0000 O.2     1  LIG1       -0.2668
      8 C           0.2420   -0.1670    0.0000 C.ar    1  LIG1        0.0064
      9 C          -0.6210   -0.6670    0.0000 C.ar    1  LIG1        0.0048
     10 C          -0.6210   -1.6670    0.0000 C.ar    1  LIG1        0.0565
     11 C          -1.5000   -2.1750    0.0000 C.2     1  LIG1        0.2648
     12 N          -2.3670   -1.6750    0.0000 N.am    1  LIG1       -0.2034
     13 C          -3.2290   -2.1790    0.0000 C.3     1  LIG1        0.0956
     14 C          -4.1000   -1.6790    0.0000 C.3     1  LIG1        0.0217
     15 C          -5.0420   -2.0580    0.0000 C.3     1  LIG1        0.0018
     16 C          -5.3290   -3.0210    0.0000 C.3     1  LIG1        0.0001
     17 C          -4.7380   -3.8290    0.0000 C.3     1  LIG1        0.0001
     18 C          -3.7540   -3.9040    0.0000 C.3     1  LIG1        0.0018
     19 C          -3.0750   -3.1710    0.0000 C.3     1  LIG1        0.0217
     20 O          -1.4920   -3.1710    0.0000 O.2     1  LIG1       -0.2684
     21 C           0.2420   -2.1630    0.0000 C.ar    1  LIG1        0.0240
     22 O           3.7040   -2.1750    0.0000 O.2     1  LIG1       -0.2444
     23 C           3.7040   -0.1670    0.0000 C.3     1  LIG1        0.1404
     24 C           3.7130    0.8330    0.0000 C.ar    1  LIG1        0.0038
     25 C           4.5670    1.3290    0.0000 C.ar    1  LIG1        0.0378
     26 C           4.5670    2.3330    0.0000 C.ar    1  LIG1        0.1762
     27 C           3.7130    2.8330    0.0000 C.ar    1  LIG1        0.1764
     28 O           3.9250    3.8130    0.0000 O.3     1  LIG1       -0.4346
     29 C           4.9170    3.9080    0.0000 C.3     1  LIG1        0.4294
     30 O           5.3250    3.0080    0.0000 O.3     1  LIG1       -0.4346
     31 C           2.8420    2.3330    0.0000 C.ar    1  LIG1        0.0399
     32 C           2.8420    1.3290    0.0000 C.ar    1  LIG1        0.0009
@<TRIPOS>BOND
     1     1     2   ar
     2     1     6   ar
     3     1    23    1
     4     2     3   ar
     5     2    22    2
     6     3     4   ar
     7     4     5   ar
     8     4    21   ar
     9     5     6   ar
    10     5     8   ar
    11     6     7    2
    12     8     9   ar
    13     9    10   ar
    14    10    11    1
    15    10    21   ar
    16    11    12   am
    17    11    20    2
    18    12    13    1
    19    13    14    1
    20    13    19    1
    21    14    15    1
    22    15    16    1
    23    16    17    1
    24    17    18    1
    25    18    19    1
    26    23    24    1
    27    24    25   ar
    28    24    32   ar
    29    25    26   ar
    30    26    27   ar
    31    26    30    1
    32    27    28    1
    33    27    31   ar
    34    28    29    1
    35    29    30    1
    36    31    32   ar
