@<TRIPOS>MOLECULE
35476_ChemDiv_E587-0645
 37 40 0 0 0
SMALL
GASTEIGER
Energy = 0

@<TRIPOS>ATOM
      1 N          -2.9250    1.0830    0.0000 N.ar    1  LIG1       -0.3173
      2 C          -2.1130    1.6670    0.0000 C.ar    1  LIG1        0.0825
      3 C          -2.4250    2.6210    0.0000 C.ar    1  LIG1        0.0443
      4 C          -3.4250    2.6210    0.0000 C.ar    1  LIG1        0.0229
      5 C          -3.7290    1.6670    0.0000 C.ar    1  LIG1        0.0608
      6 C          -4.7080    1.4580    0.0000 C.ar    1  LIG1        0.0172
      7 C          -5.3710    2.1960    0.0000 C.ar    1  LIG1        0.0015
      8 C          -5.0710    3.1540    0.0000 C.ar    1  LIG1        0.0001
      9 C          -4.0880    3.3580    0.0000 C.ar    1  LIG1        0.0020
     10 S          -1.8380    3.4250    0.0000 S.3     1  LIG1       -0.1023
     11 C          -0.8460    3.3290    0.0000 C.3     1  LIG1        0.1487
     12 C          -0.4380    2.4080    0.0000 C.2     1  LIG1        0.2527
     13 O          -1.0210    1.5920    0.0000 O.2     1  LIG1       -0.2724
     14 N           0.5500    2.3170    0.0000 N.am    1  LIG1       -0.2043
     15 C           0.9710    1.4130    0.0000 C.3     1  LIG1        0.1198
     16 C           1.9710    1.3210    0.0000 C.3     1  LIG1        0.0499
     17 C           2.3880    0.4000    0.0000 C.ar    1  LIG1       -0.0172
     18 C           3.3750    0.3130    0.0000 C.ar    1  LIG1        0.0358
     19 C           3.7960   -0.6080    0.0000 C.ar    1  LIG1        0.1721
     20 C           3.2080   -1.4210    0.0000 C.ar    1  LIG1        0.1724
     21 C           2.2130   -1.3210    0.0000 C.ar    1  LIG1        0.0397
     22 C           1.8040   -0.4170    0.0000 C.ar    1  LIG1       -0.0009
     23 O           3.6250   -2.3330    0.0000 O.3     1  LIG1       -0.4684
     24 C           4.6290   -2.4250    0.0000 C.3     1  LIG1        0.2526
     25 O           4.7920   -0.7040    0.0000 O.3     1  LIG1       -0.4684
     26 C           5.3670    0.1130    0.0000 C.3     1  LIG1        0.2526
     27 C          -2.9250    0.0880    0.0000 C.3     1  LIG1        0.1919
     28 C          -2.0630   -0.4130    0.0000 C.2     1  LIG1        0.2489
     29 N          -2.0630   -1.4080    0.0000 N.am    1  LIG1       -0.2730
     30 C          -1.2040   -1.9130    0.0000 C.3     1  LIG1        0.1229
     31 C          -1.2040   -2.9080    0.0000 C.3     1  LIG1        0.1350
     32 O          -2.0630   -3.4170    0.0000 O.3     1  LIG1       -0.3552
     33 C          -2.9250   -2.9170    0.0000 C.3     1  LIG1        0.1350
     34 C          -2.9250   -1.9130    0.0000 C.3     1  LIG1        0.1229
     35 C          -3.7880   -3.4210    0.0000 C.3     1  LIG1        0.0339
     36 C          -0.3250   -3.4170    0.0000 C.3     1  LIG1        0.0339
     37 O          -1.2040    0.0880    0.0000 O.2     1  LIG1       -0.2728
@<TRIPOS>BOND
     1     1     2   ar
     2     1     5   ar
     3     1    27    1
     4     2     3   ar
     5     3     4   ar
     6     3    10    1
     7     4     5   ar
     8     4     9   ar
     9     5     6   ar
    10     6     7   ar
    11     7     8   ar
    12     8     9   ar
    13    10    11    1
    14    11    12    1
    15    12    13    2
    16    12    14   am
    17    14    15    1
    18    15    16    1
    19    16    17    1
    20    17    18   ar
    21    17    22   ar
    22    18    19   ar
    23    19    20   ar
    24    19    25    1
    25    20    21   ar
    26    20    23    1
    27    21    22   ar
    28    23    24    1
    29    25    26    1
    30    27    28    1
    31    28    29   am
    32    28    37    2
    33    29    30    1
    34    29    34    1
    35    30    31    1
    36    31    32    1
    37    31    36    1
    38    32    33    1
    39    33    34    1
    40    33    35    1
