@<TRIPOS>MOLECULE
35472_ChemDiv_C115-0019
 33 36 0 0 0
SMALL
GASTEIGER
Energy = 0

@<TRIPOS>ATOM
      1 N          -0.8750    3.4960    0.0000 N.ar    1  LIG1       -0.2904
      2 C          -0.0170    4.0000    0.0000 C.ar    1  LIG1        0.2609
      3 C          -0.0170    4.9920    0.0000 C.ar    1  LIG1        0.0562
      4 C          -0.8750    5.4920    0.0000 C.ar    1  LIG1        0.0057
      5 C          -1.7290    4.9920    0.0000 C.ar    1  LIG1        0.0130
      6 C          -1.7290    4.0000    0.0000 C.ar    1  LIG1        0.0407
      7 C          -2.6040    3.4880    0.0000 C.3     1  LIG1        0.0501
      8 C          -0.8750    6.4880    0.0000 C.ar    1  LIG1        0.0002
      9 C          -0.0170    6.9960    0.0000 C.ar    1  LIG1        0.0000
     10 C           0.8580    6.4880    0.0000 C.ar    1  LIG1        0.0002
     11 C           0.8580    5.4920    0.0000 C.ar    1  LIG1        0.0047
     12 O           0.8580    3.5040    0.0000 O.2     1  LIG1       -0.2670
     13 C          -0.8750    2.4790    0.0000 C.3     1  LIG1        0.1956
     14 C          -0.0170    1.9920    0.0000 C.2     1  LIG1        0.2650
     15 N           0.0000    0.9960    0.0000 N.am    1  LIG1       -0.1938
     16 C           0.8710    0.5000    0.0000 C.3     1  LIG1        0.2018
     17 C           0.8670   -0.4880    0.0000 C.2     1  LIG1        0.2677
     18 N           0.0000   -0.9830    0.0000 N.am    1  LIG1       -0.1777
     19 C           0.0000   -1.9920    0.0000 C.ar    1  LIG1        0.0736
     20 C           0.8670   -2.4880    0.0000 C.ar    1  LIG1        0.0197
     21 C           0.8670   -3.4830    0.0000 C.ar    1  LIG1        0.0388
     22 C           0.0000   -3.9960    0.0000 C.ar    1  LIG1        0.1454
     23 O           0.0000   -4.9920    0.0000 O.3     1  LIG1       -0.4535
     24 C           0.8670   -5.4920    0.0000 C.ar    1  LIG1        0.1453
     25 C           0.8670   -6.4960    0.0000 C.ar    1  LIG1        0.0375
     26 C           1.7250   -6.9960    0.0000 C.ar    1  LIG1        0.0031
     27 C           2.6000   -6.4960    0.0000 C.ar    1  LIG1        0.0002
     28 C           2.6000   -5.4920    0.0000 C.ar    1  LIG1        0.0031
     29 C           1.7290   -4.9920    0.0000 C.ar    1  LIG1        0.0375
     30 C          -0.8630   -3.4830    0.0000 C.ar    1  LIG1        0.0388
     31 C          -0.8630   -2.4880    0.0000 C.ar    1  LIG1        0.0197
     32 O           1.7290   -0.9830    0.0000 O.2     1  LIG1       -0.2710
     33 O           0.8580    2.4920    0.0000 O.2     1  LIG1       -0.2712
@<TRIPOS>BOND
     1     1     2   ar
     2     1     6   ar
     3     1    13    1
     4     2     3   ar
     5     2    12    2
     6     3     4   ar
     7     3    11   ar
     8     4     5   ar
     9     4     8   ar
    10     5     6   ar
    11     6     7    1
    12     8     9   ar
    13     9    10   ar
    14    10    11   ar
    15    13    14    1
    16    14    15   am
    17    14    33    2
    18    15    16    1
    19    16    17    1
    20    17    18   am
    21    17    32    2
    22    18    19    1
    23    19    20   ar
    24    19    31   ar
    25    20    21   ar
    26    21    22   ar
    27    22    23    1
    28    22    30   ar
    29    23    24    1
    30    24    25   ar
    31    24    29   ar
    32    25    26   ar
    33    26    27   ar
    34    27    28   ar
    35    28    29   ar
    36    30    31   ar
