@<TRIPOS>MOLECULE
35471_ChemDiv_8017-8406
 19 21 0 0 0
SMALL
GASTEIGER
Energy = 0

@<TRIPOS>ATOM
      1 C          -1.1250   -0.4710    0.0000 C.ar    1  LIG1        0.0296
      2 C          -1.4330    0.4790    0.0000 C.ar    1  LIG1        0.0296
      3 C          -0.6250    1.0710    0.0000 C.ar    1  LIG1        0.0426
      4 N           0.1920    0.4790    0.0000 N.ar    1  LIG1       -0.3134
      5 C          -0.1210   -0.4710    0.0000 C.ar    1  LIG1        0.0426
      6 C           0.3710   -1.3330    0.0000 C.3     1  LIG1        0.0504
      7 C           1.1540    0.7460    0.0000 C.ar    1  LIG1        0.0634
      8 C           1.8670    0.0420    0.0000 C.ar    1  LIG1        0.0175
      9 C           2.8290    0.3080    0.0000 C.ar    1  LIG1        0.0015
     10 C           3.0790    1.2790    0.0000 C.ar    1  LIG1        0.0001
     11 C           2.3580    1.9790    0.0000 C.ar    1  LIG1        0.0015
     12 C           1.3960    1.7080    0.0000 C.ar    1  LIG1        0.0175
     13 C          -0.6380    2.0750    0.0000 C.3     1  LIG1        0.0504
     14 C          -2.4080    0.6920    0.0000 C.ar    1  LIG1        0.0820
     15 N          -3.0830   -0.0460    0.0000 N.ar    1  LIG1       -0.1526
     16 N          -2.7750   -0.9960    0.0000 N.ar    1  LIG1       -0.1526
     17 C          -1.7960   -1.2080    0.0000 C.ar    1  LIG1        0.0820
     18 C          -1.3080   -2.0710    0.0000 C.3     1  LIG1        0.0540
     19 C          -2.6710    1.6670    0.0000 C.3     1  LIG1        0.0540
@<TRIPOS>BOND
     1     1     2   ar
     2     1     5   ar
     3     1    17   ar
     4     2     3   ar
     5     2    14   ar
     6     3     4   ar
     7     3    13    1
     8     4     5   ar
     9     4     7    1
    10     5     6    1
    11     7     8   ar
    12     7    12   ar
    13     8     9   ar
    14     9    10   ar
    15    10    11   ar
    16    11    12   ar
    17    14    15   ar
    18    14    19    1
    19    15    16   ar
    20    16    17   ar
    21    17    18    1
