@<TRIPOS>MOLECULE
35479_ChemDiv_K284-1599
 32 35 0 0 0
SMALL
GASTEIGER
Energy = 0

@<TRIPOS>ATOM
      1 N           2.5670   -1.0380    0.0000 N.ar    1  LIG1       -0.2750
      2 C           2.5670   -2.0420    0.0000 C.ar    1  LIG1        0.1838
      3 N           1.6920   -2.5330    0.0000 N.ar    1  LIG1       -0.2217
      4 C           0.8380   -2.0420    0.0000 C.ar    1  LIG1        0.0881
      5 C           0.8380   -1.0380    0.0000 C.ar    1  LIG1        0.0739
      6 C           1.6920   -0.5420    0.0000 C.ar    1  LIG1        0.2637
      7 O           1.6920    0.4630    0.0000 O.2     1  LIG1       -0.2669
      8 C          -0.0290   -0.5420    0.0000 C.ar    1  LIG1        0.0064
      9 C          -0.8960   -1.0500    0.0000 C.ar    1  LIG1        0.0048
     10 C          -0.8960   -2.0420    0.0000 C.ar    1  LIG1        0.0551
     11 C          -1.7750   -2.5460    0.0000 C.2     1  LIG1        0.2491
     12 N          -2.6500   -2.0420    0.0000 N.am    1  LIG1       -0.2761
     13 C          -3.5080   -2.5460    0.0000 C.3     1  LIG1        0.0942
     14 C          -4.3710   -2.0330    0.0000 C.3     1  LIG1        0.0307
     15 C          -4.3630   -1.0290    0.0000 C.3     1  LIG1        0.0833
     16 C          -5.2250   -0.5210    0.0000 C.2     1  LIG1        0.2604
     17 O          -5.2170    0.4830    0.0000 O.2     1  LIG1       -0.2717
     18 N          -6.0920   -1.0130    0.0000 N.am    1  LIG1       -0.0878
     19 C          -3.4830   -0.5380    0.0000 C.3     1  LIG1        0.0307
     20 C          -2.6290   -1.0380    0.0000 C.3     1  LIG1        0.0942
     21 O          -1.7750   -3.5380    0.0000 O.2     1  LIG1       -0.2699
     22 C          -0.0290   -2.5330    0.0000 C.ar    1  LIG1        0.0238
     23 S           3.4460   -2.5460    0.0000 S.2     1  LIG1       -0.0109
     24 C           3.4460   -0.5380    0.0000 C.3     1  LIG1        0.1128
     25 C           3.4460    0.4710    0.0000 C.3     1  LIG1        0.0461
     26 C           4.3000    0.9750    0.0000 C.3     1  LIG1        0.0954
     27 N           4.3000    1.9670    0.0000 N.am    1  LIG1       -0.2795
     28 C           5.1710    2.4710    0.0000 C.2     1  LIG1        0.2257
     29 O           6.0920    2.0670    0.0000 O.2     1  LIG1       -0.2749
     30 C           4.9580    3.4420    0.0000 C.3     1  LIG1        0.0870
     31 C           3.9790    3.5420    0.0000 C.3     1  LIG1        0.0311
     32 C           3.5670    2.6420    0.0000 C.3     1  LIG1        0.0939
@<TRIPOS>BOND
     1     1     2   ar
     2     1     6   ar
     3     1    24    1
     4     2     3   ar
     5     2    23    2
     6     3     4   ar
     7     4     5   ar
     8     4    22   ar
     9     5     6   ar
    10     5     8   ar
    11     6     7    2
    12     8     9   ar
    13     9    10   ar
    14    10    11    1
    15    10    22   ar
    16    11    12   am
    17    11    21    2
    18    12    13    1
    19    12    20    1
    20    13    14    1
    21    14    15    1
    22    15    16    1
    23    15    19    1
    24    16    17    2
    25    16    18   am
    26    19    20    1
    27    24    25    1
    28    25    26    1
    29    26    27    1
    30    27    28   am
    31    27    32    1
    32    28    29    2
    33    28    30    1
    34    30    31    1
    35    31    32    1
