@<TRIPOS>MOLECULE
35482_ChemDiv_E587-0737
 34 37 0 0 0
SMALL
GASTEIGER
Energy = 0

@<TRIPOS>ATOM
      1 N          -2.6920    0.8290    0.0000 N.ar    1  LIG1       -0.3173
      2 C          -1.8830    1.4130    0.0000 C.ar    1  LIG1        0.0825
      3 C          -2.1960    2.3670    0.0000 C.ar    1  LIG1        0.0443
      4 C          -3.1920    2.3670    0.0000 C.ar    1  LIG1        0.0229
      5 C          -3.5000    1.4130    0.0000 C.ar    1  LIG1        0.0608
      6 C          -4.4750    1.2000    0.0000 C.ar    1  LIG1        0.0172
      7 C          -5.1420    1.9420    0.0000 C.ar    1  LIG1        0.0015
      8 C          -4.8420    2.9000    0.0000 C.ar    1  LIG1        0.0001
      9 C          -3.8580    3.1080    0.0000 C.ar    1  LIG1        0.0020
     10 S          -1.6040    3.1710    0.0000 S.3     1  LIG1       -0.1023
     11 C          -0.6130    3.0750    0.0000 C.3     1  LIG1        0.1487
     12 C          -0.2040    2.1540    0.0000 C.2     1  LIG1        0.2530
     13 N           0.7960    2.0500    0.0000 N.am    1  LIG1       -0.1998
     14 C           1.2040    1.1290    0.0000 C.3     1  LIG1        0.1416
     15 C           2.2000    1.0250    0.0000 C.ar    1  LIG1        0.0027
     16 C           2.5920    0.1040    0.0000 C.ar    1  LIG1        0.0376
     17 C           3.5960   -0.0040    0.0000 C.ar    1  LIG1        0.1762
     18 C           4.1790    0.8080    0.0000 C.ar    1  LIG1        0.1764
     19 O           5.1380    0.5040    0.0000 O.3     1  LIG1       -0.4346
     20 C           5.1380   -0.4920    0.0000 C.3     1  LIG1        0.4294
     21 O           4.1880   -0.8040    0.0000 O.3     1  LIG1       -0.4346
     22 C           3.7630    1.7290    0.0000 C.ar    1  LIG1        0.0399
     23 C           2.7750    1.8210    0.0000 C.ar    1  LIG1        0.0008
     24 O          -0.8040    1.3540    0.0000 O.2     1  LIG1       -0.2724
     25 C          -2.6920   -0.1710    0.0000 C.3     1  LIG1        0.1919
     26 C          -1.8330   -0.6670    0.0000 C.2     1  LIG1        0.2486
     27 N          -1.8330   -1.6670    0.0000 N.am    1  LIG1       -0.2812
     28 C          -0.9580   -2.1670    0.0000 C.3     1  LIG1        0.0754
     29 C          -0.0920   -1.6670    0.0000 C.3     1  LIG1        0.0215
     30 C          -0.9580   -3.1670    0.0000 C.3     1  LIG1        0.0215
     31 C          -2.6920   -2.1710    0.0000 C.3     1  LIG1        0.0754
     32 C          -3.5580   -1.6710    0.0000 C.3     1  LIG1        0.0215
     33 C          -2.6920   -3.1670    0.0000 C.3     1  LIG1        0.0215
     34 O          -0.9710   -0.1710    0.0000 O.2     1  LIG1       -0.2728
@<TRIPOS>BOND
     1     1     2   ar
     2     1     5   ar
     3     1    25    1
     4     2     3   ar
     5     3     4   ar
     6     3    10    1
     7     4     5   ar
     8     4     9   ar
     9     5     6   ar
    10     6     7   ar
    11     7     8   ar
    12     8     9   ar
    13    10    11    1
    14    11    12    1
    15    12    13   am
    16    12    24    2
    17    13    14    1
    18    14    15    1
    19    15    16   ar
    20    15    23   ar
    21    16    17   ar
    22    17    18   ar
    23    17    21    1
    24    18    19    1
    25    18    22   ar
    26    19    20    1
    27    20    21    1
    28    22    23   ar
    29    25    26    1
    30    26    27   am
    31    26    34    2
    32    27    28    1
    33    27    31    1
    34    28    29    1
    35    28    30    1
    36    31    32    1
    37    31    33    1
