@<TRIPOS>MOLECULE
35483_ChemDiv_K284-7502
 35 37 0 0 0
SMALL
GASTEIGER
Energy = 0

@<TRIPOS>ATOM
      1 N          -0.0080   -1.7380    0.0000 N.ar    1  LIG1       -0.2708
      2 C          -0.8710   -1.2380    0.0000 C.ar    1  LIG1        0.2641
      3 C          -1.7330   -1.7380    0.0000 C.ar    1  LIG1        0.0771
      4 C          -1.7330   -2.7330    0.0000 C.ar    1  LIG1        0.0912
      5 N          -0.8710   -3.2330    0.0000 N.ar    1  LIG1       -0.2216
      6 C          -0.0080   -2.7330    0.0000 C.ar    1  LIG1        0.1841
      7 S           0.8670   -3.2420    0.0000 S.2     1  LIG1       -0.0109
      8 C          -2.5920   -3.2330    0.0000 C.ar    1  LIG1        0.0593
      9 C          -3.4540   -2.7330    0.0000 C.ar    1  LIG1        0.1737
     10 C          -3.4540   -1.7380    0.0000 C.ar    1  LIG1        0.1725
     11 C          -2.5920   -1.2380    0.0000 C.ar    1  LIG1        0.0463
     12 O          -4.3290   -1.2380    0.0000 O.3     1  LIG1       -0.4724
     13 C          -5.1920   -1.7500    0.0000 C.3     1  LIG1        0.2057
     14 C          -6.0630   -1.2500    0.0000 C.3     1  LIG1        0.0512
     15 O          -4.3290   -3.2420    0.0000 O.3     1  LIG1       -0.4724
     16 C          -5.2080   -2.7460    0.0000 C.3     1  LIG1        0.2057
     17 C          -6.0630   -3.2500    0.0000 C.3     1  LIG1        0.0512
     18 O          -0.8710   -0.2420    0.0000 O.2     1  LIG1       -0.2669
     19 C           0.8670   -1.2380    0.0000 C.3     1  LIG1        0.1377
     20 C           0.8670   -0.2420    0.0000 C.ar    1  LIG1        0.0005
     21 C           0.0040    0.2580    0.0000 C.ar    1  LIG1       -0.0022
     22 C           0.0040    1.2580    0.0000 C.ar    1  LIG1        0.0043
     23 C           0.8670    1.7580    0.0000 C.ar    1  LIG1        0.0550
     24 C           0.8670    2.7540    0.0000 C.2     1  LIG1        0.2650
     25 O           0.0040    3.2540    0.0000 O.2     1  LIG1       -0.2684
     26 N           1.7290    3.2540    0.0000 N.am    1  LIG1       -0.1953
     27 C           2.6000    2.7540    0.0000 C.3     1  LIG1        0.1778
     28 C           3.4670    3.2540    0.0000 C.3     1  LIG1        0.1624
     29 N           4.3250    2.7540    0.0000 N.4     1  LIG1        0.3786
     30 C           4.3250    1.7500    0.0000 C.3     1  LIG1        0.1388
     31 C           3.4670    1.2540    0.0000 C.3     1  LIG1        0.0688
     32 C           5.1960    3.2540    0.0000 C.3     1  LIG1        0.1388
     33 C           6.0630    2.7540    0.0000 C.3     1  LIG1        0.0688
     34 C           1.7420    1.2580    0.0000 C.ar    1  LIG1        0.0043
     35 C           1.7420    0.2580    0.0000 C.ar    1  LIG1       -0.0022
@<TRIPOS>BOND
     1     1     2   ar
     2     1     6   ar
     3     1    19    1
     4     2     3   ar
     5     2    18    2
     6     3     4   ar
     7     3    11   ar
     8     4     5   ar
     9     4     8   ar
    10     5     6   ar
    11     6     7    2
    12     8     9   ar
    13     9    10   ar
    14     9    15    1
    15    10    11   ar
    16    10    12    1
    17    12    13    1
    18    13    14    1
    19    15    16    1
    20    16    17    1
    21    19    20    1
    22    20    21   ar
    23    20    35   ar
    24    21    22   ar
    25    22    23   ar
    26    23    24    1
    27    23    34   ar
    28    24    25    2
    29    24    26   am
    30    26    27    1
    31    27    28    1
    32    28    29    1
    33    29    30    1
    34    29    32    1
    35    30    31    1
    36    32    33    1
    37    34    35   ar
