@<TRIPOS>MOLECULE
35485_ChemDiv_K288-0093
 24 26 0 0 0
SMALL
GASTEIGER
Energy = 0

@<TRIPOS>ATOM
      1 N           0.4460    2.7380    0.0000 N.ar    1  LIG1       -0.2750
      2 C           1.3000    2.2330    0.0000 C.ar    1  LIG1        0.1838
      3 N           1.3000    1.2290    0.0000 N.ar    1  LIG1       -0.2217
      4 C           0.4330    0.7540    0.0000 C.ar    1  LIG1        0.0881
      5 C          -0.4210    1.2460    0.0000 C.ar    1  LIG1        0.0739
      6 C          -0.4250    2.2460    0.0000 C.ar    1  LIG1        0.2637
      7 O          -1.2880    2.7460    0.0000 O.2     1  LIG1       -0.2669
      8 C          -1.2880    0.7580    0.0000 C.ar    1  LIG1        0.0064
      9 C          -1.2920   -0.2460    0.0000 C.ar    1  LIG1        0.0048
     10 C          -0.4380   -0.7500    0.0000 C.ar    1  LIG1        0.0565
     11 C          -0.4380   -1.7540    0.0000 C.2     1  LIG1        0.2648
     12 N          -1.3040   -2.2460    0.0000 N.am    1  LIG1       -0.2034
     13 C          -1.3040   -3.2420    0.0000 C.3     1  LIG1        0.0956
     14 C          -0.4500   -3.7420    0.0000 C.3     1  LIG1        0.0217
     15 C          -0.4500   -4.7460    0.0000 C.3     1  LIG1        0.0018
     16 C          -1.3330   -5.2420    0.0000 C.3     1  LIG1        0.0001
     17 C          -2.1880   -4.7290    0.0000 C.3     1  LIG1        0.0018
     18 C          -2.1880   -3.7250    0.0000 C.3     1  LIG1        0.0217
     19 O           0.4330   -2.2460    0.0000 O.2     1  LIG1       -0.2684
     20 C           0.4330   -0.2460    0.0000 C.ar    1  LIG1        0.0239
     21 S           2.1830    2.7380    0.0000 S.2     1  LIG1       -0.0109
     22 C           0.4460    3.7500    0.0000 C.3     1  LIG1        0.1110
     23 C          -0.4210    4.2380    0.0000 C.3     1  LIG1        0.0247
     24 C          -0.4130    5.2420    0.0000 C.3     1  LIG1        0.0021
@<TRIPOS>BOND
     1     1     2   ar
     2     1     6   ar
     3     1    22    1
     4     2     3   ar
     5     2    21    2
     6     3     4   ar
     7     4     5   ar
     8     4    20   ar
     9     5     6   ar
    10     5     8   ar
    11     6     7    2
    12     8     9   ar
    13     9    10   ar
    14    10    11    1
    15    10    20   ar
    16    11    12   am
    17    11    19    2
    18    12    13    1
    19    13    14    1
    20    13    18    1
    21    14    15    1
    22    15    16    1
    23    16    17    1
    24    17    18    1
    25    22    23    1
    26    23    24    1
