@<TRIPOS>MOLECULE
35489_ChemDiv_C115-0056
 31 34 0 0 0
SMALL
GASTEIGER
Energy = 0

@<TRIPOS>ATOM
      1 N           0.3960    2.0130    0.0000 N.ar    1  LIG1       -0.2904
      2 C           1.2580    2.5170    0.0000 C.ar    1  LIG1        0.2609
      3 C           1.2580    3.5170    0.0000 C.ar    1  LIG1        0.0562
      4 C           0.3960    4.0130    0.0000 C.ar    1  LIG1        0.0057
      5 C          -0.4580    3.5170    0.0000 C.ar    1  LIG1        0.0130
      6 C          -0.4580    2.5170    0.0000 C.ar    1  LIG1        0.0407
      7 C          -1.3380    2.0040    0.0000 C.3     1  LIG1        0.0501
      8 C           0.3960    5.0080    0.0000 C.ar    1  LIG1        0.0002
      9 C           1.2580    5.5210    0.0000 C.ar    1  LIG1        0.0000
     10 C           2.1380    5.0080    0.0000 C.ar    1  LIG1        0.0002
     11 C           2.1380    4.0130    0.0000 C.ar    1  LIG1        0.0047
     12 O           2.1380    2.0210    0.0000 O.2     1  LIG1       -0.2670
     13 C           0.3960    0.9920    0.0000 C.3     1  LIG1        0.1956
     14 C           1.2580    0.5040    0.0000 C.2     1  LIG1        0.2650
     15 N           1.2750   -0.4960    0.0000 N.am    1  LIG1       -0.1939
     16 C           2.1540   -0.9960    0.0000 C.3     1  LIG1        0.1998
     17 C           2.1460   -1.9830    0.0000 C.2     1  LIG1        0.2479
     18 N           1.2750   -2.4830    0.0000 N.am    1  LIG1       -0.2746
     19 C           0.4130   -1.9830    0.0000 C.3     1  LIG1        0.1149
     20 C          -0.4420   -2.4830    0.0000 C.3     1  LIG1        0.1123
     21 N          -0.4330   -3.4960    0.0000 N.pl3   1  LIG1       -0.3041
     22 C           0.4290   -3.9790    0.0000 C.3     1  LIG1        0.1123
     23 C           1.2750   -3.4790    0.0000 C.3     1  LIG1        0.1149
     24 C          -1.2920   -4.0080    0.0000 C.ar    1  LIG1        0.0479
     25 C          -2.1540   -3.5210    0.0000 C.ar    1  LIG1        0.0145
     26 C          -3.0170   -4.0250    0.0000 C.ar    1  LIG1        0.0013
     27 C          -3.0170   -5.0210    0.0000 C.ar    1  LIG1        0.0001
     28 C          -2.1540   -5.5210    0.0000 C.ar    1  LIG1        0.0013
     29 C          -1.3040   -5.0210    0.0000 C.ar    1  LIG1        0.0145
     30 O           3.0130   -2.4830    0.0000 O.2     1  LIG1       -0.2729
     31 O           2.1380    1.0040    0.0000 O.2     1  LIG1       -0.2712
@<TRIPOS>BOND
     1     1     2   ar
     2     1     6   ar
     3     1    13    1
     4     2     3   ar
     5     2    12    2
     6     3     4   ar
     7     3    11   ar
     8     4     5   ar
     9     4     8   ar
    10     5     6   ar
    11     6     7    1
    12     8     9   ar
    13     9    10   ar
    14    10    11   ar
    15    13    14    1
    16    14    15   am
    17    14    31    2
    18    15    16    1
    19    16    17    1
    20    17    18   am
    21    17    30    2
    22    18    19    1
    23    18    23    1
    24    19    20    1
    25    20    21    1
    26    21    22    1
    27    21    24    1
    28    22    23    1
    29    24    25   ar
    30    24    29   ar
    31    25    26   ar
    32    26    27   ar
    33    27    28   ar
    34    28    29   ar
