@<TRIPOS>MOLECULE
35480_ChemDiv_E587-0729
 33 35 0 0 0
SMALL
GASTEIGER
Energy = 0

@<TRIPOS>ATOM
      1 N          -1.7960    0.8290    0.0000 N.ar    1  LIG1       -0.3173
      2 C          -0.9830    1.4130    0.0000 C.ar    1  LIG1        0.0825
      3 C          -1.2960    2.3670    0.0000 C.ar    1  LIG1        0.0443
      4 C          -2.2920    2.3670    0.0000 C.ar    1  LIG1        0.0229
      5 C          -2.6000    1.4130    0.0000 C.ar    1  LIG1        0.0608
      6 C          -3.5790    1.2000    0.0000 C.ar    1  LIG1        0.0172
      7 C          -4.2420    1.9420    0.0000 C.ar    1  LIG1        0.0015
      8 C          -3.9420    2.9000    0.0000 C.ar    1  LIG1        0.0001
      9 C          -2.9580    3.1080    0.0000 C.ar    1  LIG1        0.0020
     10 S          -0.7040    3.1710    0.0000 S.3     1  LIG1       -0.1023
     11 C           0.2880    3.0750    0.0000 C.3     1  LIG1        0.1491
     12 C           0.6880    2.1580    0.0000 C.2     1  LIG1        0.2569
     13 N           1.6830    2.0380    0.0000 N.am    1  LIG1       -0.1785
     14 C           2.0710    1.1170    0.0000 C.ar    1  LIG1        0.0734
     15 C           1.4710    0.3080    0.0000 C.ar    1  LIG1        0.0167
     16 C           1.8670   -0.6080    0.0000 C.ar    1  LIG1        0.0042
     17 C           2.8580   -0.7170    0.0000 C.ar    1  LIG1        0.0348
     18 C           3.2580   -1.6420    0.0000 C.2     1  LIG1        0.1735
     19 O           2.6630   -2.4580    0.0000 O.2     1  LIG1       -0.2913
     20 C           4.2380   -1.7580    0.0000 C.3     1  LIG1        0.0773
     21 C           3.4540    0.0830    0.0000 C.ar    1  LIG1        0.0042
     22 C           3.0710    1.0040    0.0000 C.ar    1  LIG1        0.0167
     23 O           0.0920    1.3580    0.0000 O.2     1  LIG1       -0.2720
     24 C          -1.7960   -0.1710    0.0000 C.3     1  LIG1        0.1919
     25 C          -0.9330   -0.6670    0.0000 C.2     1  LIG1        0.2486
     26 N          -0.9330   -1.6670    0.0000 N.am    1  LIG1       -0.2812
     27 C          -0.0580   -2.1670    0.0000 C.3     1  LIG1        0.0754
     28 C          -0.0580   -3.1670    0.0000 C.3     1  LIG1        0.0215
     29 C           0.8080   -1.6670    0.0000 C.3     1  LIG1        0.0215
     30 C          -1.7960   -2.1710    0.0000 C.3     1  LIG1        0.0754
     31 C          -2.6630   -1.6710    0.0000 C.3     1  LIG1        0.0215
     32 C          -1.7960   -3.1670    0.0000 C.3     1  LIG1        0.0215
     33 O          -0.0710   -0.1710    0.0000 O.2     1  LIG1       -0.2728
@<TRIPOS>BOND
     1     1     2   ar
     2     1     5   ar
     3     1    24    1
     4     2     3   ar
     5     3     4   ar
     6     3    10    1
     7     4     5   ar
     8     4     9   ar
     9     5     6   ar
    10     6     7   ar
    11     7     8   ar
    12     8     9   ar
    13    10    11    1
    14    11    12    1
    15    12    13   am
    16    12    23    2
    17    13    14    1
    18    14    15   ar
    19    14    22   ar
    20    15    16   ar
    21    16    17   ar
    22    17    18    1
    23    17    21   ar
    24    18    19    2
    25    18    20    1
    26    21    22   ar
    27    24    25    1
    28    25    26   am
    29    25    33    2
    30    26    27    1
    31    26    30    1
    32    27    28    1
    33    27    29    1
    34    30    31    1
    35    30    32    1
