@<TRIPOS>MOLECULE
35487_ChemDiv_K288-0278
 28 30 0 0 0
SMALL
GASTEIGER
Energy = 0

@<TRIPOS>ATOM
      1 N           0.4080    2.1500    0.0000 N.ar    1  LIG1       -0.2724
      2 C           1.2580    1.6500    0.0000 C.ar    1  LIG1        0.1839
      3 N           1.2580    0.6460    0.0000 N.ar    1  LIG1       -0.2217
      4 C           0.3920    0.1710    0.0000 C.ar    1  LIG1        0.0881
      5 C          -0.4580    0.6630    0.0000 C.ar    1  LIG1        0.0739
      6 C          -0.4630    1.6580    0.0000 C.ar    1  LIG1        0.2638
      7 O          -1.3250    2.1630    0.0000 O.2     1  LIG1       -0.2669
      8 C          -1.3250    0.1750    0.0000 C.ar    1  LIG1        0.0064
      9 C          -1.3290   -0.8290    0.0000 C.ar    1  LIG1        0.0048
     10 C          -0.4750   -1.3290    0.0000 C.ar    1  LIG1        0.0549
     11 C          -0.4750   -2.3330    0.0000 C.2     1  LIG1        0.2460
     12 N          -1.3420   -2.8250    0.0000 N.am    1  LIG1       -0.2959
     13 C          -1.3420   -3.7580    0.0000 C.3     1  LIG1        0.1470
     14 C          -0.5330   -4.2290    0.0000 C.3     1  LIG1        0.1070
     15 N           0.2830   -3.7580    0.0000 N.4     1  LIG1        0.3742
     16 C           1.0920   -4.2290    0.0000 C.3     1  LIG1        0.1385
     17 C           1.0920   -5.1580    0.0000 C.3     1  LIG1        0.0687
     18 C          -0.5330   -5.1580    0.0000 C.3     1  LIG1        0.0646
     19 C           0.2830   -2.8250    0.0000 C.3     1  LIG1        0.1385
     20 C           1.0920   -2.3670    0.0000 C.3     1  LIG1        0.0688
     21 O           0.3920   -2.8250    0.0000 O.2     1  LIG1       -0.2701
     22 C           0.3920   -0.8290    0.0000 C.ar    1  LIG1        0.0238
     23 S           2.1420    2.1500    0.0000 S.2     1  LIG1       -0.0109
     24 C           0.4080    3.1670    0.0000 C.3     1  LIG1        0.1430
     25 C          -0.4580    3.6580    0.0000 C.3     1  LIG1        0.1668
     26 O          -0.4500    4.6580    0.0000 O.3     1  LIG1       -0.3490
     27 C          -1.3080    5.1580    0.0000 C.3     1  LIG1        0.1742
     28 H          -2.1460   -2.3670    0.0000 H       1  LIG1        0.1499
@<TRIPOS>BOND
     1     1     2   ar
     2     1     6   ar
     3     1    24    1
     4     2     3   ar
     5     2    23    2
     6     3     4   ar
     7     4     5   ar
     8     4    22   ar
     9     5     6   ar
    10     5     8   ar
    11     6     7    2
    12     8     9   ar
    13     9    10   ar
    14    10    11    1
    15    10    22   ar
    16    11    12   am
    17    11    21    2
    18    12    13    1
    19    12    28    1
    20    13    14    1
    21    14    15    1
    22    14    18    1
    23    15    16    1
    24    15    19    1
    25    16    17    1
    26    17    18    1
    27    19    20    1
    28    24    25    1
    29    25    26    1
    30    26    27    1
