@<TRIPOS>MOLECULE
35481_ChemDiv_K284-3302
 27 28 0 0 0
SMALL
GASTEIGER
Energy = 0

@<TRIPOS>ATOM
      1 N           3.8920   -1.0000    0.0000 N.ar    1  LIG1       -0.2750
      2 C           3.8920   -1.9960    0.0000 C.ar    1  LIG1        0.1838
      3 N           3.0250   -2.4960    0.0000 N.ar    1  LIG1       -0.2217
      4 C           2.1630   -1.9960    0.0000 C.ar    1  LIG1        0.0881
      5 C           2.1630   -1.0000    0.0000 C.ar    1  LIG1        0.0739
      6 C           3.0250   -0.5000    0.0000 C.ar    1  LIG1        0.2637
      7 O           3.0250    0.5000    0.0000 O.2     1  LIG1       -0.2669
      8 C           1.3040   -0.5000    0.0000 C.ar    1  LIG1        0.0064
      9 C           0.4330   -1.0000    0.0000 C.ar    1  LIG1        0.0048
     10 C           0.4330   -1.9960    0.0000 C.ar    1  LIG1        0.0565
     11 C          -0.4380   -2.5040    0.0000 C.2     1  LIG1        0.2648
     12 O          -0.4290   -3.5040    0.0000 O.2     1  LIG1       -0.2684
     13 N          -1.3080   -2.0040    0.0000 N.am    1  LIG1       -0.2016
     14 C          -2.1670   -2.5080    0.0000 C.3     1  LIG1        0.1181
     15 C          -3.0460   -2.0130    0.0000 C.3     1  LIG1        0.0555
     16 C          -3.9080   -2.5210    0.0000 C.3     1  LIG1        0.1440
     17 O          -4.7670   -2.0250    0.0000 O.3     1  LIG1       -0.3537
     18 C          -5.6290   -2.5330    0.0000 C.3     1  LIG1        0.1422
     19 C          -6.4920   -2.0420    0.0000 C.3     1  LIG1        0.0346
     20 C           1.3040   -2.4960    0.0000 C.ar    1  LIG1        0.0239
     21 S           4.7630   -2.5040    0.0000 S.2     1  LIG1       -0.0109
     22 C           4.7630   -0.5000    0.0000 C.3     1  LIG1        0.1136
     23 C           4.7710    0.5000    0.0000 C.3     1  LIG1        0.0567
     24 C           5.6290    0.9960    0.0000 C.3     1  LIG1        0.1442
     25 O           5.6290    2.0000    0.0000 O.3     1  LIG1       -0.3537
     26 C           6.4920    2.5000    0.0000 C.3     1  LIG1        0.1422
     27 C           6.4920    3.5080    0.0000 C.3     1  LIG1        0.0346
@<TRIPOS>BOND
     1     1     2   ar
     2     1     6   ar
     3     1    22    1
     4     2     3   ar
     5     2    21    2
     6     3     4   ar
     7     4     5   ar
     8     4    20   ar
     9     5     6   ar
    10     5     8   ar
    11     6     7    2
    12     8     9   ar
    13     9    10   ar
    14    10    11    1
    15    10    20   ar
    16    11    12    2
    17    11    13   am
    18    13    14    1
    19    14    15    1
    20    15    16    1
    21    16    17    1
    22    17    18    1
    23    18    19    1
    24    22    23    1
    25    23    24    1
    26    24    25    1
    27    25    26    1
    28    26    27    1
