@<TRIPOS>MOLECULE
35498_ChemDiv_E456-1508
 32 36 0 0 0
SMALL
GASTEIGER
Energy = 0

@<TRIPOS>ATOM
      1 C           1.5380   -2.1630    0.0000 C.ar    1  LIG1        0.0728
      2 C           1.0380   -1.2920    0.0000 C.ar    1  LIG1        0.0875
      3 N           1.5380   -0.4290    0.0000 N.ar    1  LIG1       -0.2730
      4 C           2.5380   -0.4290    0.0000 C.ar    1  LIG1        0.2647
      5 C           3.0380   -1.2920    0.0000 C.ar    1  LIG1        0.0567
      6 C           2.5380   -2.1630    0.0000 C.ar    1  LIG1        0.0105
      7 C           3.0380   -3.0250    0.0000 C.ar    1  LIG1        0.0003
      8 C           4.0370   -3.0250    0.0000 C.ar    1  LIG1        0.0000
      9 C           4.5420   -2.1630    0.0000 C.ar    1  LIG1        0.0002
     10 C           4.0370   -1.2920    0.0000 C.ar    1  LIG1        0.0047
     11 O           3.0380    0.4420    0.0000 O.2     1  LIG1       -0.2666
     12 C           1.0380    0.4420    0.0000 C.ar    1  LIG1        0.0671
     13 C           0.0380    0.4420    0.0000 C.ar    1  LIG1        0.0207
     14 C          -0.4630    1.3000    0.0000 C.ar    1  LIG1        0.0384
     15 C           0.0380    2.1670    0.0000 C.ar    1  LIG1        0.1388
     16 C           1.0380    2.1670    0.0000 C.ar    1  LIG1        0.0384
     17 C           1.5380    1.3000    0.0000 C.ar    1  LIG1        0.0207
     18 O          -0.4630    3.0330    0.0000 O.3     1  LIG1       -0.4714
     19 C           0.0380    3.8960    0.0000 C.3     1  LIG1        0.2525
     20 C           1.0380   -3.0250    0.0000 C.2     1  LIG1        0.2666
     21 N           0.0380   -3.0250    0.0000 N.am    1  LIG1       -0.1968
     22 C          -0.4630   -2.1630    0.0000 C.3     1  LIG1        0.1419
     23 C          -1.4630   -2.1630    0.0000 C.ar    1  LIG1        0.0027
     24 C          -1.9630   -1.2920    0.0000 C.ar    1  LIG1        0.0376
     25 C          -2.9630   -1.2920    0.0000 C.ar    1  LIG1        0.1762
     26 C          -3.4630   -2.1630    0.0000 C.ar    1  LIG1        0.1764
     27 O          -4.4420   -1.9540    0.0000 O.3     1  LIG1       -0.4346
     28 C          -4.5460   -0.9580    0.0000 C.3     1  LIG1        0.4294
     29 O          -3.6330   -0.5540    0.0000 O.3     1  LIG1       -0.4346
     30 C          -2.9630   -3.0250    0.0000 C.ar    1  LIG1        0.0399
     31 C          -1.9630   -3.0250    0.0000 C.ar    1  LIG1        0.0008
     32 O           1.5380   -3.8920    0.0000 O.2     1  LIG1       -0.2683
@<TRIPOS>BOND
     1     1     2   ar
     2     1     6   ar
     3     1    20    1
     4     2     3   ar
     5     3     4   ar
     6     3    12    1
     7     4     5   ar
     8     4    11    2
     9     5     6   ar
    10     5    10   ar
    11     6     7   ar
    12     7     8   ar
    13     8     9   ar
    14     9    10   ar
    15    12    13   ar
    16    12    17   ar
    17    13    14   ar
    18    14    15   ar
    19    15    16   ar
    20    15    18    1
    21    16    17   ar
    22    18    19    1
    23    20    21   am
    24    20    32    2
    25    21    22    1
    26    22    23    1
    27    23    24   ar
    28    23    31   ar
    29    24    25   ar
    30    25    26   ar
    31    25    29    1
    32    26    27    1
    33    26    30   ar
    34    27    28    1
    35    28    29    1
    36    30    31   ar
