@<TRIPOS>MOLECULE
35493_ChemDiv_C197-0254
 31 34 0 0 0
SMALL
GASTEIGER
Energy = 0

@<TRIPOS>ATOM
      1 N           1.1920    3.4290    0.0000 N.ar    1  LIG1       -0.2852
      2 C           2.0500    2.9330    0.0000 C.ar    1  LIG1        0.2612
      3 C           2.9210    3.4250    0.0000 C.ar    1  LIG1        0.0562
      4 C           2.9250    4.4080    0.0000 C.ar    1  LIG1        0.0061
      5 C           2.0750    4.9210    0.0000 C.ar    1  LIG1        0.0189
      6 C           1.2040    4.4330    0.0000 C.ar    1  LIG1        0.0788
      7 C           3.7960    4.9080    0.0000 C.ar    1  LIG1        0.0002
      8 C           4.6580    4.4080    0.0000 C.ar    1  LIG1        0.0000
      9 C           4.6460    3.4170    0.0000 C.ar    1  LIG1        0.0002
     10 C           3.7710    2.9170    0.0000 C.ar    1  LIG1        0.0047
     11 O           2.0500    1.9330    0.0000 O.2     1  LIG1       -0.2670
     12 C           0.3170    2.9500    0.0000 C.3     1  LIG1        0.1958
     13 C           0.3130    1.9500    0.0000 C.2     1  LIG1        0.2646
     14 O          -0.5580    1.4630    0.0000 O.2     1  LIG1       -0.2712
     15 N           1.1710    1.4460    0.0000 N.am    1  LIG1       -0.2033
     16 C           1.1630    0.4420    0.0000 C.3     1  LIG1        0.1248
     17 C           0.3000   -0.0460    0.0000 C.3     1  LIG1        0.1086
     18 C           0.2880   -1.0330    0.0000 C.2     1  LIG1        0.2275
     19 N          -0.5750   -1.5330    0.0000 N.am    1  LIG1       -0.2760
     20 C          -1.4500   -1.0330    0.0000 C.3     1  LIG1        0.1149
     21 C          -2.3000   -1.5330    0.0000 C.3     1  LIG1        0.1137
     22 N          -2.2920   -2.5420    0.0000 N.pl3   1  LIG1       -0.2897
     23 C          -3.0040   -3.2330    0.0000 C.ar    1  LIG1        0.1318
     24 N          -2.7420   -4.2130    0.0000 N.ar    1  LIG1       -0.2292
     25 C          -3.4540   -4.9250    0.0000 C.ar    1  LIG1        0.1003
     26 C          -4.4170   -4.6500    0.0000 C.ar    1  LIG1        0.0208
     27 C          -4.6630   -3.6880    0.0000 C.ar    1  LIG1        0.0045
     28 C          -3.9540   -2.9790    0.0000 C.ar    1  LIG1        0.0343
     29 C          -1.4420   -3.0380    0.0000 C.3     1  LIG1        0.1137
     30 C          -0.5750   -2.5420    0.0000 C.3     1  LIG1        0.1149
     31 O           1.2210   -1.5630    0.0000 O.2     1  LIG1       -0.2748
@<TRIPOS>BOND
     1     1     2   ar
     2     1     6   ar
     3     1    12    1
     4     2     3   ar
     5     2    11    2
     6     3     4   ar
     7     3    10   ar
     8     4     5   ar
     9     4     7   ar
    10     5     6   ar
    11     7     8   ar
    12     8     9   ar
    13     9    10   ar
    14    12    13    1
    15    13    14    2
    16    13    15   am
    17    15    16    1
    18    16    17    1
    19    17    18    1
    20    18    19   am
    21    18    31    2
    22    19    20    1
    23    19    30    1
    24    20    21    1
    25    21    22    1
    26    22    23    1
    27    22    29    1
    28    23    24   ar
    29    23    28   ar
    30    24    25   ar
    31    25    26   ar
    32    26    27   ar
    33    27    28   ar
    34    29    30    1
