@<TRIPOS>MOLECULE
35495_ChemDiv_C197-0282
 33 35 0 0 0
SMALL
GASTEIGER
Energy = 0

@<TRIPOS>ATOM
      1 N           0.8580    4.7380    0.0000 N.ar    1  LIG1       -0.2852
      2 C           1.7210    4.2380    0.0000 C.ar    1  LIG1        0.2612
      3 C           2.5960    4.7290    0.0000 C.ar    1  LIG1        0.0562
      4 C           2.6000    5.7210    0.0000 C.ar    1  LIG1        0.0061
      5 C           1.7460    6.2330    0.0000 C.ar    1  LIG1        0.0189
      6 C           0.8750    5.7460    0.0000 C.ar    1  LIG1        0.0788
      7 C           3.4710    6.2210    0.0000 C.ar    1  LIG1        0.0002
      8 C           4.3330    5.7210    0.0000 C.ar    1  LIG1        0.0000
      9 C           4.3210    4.7210    0.0000 C.ar    1  LIG1        0.0002
     10 C           3.4460    4.2210    0.0000 C.ar    1  LIG1        0.0047
     11 O           1.7210    3.2420    0.0000 O.2     1  LIG1       -0.2670
     12 C          -0.0170    4.2540    0.0000 C.3     1  LIG1        0.1958
     13 C          -0.0210    3.2580    0.0000 C.2     1  LIG1        0.2646
     14 O          -0.8920    2.7670    0.0000 O.2     1  LIG1       -0.2712
     15 N           0.8420    2.7540    0.0000 N.am    1  LIG1       -0.2033
     16 C           0.8330    1.7460    0.0000 C.3     1  LIG1        0.1248
     17 C          -0.0290    1.2580    0.0000 C.3     1  LIG1        0.1102
     18 C          -0.0460    0.2670    0.0000 C.2     1  LIG1        0.2432
     19 O           0.8880   -0.2630    0.0000 O.2     1  LIG1       -0.2733
     20 N          -0.9080   -0.2330    0.0000 N.am    1  LIG1       -0.2053
     21 C          -0.9080   -1.2290    0.0000 C.3     1  LIG1        0.1169
     22 C          -1.7710   -1.7290    0.0000 C.3     1  LIG1        0.0448
     23 C          -1.7710   -2.7420    0.0000 C.3     1  LIG1        0.0926
     24 N          -2.6250   -3.2420    0.0000 N.pl3   1  LIG1       -0.3074
     25 C          -2.6250   -4.2380    0.0000 C.ar    1  LIG1        0.0475
     26 C          -1.7580   -4.7290    0.0000 C.ar    1  LIG1        0.0103
     27 C          -1.7580   -5.7380    0.0000 C.ar    1  LIG1       -0.0206
     28 C          -2.6250   -6.2330    0.0000 C.ar    1  LIG1       -0.0042
     29 C          -3.4750   -5.7380    0.0000 C.ar    1  LIG1        0.0009
     30 C          -3.4750   -4.7290    0.0000 C.ar    1  LIG1        0.0145
     31 C          -0.8920   -6.2330    0.0000 C.3     1  LIG1        0.0311
     32 C          -3.4750   -2.7420    0.0000 C.3     1  LIG1        0.0908
     33 C          -4.3380   -3.2420    0.0000 C.3     1  LIG1        0.0232
@<TRIPOS>BOND
     1     1     2   ar
     2     1     6   ar
     3     1    12    1
     4     2     3   ar
     5     2    11    2
     6     3     4   ar
     7     3    10   ar
     8     4     5   ar
     9     4     7   ar
    10     5     6   ar
    11     7     8   ar
    12     8     9   ar
    13     9    10   ar
    14    12    13    1
    15    13    14    2
    16    13    15   am
    17    15    16    1
    18    16    17    1
    19    17    18    1
    20    18    19    2
    21    18    20   am
    22    20    21    1
    23    21    22    1
    24    22    23    1
    25    23    24    1
    26    24    25    1
    27    24    32    1
    28    25    26   ar
    29    25    30   ar
    30    26    27   ar
    31    27    28   ar
    32    27    31    1
    33    28    29   ar
    34    29    30   ar
    35    32    33    1
