@<TRIPOS>MOLECULE
35491_ChemDiv_C115-0117
 30 32 0 0 0
SMALL
GASTEIGER
Energy = 0

@<TRIPOS>ATOM
      1 N          -0.8040    2.7080    0.0000 N.ar    1  LIG1       -0.2904
      2 C           0.0580    3.2170    0.0000 C.ar    1  LIG1        0.2609
      3 C           0.0580    4.2080    0.0000 C.ar    1  LIG1        0.0562
      4 C          -0.8040    4.7040    0.0000 C.ar    1  LIG1        0.0057
      5 C          -1.6580    4.2080    0.0000 C.ar    1  LIG1        0.0130
      6 C          -1.6580    3.2170    0.0000 C.ar    1  LIG1        0.0407
      7 C          -2.5330    2.7000    0.0000 C.3     1  LIG1        0.0501
      8 C          -0.8040    5.7040    0.0000 C.ar    1  LIG1        0.0002
      9 C           0.0580    6.2130    0.0000 C.ar    1  LIG1        0.0000
     10 C           0.9330    5.7040    0.0000 C.ar    1  LIG1        0.0002
     11 C           0.9330    4.7040    0.0000 C.ar    1  LIG1        0.0047
     12 O           0.9330    2.7170    0.0000 O.2     1  LIG1       -0.2670
     13 C          -0.8040    1.6880    0.0000 C.3     1  LIG1        0.1956
     14 C           0.0580    1.2040    0.0000 C.2     1  LIG1        0.2650
     15 N           0.0750    0.2040    0.0000 N.am    1  LIG1       -0.1938
     16 C           0.9500   -0.2920    0.0000 C.3     1  LIG1        0.2018
     17 C           0.9420   -1.2790    0.0000 C.2     1  LIG1        0.2678
     18 N           0.0750   -1.7790    0.0000 N.am    1  LIG1       -0.1746
     19 C           0.0750   -3.4080    0.0000 C.ar    1  LIG1        0.1070
     20 C           0.9040   -3.8460    0.0000 C.ar    1  LIG1        0.1547
     21 C           0.9290   -4.7790    0.0000 C.ar    1  LIG1        0.0493
     22 C           0.1290   -5.2750    0.0000 C.ar    1  LIG1        0.0568
     23 C          -0.6960   -4.8250    0.0000 C.ar    1  LIG1       -0.0098
     24 C          -0.7170   -3.8920    0.0000 C.ar    1  LIG1        0.0163
     25 C          -1.4960   -5.3250    0.0000 C.3     1  LIG1        0.0320
     26 CL          0.1500   -6.2130    0.0000 Cl      1  LIG1       -0.0825
     27 O           1.7130   -3.3630    0.0000 O.3     1  LIG1       -0.4701
     28 C           2.5290   -3.7710    0.0000 C.3     1  LIG1        0.2525
     29 O           1.8080   -1.7790    0.0000 O.2     1  LIG1       -0.2710
     30 O           0.9330    1.7040    0.0000 O.2     1  LIG1       -0.2712
@<TRIPOS>BOND
     1     1     2   ar
     2     1     6   ar
     3     1    13    1
     4     2     3   ar
     5     2    12    2
     6     3     4   ar
     7     3    11   ar
     8     4     5   ar
     9     4     8   ar
    10     5     6   ar
    11     6     7    1
    12     8     9   ar
    13     9    10   ar
    14    10    11   ar
    15    13    14    1
    16    14    15   am
    17    14    30    2
    18    15    16    1
    19    16    17    1
    20    17    18   am
    21    17    29    2
    22    18    19    1
    23    19    20   ar
    24    19    24   ar
    25    20    21   ar
    26    20    27    1
    27    21    22   ar
    28    22    23   ar
    29    22    26    1
    30    23    24   ar
    31    23    25    1
    32    27    28    1
