@<TRIPOS>MOLECULE
35506_ChemDiv_C660-0125
 24 27 0 0 0
SMALL
GASTEIGER
Energy = 0

@<TRIPOS>ATOM
      1 N           2.0040    0.4000    0.0000 N.ar    1  LIG1       -0.1753
      2 C           1.0580    0.7170    0.0000 C.ar    1  LIG1        0.1697
      3 C           1.0580    1.7170    0.0000 C.ar    1  LIG1        0.0725
      4 C           2.0040    2.0210    0.0000 C.ar    1  LIG1        0.1925
      5 N           2.5920    1.2040    0.0000 N.ar    1  LIG1       -0.1427
      6 N           2.3170    2.9750    0.0000 N.pl3   1  LIG1       -0.1053
      7 C           0.1830    2.2170    0.0000 C.ar    1  LIG1        0.0075
      8 C          -0.6830    1.7170    0.0000 C.ar    1  LIG1        0.0179
      9 C          -0.6830    0.7170    0.0000 C.ar    1  LIG1        0.0826
     10 N           0.1830    0.2130    0.0000 N.ar    1  LIG1       -0.2264
     11 C          -1.5460    0.2130    0.0000 C.ar    1  LIG1        0.0149
     12 C          -2.4130    0.7170    0.0000 C.ar    1  LIG1       -0.0204
     13 C          -2.4130    1.7170    0.0000 C.ar    1  LIG1       -0.0042
     14 C          -1.5460    2.2170    0.0000 C.ar    1  LIG1        0.0012
     15 C          -3.2920    0.2000    0.0000 C.3     1  LIG1        0.0311
     16 C           2.3170   -0.5540    0.0000 C.2     1  LIG1        0.2838
     17 C           1.6380   -1.2880    0.0000 C.ar    1  LIG1        0.0853
     18 C           1.9420   -2.2420    0.0000 C.ar    1  LIG1        0.1447
     19 F           2.9130   -2.5000    0.0000 F       1  LIG1       -0.2040
     20 C           1.2750   -2.9710    0.0000 C.ar    1  LIG1        0.0298
     21 C           0.3040   -2.7580    0.0000 C.ar    1  LIG1        0.0023
     22 C          -0.0040   -1.8080    0.0000 C.ar    1  LIG1        0.0003
     23 C           0.6670   -1.0750    0.0000 C.ar    1  LIG1        0.0071
     24 O           3.2880   -0.7670    0.0000 O.2     1  LIG1       -0.2650
@<TRIPOS>BOND
     1     1     2   ar
     2     1     5   ar
     3     1    16   am
     4     2     3   ar
     5     2    10   ar
     6     3     4   ar
     7     3     7   ar
     8     4     5   ar
     9     4     6    1
    10     7     8   ar
    11     8     9   ar
    12     8    14   ar
    13     9    10   ar
    14     9    11   ar
    15    11    12   ar
    16    12    13   ar
    17    12    15    1
    18    13    14   ar
    19    16    17    1
    20    16    24    2
    21    17    18   ar
    22    17    23   ar
    23    18    19    1
    24    18    20   ar
    25    20    21   ar
    26    21    22   ar
    27    22    23   ar
