@<TRIPOS>MOLECULE
35510_ChemDiv_C066-3165
 34 38 0 0 0
SMALL
GASTEIGER
Energy = 0

@<TRIPOS>ATOM
      1 C           2.4670    2.1130    0.0000 C.ar    1  LIG1        0.0640
      2 C           1.6040    1.6130    0.0000 C.ar    1  LIG1        0.0335
      3 C           1.6040    0.6130    0.0000 C.ar    1  LIG1        0.0824
      4 N           2.4670    0.1130    0.0000 N.ar    1  LIG1       -0.2499
      5 C           3.3290    0.6130    0.0000 C.ar    1  LIG1        0.0563
      6 C           3.3290    1.6130    0.0000 C.ar    1  LIG1        0.0076
      7 C           4.1960    2.1130    0.0000 C.3     1  LIG1        0.0290
      8 C           5.0670    1.6130    0.0000 C.3     1  LIG1        0.0052
      9 C           5.0670    0.6130    0.0000 C.3     1  LIG1        0.0066
     10 C           4.1960    0.1130    0.0000 C.3     1  LIG1        0.0455
     11 C           0.7380    0.1130    0.0000 C.ar    1  LIG1        0.0237
     12 C          -0.1290    0.6130    0.0000 C.ar    1  LIG1        0.0569
     13 C          -1.0040    0.1130    0.0000 C.2     1  LIG1        0.2690
     14 N          -1.0040   -0.8880    0.0000 N.am    1  LIG1       -0.1752
     15 C          -1.7170   -1.5960    0.0000 C.ar    1  LIG1        0.0799
     16 C          -2.6880   -1.3210    0.0000 C.ar    1  LIG1        0.0568
     17 C          -3.4000   -2.0250    0.0000 C.ar    1  LIG1        0.1767
     18 C          -3.1460   -2.9960    0.0000 C.ar    1  LIG1        0.2061
     19 C          -2.1710   -3.2630    0.0000 C.ar    1  LIG1        0.1767
     20 C          -1.4670   -2.5540    0.0000 C.ar    1  LIG1        0.0568
     21 O          -1.9210   -4.2210    0.0000 O.3     1  LIG1       -0.4682
     22 C          -0.9580   -4.4920    0.0000 C.3     1  LIG1        0.2526
     23 O          -3.8540   -3.6920    0.0000 O.3     1  LIG1       -0.4654
     24 C          -3.6130   -4.6630    0.0000 C.3     1  LIG1        0.2528
     25 O          -4.3580   -1.7500    0.0000 O.3     1  LIG1       -0.4682
     26 C          -5.0710   -2.4500    0.0000 C.3     1  LIG1        0.2526
     27 O          -1.8710    0.6130    0.0000 O.2     1  LIG1       -0.2680
     28 C          -0.1290    1.6130    0.0000 C.ar    1  LIG1        0.0047
     29 C           0.7380    2.1130    0.0000 C.ar    1  LIG1        0.0031
     30 N           2.4670    3.1130    0.0000 N.ar    1  LIG1       -0.2866
     31 C           3.2710    3.7040    0.0000 C.ar    1  LIG1        0.1828
     32 N           2.9460    4.6630    0.0000 N.ar    1  LIG1       -0.2220
     33 C           1.9630    4.6460    0.0000 C.ar    1  LIG1        0.1196
     34 C           1.6580    3.7040    0.0000 C.ar    1  LIG1        0.1022
@<TRIPOS>BOND
     1     1     2   ar
     2     1     6   ar
     3     1    30    1
     4     2     3   ar
     5     2    29   ar
     6     3     4   ar
     7     3    11   ar
     8     4     5   ar
     9     5     6   ar
    10     5    10    1
    11     6     7    1
    12     7     8    1
    13     8     9    1
    14     9    10    1
    15    11    12   ar
    16    12    13    1
    17    12    28   ar
    18    13    14   am
    19    13    27    2
    20    14    15    1
    21    15    16   ar
    22    15    20   ar
    23    16    17   ar
    24    17    18   ar
    25    17    25    1
    26    18    19   ar
    27    18    23    1
    28    19    20   ar
    29    19    21    1
    30    21    22    1
    31    23    24    1
    32    25    26    1
    33    28    29   ar
    34    30    31   ar
    35    30    34   ar
    36    31    32   ar
    37    32    33   ar
    38    33    34   ar
