@<TRIPOS>MOLECULE
35519_ChemDiv_C096-0340
 36 40 0 0 0
SMALL
GASTEIGER
Energy = 0

@<TRIPOS>ATOM
      1 C           3.3750    1.4880    0.0000 C.ar    1  LIG1        0.1307
      2 C           2.4250    1.7790    0.0000 C.ar    1  LIG1        0.0987
      3 C           2.4170    2.7670    0.0000 C.ar    1  LIG1        0.1180
      4 N           1.5460    3.2630    0.0000 N.ar    1  LIG1       -0.2185
      5 C           0.6920    2.7500    0.0000 C.ar    1  LIG1        0.1817
      6 N           0.7000    1.7580    0.0000 N.ar    1  LIG1       -0.2690
      7 C           1.5710    1.2750    0.0000 C.ar    1  LIG1        0.2656
      8 O           1.5830    0.2750    0.0000 O.2     1  LIG1       -0.2668
      9 C          -0.1500    1.2420    0.0000 C.3     1  LIG1        0.1956
     10 C          -1.0290    1.7460    0.0000 C.2     1  LIG1        0.2489
     11 N          -1.9000    1.2420    0.0000 N.am    1  LIG1       -0.2780
     12 C          -1.9000    0.2380    0.0000 C.3     1  LIG1        0.0935
     13 C          -2.7540   -0.2540    0.0000 C.3     1  LIG1        0.0219
     14 C          -3.6130    0.2460    0.0000 C.3     1  LIG1        0.0078
     15 C          -4.4790   -0.2630    0.0000 C.3     1  LIG1        0.0265
     16 C          -4.4790   -1.2580    0.0000 C.ar    1  LIG1       -0.0222
     17 C          -5.3330   -1.7630    0.0000 C.ar    1  LIG1       -0.0043
     18 C          -5.3330   -2.7630    0.0000 C.ar    1  LIG1       -0.0003
     19 C          -4.4710   -3.2580    0.0000 C.ar    1  LIG1       -0.0000
     20 C          -3.6130   -2.7580    0.0000 C.ar    1  LIG1       -0.0003
     21 C          -3.6170   -1.7500    0.0000 C.ar    1  LIG1       -0.0043
     22 C          -3.6210    1.2420    0.0000 C.3     1  LIG1        0.0219
     23 C          -2.7630    1.7460    0.0000 C.3     1  LIG1        0.0935
     24 O          -1.0130    2.8420    0.0000 O.2     1  LIG1       -0.2728
     25 S           3.3630    3.0880    0.0000 S.2     1  LIG1       -0.0708
     26 C           3.9500    2.2750    0.0000 C.ar    1  LIG1        0.0278
     27 C           4.9500    2.2710    0.0000 C.3     1  LIG1        0.0396
     28 S           3.7080    0.5330    0.0000 S.O2    1  LIG1        0.0638
     29 N           4.0250   -0.4170    0.0000 N.3     1  LIG1       -0.1504
     30 C           5.0040   -0.6170    0.0000 C.3     1  LIG1        0.1279
     31 C           5.3290   -1.5630    0.0000 C.3     1  LIG1        0.1613
     32 O           4.6750   -2.3210    0.0000 O.3     1  LIG1       -0.3507
     33 C           3.6880   -2.0960    0.0000 C.3     1  LIG1        0.1613
     34 C           3.3710   -1.1580    0.0000 C.3     1  LIG1        0.1279
     35 O           2.7580    0.2040    0.0000 O.2     1  LIG1       -0.1528
     36 O           4.6580    0.8420    0.0000 O.2     1  LIG1       -0.1528
@<TRIPOS>BOND
     1     1     2   ar
     2     1    26   ar
     3     1    28    1
     4     2     3   ar
     5     2     7   ar
     6     3     4   ar
     7     3    25   ar
     8     4     5   ar
     9     5     6   ar
    10     6     7   ar
    11     6     9    1
    12     7     8    2
    13     9    10    1
    14    10    11   am
    15    10    24    2
    16    11    12    1
    17    11    23    1
    18    12    13    1
    19    13    14    1
    20    14    15    1
    21    14    22    1
    22    15    16    1
    23    16    17   ar
    24    16    21   ar
    25    17    18   ar
    26    18    19   ar
    27    19    20   ar
    28    20    21   ar
    29    22    23    1
    30    25    26   ar
    31    26    27    1
    32    28    29    1
    33    28    35    2
    34    28    36    2
    35    29    30    1
    36    29    34    1
    37    30    31    1
    38    31    32    1
    39    32    33    1
    40    33    34    1
