@<TRIPOS>MOLECULE
35512_ChemDiv_C066-3166
 32 36 0 0 0
SMALL
GASTEIGER
Energy = 0

@<TRIPOS>ATOM
      1 C           2.4710    2.1040    0.0000 C.ar    1  LIG1        0.0640
      2 C           1.6080    1.6040    0.0000 C.ar    1  LIG1        0.0335
      3 C           1.6080    0.6040    0.0000 C.ar    1  LIG1        0.0824
      4 N           2.4710    0.1040    0.0000 N.ar    1  LIG1       -0.2499
      5 C           3.3380    0.6040    0.0000 C.ar    1  LIG1        0.0563
      6 C           3.3380    1.6040    0.0000 C.ar    1  LIG1        0.0076
      7 C           4.2000    2.1040    0.0000 C.3     1  LIG1        0.0290
      8 C           5.0670    1.6040    0.0000 C.3     1  LIG1        0.0052
      9 C           5.0670    0.6040    0.0000 C.3     1  LIG1        0.0066
     10 C           4.2000    0.1040    0.0000 C.3     1  LIG1        0.0455
     11 C           0.7420    0.1040    0.0000 C.ar    1  LIG1        0.0237
     12 C          -0.1290    0.6040    0.0000 C.ar    1  LIG1        0.0569
     13 C          -0.9960    0.1170    0.0000 C.2     1  LIG1        0.2690
     14 N          -0.9960   -0.8830    0.0000 N.am    1  LIG1       -0.1753
     15 C          -1.7040   -1.5960    0.0000 C.ar    1  LIG1        0.0769
     16 C          -2.6750   -1.3250    0.0000 C.ar    1  LIG1        0.0566
     17 C          -3.3880   -2.0210    0.0000 C.ar    1  LIG1        0.1737
     18 C          -3.1460   -2.9920    0.0000 C.ar    1  LIG1        0.1725
     19 C          -2.1670   -3.2630    0.0000 C.ar    1  LIG1        0.0414
     20 C          -1.4630   -2.5500    0.0000 C.ar    1  LIG1        0.0199
     21 O          -3.8460   -3.6880    0.0000 O.3     1  LIG1       -0.4684
     22 C          -3.6000   -4.6540    0.0000 C.3     1  LIG1        0.2526
     23 O          -4.3580   -1.7460    0.0000 O.3     1  LIG1       -0.4683
     24 C          -5.0710   -2.4540    0.0000 C.3     1  LIG1        0.2526
     25 O          -1.8580    0.6170    0.0000 O.2     1  LIG1       -0.2680
     26 C          -0.1290    1.6040    0.0000 C.ar    1  LIG1        0.0047
     27 C           0.7420    2.1040    0.0000 C.ar    1  LIG1        0.0031
     28 N           2.4710    3.1040    0.0000 N.ar    1  LIG1       -0.2866
     29 C           3.2710    3.6960    0.0000 C.ar    1  LIG1        0.1828
     30 N           2.9460    4.6540    0.0000 N.ar    1  LIG1       -0.2220
     31 C           1.9580    4.6420    0.0000 C.ar    1  LIG1        0.1196
     32 C           1.6580    3.6960    0.0000 C.ar    1  LIG1        0.1022
@<TRIPOS>BOND
     1     1     2   ar
     2     1     6   ar
     3     1    28    1
     4     2     3   ar
     5     2    27   ar
     6     3     4   ar
     7     3    11   ar
     8     4     5   ar
     9     5     6   ar
    10     5    10    1
    11     6     7    1
    12     7     8    1
    13     8     9    1
    14     9    10    1
    15    11    12   ar
    16    12    13    1
    17    12    26   ar
    18    13    14   am
    19    13    25    2
    20    14    15    1
    21    15    16   ar
    22    15    20   ar
    23    16    17   ar
    24    17    18   ar
    25    17    23    1
    26    18    19   ar
    27    18    21    1
    28    19    20   ar
    29    21    22    1
    30    23    24    1
    31    26    27   ar
    32    28    29   ar
    33    28    32   ar
    34    29    30   ar
    35    30    31   ar
    36    31    32   ar
