@<TRIPOS>MOLECULE
35518_ChemDiv_C066-3286
 15 17 0 0 0
SMALL
GASTEIGER
Energy = 0

@<TRIPOS>ATOM
      1 N           1.4040    0.0040    0.0000 N.ar    1  LIG1       -0.2840
      2 C           0.5330    0.5040    0.0000 C.ar    1  LIG1        0.2631
      3 C          -0.3330    0.0040    0.0000 C.ar    1  LIG1        0.0752
      4 C          -0.3330   -0.9920    0.0000 C.ar    1  LIG1        0.0872
      5 N           0.5330   -1.5000    0.0000 N.ar    1  LIG1       -0.2322
      6 C           1.4040   -0.9920    0.0000 C.ar    1  LIG1        0.1225
      7 C           2.3540   -1.3040    0.0000 C.3     1  LIG1        0.0660
      8 C           2.9330   -0.5040    0.0000 C.3     1  LIG1        0.0325
      9 C           2.3540    0.3130    0.0000 C.3     1  LIG1        0.1106
     10 C          -1.2000   -1.5000    0.0000 C.ar    1  LIG1        0.0207
     11 C          -2.0670   -0.9920    0.0000 C.ar    1  LIG1        0.0196
     12 C          -2.0670    0.0040    0.0000 C.ar    1  LIG1        0.0893
     13 C          -1.2000    0.5040    0.0000 C.ar    1  LIG1        0.0243
     14 N          -2.9380    0.5040    0.0000 N.pl3   1  LIG1       -0.1281
     15 O           0.5330    1.5040    0.0000 O.2     1  LIG1       -0.2669
@<TRIPOS>BOND
     1     1     2   ar
     2     1     6   ar
     3     1     9    1
     4     2     3   ar
     5     2    15    2
     6     3     4   ar
     7     3    13   ar
     8     4     5   ar
     9     4    10   ar
    10     5     6   ar
    11     6     7    1
    12     7     8    1
    13     8     9    1
    14    10    11   ar
    15    11    12   ar
    16    12    13   ar
    17    12    14    1
