@<TRIPOS>MOLECULE
35526_ChemDiv_K978-0251
 28 31 0 0 0
SMALL
GASTEIGER
Energy = 0

@<TRIPOS>ATOM
      1 N           0.6750    2.4960    0.0000 N.am    1  LIG1       -0.2206
      2 C           1.1420    3.4130    0.0000 C.2     1  LIG1        0.2321
      3 C           2.1000    3.3790    0.0000 C.3     1  LIG1        0.0900
      4 C           2.3630    2.4580    0.0000 C.3     1  LIG1        0.0900
      5 C           1.5710    1.9290    0.0000 C.2     1  LIG1        0.2321
      6 O           1.5380    0.9710    0.0000 O.2     1  LIG1       -0.2744
      7 C           3.2880    2.2380    0.0000 C.3     1  LIG1        0.0311
      8 C           3.9580    2.9170    0.0000 C.2     1  LIG1       -0.0305
      9 C           3.6960    3.8420    0.0000 C.2     1  LIG1       -0.0305
     10 C           2.7540    4.0670    0.0000 C.3     1  LIG1        0.0311
     11 C           3.4830    3.4420    0.0000 C.3     1  LIG1        0.0096
     12 O           0.6040    4.2080    0.0000 O.2     1  LIG1       -0.2744
     13 C          -0.3080    2.2380    0.0000 C.3     1  LIG1        0.1873
     14 C          -1.2000    2.7830    0.0000 C.2     1  LIG1        0.2621
     15 O          -1.2460    3.8630    0.0000 O.2     1  LIG1       -0.2715
     16 N          -2.0710    2.2960    0.0000 N.am    1  LIG1       -0.2036
     17 C          -2.0710    1.3000    0.0000 C.3     1  LIG1        0.1199
     18 C          -2.9330    0.8130    0.0000 C.3     1  LIG1        0.0498
     19 C          -2.9500   -0.1960    0.0000 C.ar    1  LIG1       -0.0203
     20 C          -3.8080   -0.7000    0.0000 C.ar    1  LIG1       -0.0028
     21 C          -3.8000   -1.6960    0.0000 C.ar    1  LIG1        0.0197
     22 C          -2.9500   -2.1880    0.0000 C.ar    1  LIG1        0.1250
     23 S          -2.9500   -3.1960    0.0000 S.O2    1  LIG1        0.0935
     24 O          -3.9630   -3.1960    0.0000 O.2     1  LIG1       -0.1503
     25 O          -1.9380   -3.2080    0.0000 O.2     1  LIG1       -0.1503
     26 N          -2.9630   -4.2080    0.0000 N.3     1  LIG1        0.0392
     27 C          -2.0830   -1.6920    0.0000 C.ar    1  LIG1        0.0197
     28 C          -2.0830   -0.7000    0.0000 C.ar    1  LIG1       -0.0028
@<TRIPOS>BOND
     1     1     2   am
     2     1     5   am
     3     1    13    1
     4     2     3    1
     5     2    12    2
     6     3     4    1
     7     3    10    1
     8     4     5    1
     9     4     7    1
    10     5     6    2
    11     7     8    1
    12     7    11    1
    13     8     9    2
    14     9    10    1
    15    10    11    1
    16    13    14    1
    17    14    15    2
    18    14    16   am
    19    16    17    1
    20    17    18    1
    21    18    19    1
    22    19    20   ar
    23    19    28   ar
    24    20    21   ar
    25    21    22   ar
    26    22    23    1
    27    22    27   ar
    28    23    24    2
    29    23    25    2
    30    23    26    1
    31    27    28   ar
