@<TRIPOS>MOLECULE
35520_ChemDiv_C803-0001
 24 27 0 0 0
SMALL
GASTEIGER
Energy = 0

@<TRIPOS>ATOM
      1 N           2.4960   -0.8670    0.0000 N.ar    1  LIG1       -0.2840
      2 C           1.9960    0.0000    0.0000 C.ar    1  LIG1        0.2631
      3 C           1.0000    0.0000    0.0000 C.ar    1  LIG1        0.0751
      4 C           0.4920   -0.8670    0.0000 C.ar    1  LIG1        0.0872
      5 N           1.0000   -1.7290    0.0000 N.ar    1  LIG1       -0.2322
      6 C           1.9960   -1.7290    0.0000 C.ar    1  LIG1        0.1224
      7 C           2.4960   -2.5960    0.0000 C.3     1  LIG1        0.0641
      8 C           3.4960   -2.5960    0.0000 C.3     1  LIG1        0.0099
      9 C           3.9960   -1.7290    0.0000 C.3     1  LIG1        0.0251
     10 C           3.4960   -0.8670    0.0000 C.3     1  LIG1        0.1102
     11 C          -0.5040   -0.8670    0.0000 C.ar    1  LIG1        0.0206
     12 C          -1.0040    0.0000    0.0000 C.ar    1  LIG1        0.0182
     13 C          -0.5040    0.8710    0.0000 C.ar    1  LIG1        0.0739
     14 N          -1.0040    1.7330    0.0000 N.am    1  LIG1       -0.1754
     15 C          -1.9960    1.7330    0.0000 C.2     1  LIG1        0.2705
     16 C          -2.5000    0.8710    0.0000 C.ar    1  LIG1        0.0745
     17 C          -1.9960    0.0000    0.0000 C.ar    1  LIG1        0.1034
     18 N          -2.5000   -0.8670    0.0000 N.ar    1  LIG1       -0.2422
     19 C          -3.5000   -0.8670    0.0000 C.ar    1  LIG1        0.0989
     20 C          -4.0000    0.0000    0.0000 C.ar    1  LIG1        0.0208
     21 C          -3.5000    0.8710    0.0000 C.ar    1  LIG1        0.0077
     22 O          -2.5000    2.6000    0.0000 O.2     1  LIG1       -0.2680
     23 C           0.4920    0.8710    0.0000 C.ar    1  LIG1        0.0229
     24 O           2.4960    0.8710    0.0000 O.2     1  LIG1       -0.2669
@<TRIPOS>BOND
     1     1     2   ar
     2     1     6   ar
     3     1    10    1
     4     2     3   ar
     5     2    24    2
     6     3     4   ar
     7     3    23   ar
     8     4     5   ar
     9     4    11   ar
    10     5     6   ar
    11     6     7    1
    12     7     8    1
    13     8     9    1
    14     9    10    1
    15    11    12   ar
    16    12    13   ar
    17    13    14    1
    18    13    23   ar
    19    14    15   am
    20    15    16    1
    21    15    22    2
    22    16    17   ar
    23    16    21   ar
    24    17    18   ar
    25    18    19   ar
    26    19    20   ar
    27    20    21   ar
