@<TRIPOS>MOLECULE
35538_ChemDiv_N037-0026
 15 17 0 0 0
SMALL
GASTEIGER
Energy = 0

@<TRIPOS>ATOM
      1 N           0.9630    0.3710    0.0000 N.ar    1  LIG1       -0.2820
      2 C           0.9630   -0.6170    0.0000 C.ar    1  LIG1        0.1531
      3 N           0.1000   -1.1290    0.0000 N.ar    1  LIG1       -0.2296
      4 C          -0.7580   -0.6170    0.0000 C.ar    1  LIG1        0.0872
      5 C          -0.7580    0.3710    0.0000 C.ar    1  LIG1        0.0738
      6 C           0.1000    0.8790    0.0000 C.ar    1  LIG1        0.2632
      7 O           0.1000    1.8830    0.0000 O.2     1  LIG1       -0.2669
      8 C          -1.6170    0.8790    0.0000 C.ar    1  LIG1        0.0063
      9 C          -2.4920    0.3710    0.0000 C.ar    1  LIG1        0.0003
     10 C          -2.4920   -0.6170    0.0000 C.ar    1  LIG1        0.0015
     11 C          -1.6170   -1.1290    0.0000 C.ar    1  LIG1        0.0193
     12 C           1.9170   -0.9330    0.0000 C.3     1  LIG1        0.2099
     13 C           2.4880   -0.1130    0.0000 C.3     1  LIG1        0.0653
     14 C           1.9170    0.7000    0.0000 C.3     1  LIG1        0.1133
     15 O           2.2250   -1.8790    0.0000 O.3     1  LIG1       -0.2149
@<TRIPOS>BOND
     1     1     2   ar
     2     1     6   ar
     3     1    14    1
     4     2     3   ar
     5     2    12    1
     6     3     4   ar
     7     4     5   ar
     8     4    11   ar
     9     5     6   ar
    10     5     8   ar
    11     6     7    2
    12     8     9   ar
    13     9    10   ar
    14    10    11   ar
    15    12    13    1
    16    12    15    1
    17    13    14    1
