@<TRIPOS>MOLECULE
35548_ChemDiv_C066-3416
 26 29 0 0 0
SMALL
GASTEIGER
Energy = 0

@<TRIPOS>ATOM
      1 N          -1.5170    1.5000    0.0000 N.ar    1  LIG1       -0.2840
      2 C          -0.6540    2.0000    0.0000 C.ar    1  LIG1        0.2631
      3 C           0.2080    1.5000    0.0000 C.ar    1  LIG1        0.0738
      4 C           0.2080    0.4960    0.0000 C.ar    1  LIG1        0.0873
      5 N          -0.6540   -0.0040    0.0000 N.ar    1  LIG1       -0.2322
      6 C          -1.5170    0.4960    0.0000 C.ar    1  LIG1        0.1224
      7 C          -2.2960   -0.1250    0.0000 C.3     1  LIG1        0.0640
      8 C          -3.2670    0.1000    0.0000 C.3     1  LIG1        0.0080
      9 C          -3.7000    0.9920    0.0000 C.3     1  LIG1        0.0024
     10 C          -3.2670    1.9040    0.0000 C.3     1  LIG1        0.0246
     11 C          -2.2960    2.1210    0.0000 C.3     1  LIG1        0.1102
     12 C           1.0750   -0.0040    0.0000 C.ar    1  LIG1        0.0238
     13 C           1.9500    0.4960    0.0000 C.ar    1  LIG1        0.0551
     14 C           2.8170   -0.0040    0.0000 C.2     1  LIG1        0.2491
     15 N           2.8290   -1.0040    0.0000 N.am    1  LIG1       -0.2760
     16 C           1.9630   -1.5040    0.0000 C.3     1  LIG1        0.0757
     17 C           1.1000   -0.9920    0.0000 C.3     1  LIG1        0.0198
     18 C           0.2420   -1.4960    0.0000 C.3     1  LIG1        0.0017
     19 C           0.2250   -2.4960    0.0000 C.3     1  LIG1        0.0001
     20 C           1.0920   -2.9960    0.0000 C.3     1  LIG1        0.0017
     21 C           1.9710   -2.4960    0.0000 C.3     1  LIG1        0.0198
     22 C           3.6960   -1.5040    0.0000 C.3     1  LIG1        0.1151
     23 O           3.6830    0.4960    0.0000 O.2     1  LIG1       -0.2699
     24 C           1.9500    1.5000    0.0000 C.ar    1  LIG1        0.0048
     25 C           1.0750    2.0000    0.0000 C.ar    1  LIG1        0.0064
     26 O          -0.6540    3.0000    0.0000 O.2     1  LIG1       -0.2669
@<TRIPOS>BOND
     1     1     2   ar
     2     1     6   ar
     3     1    11    1
     4     2     3   ar
     5     2    26    2
     6     3     4   ar
     7     3    25   ar
     8     4     5   ar
     9     4    12   ar
    10     5     6   ar
    11     6     7    1
    12     7     8    1
    13     8     9    1
    14     9    10    1
    15    10    11    1
    16    12    13   ar
    17    13    14    1
    18    13    24   ar
    19    14    15   am
    20    14    23    2
    21    15    16    1
    22    15    22    1
    23    16    17    1
    24    16    21    1
    25    17    18    1
    26    18    19    1
    27    19    20    1
    28    20    21    1
    29    24    25   ar
