@<TRIPOS>MOLECULE
35546_ChemDiv_C865-0119
 33 37 0 0 0
SMALL
GASTEIGER
Energy = 0

@<TRIPOS>ATOM
      1 N           4.6790    1.9830    0.0000 N.ar    1  LIG1       -0.2840
      2 C           3.6790    1.9830    0.0000 C.ar    1  LIG1        0.2631
      3 C           3.1790    1.1210    0.0000 C.ar    1  LIG1        0.0751
      4 C           3.6790    0.2580    0.0000 C.ar    1  LIG1        0.0872
      5 N           4.6790    0.2580    0.0000 N.ar    1  LIG1       -0.2322
      6 C           5.1750    1.1210    0.0000 C.ar    1  LIG1        0.1224
      7 C           6.1630    0.9710    0.0000 C.3     1  LIG1        0.0640
      8 C           6.9000    1.6500    0.0000 C.3     1  LIG1        0.0080
      9 C           6.8210    2.6460    0.0000 C.3     1  LIG1        0.0024
     10 C           6.0000    3.2170    0.0000 C.3     1  LIG1        0.0246
     11 C           5.0380    2.9170    0.0000 C.3     1  LIG1        0.1102
     12 C           3.1790   -0.6130    0.0000 C.ar    1  LIG1        0.0206
     13 C           2.1750   -0.6130    0.0000 C.ar    1  LIG1        0.0181
     14 C           1.6750    0.2580    0.0000 C.ar    1  LIG1        0.0736
     15 C           2.1750    1.1210    0.0000 C.ar    1  LIG1        0.0228
     16 N           0.6750    0.2580    0.0000 N.am    1  LIG1       -0.1788
     17 C           0.1790   -0.6130    0.0000 C.2     1  LIG1        0.2549
     18 C          -0.8250   -0.6130    0.0000 C.3     1  LIG1        0.1736
     19 C          -1.3250   -1.4790    0.0000 C.2     1  LIG1        0.2510
     20 N          -2.3250   -1.4790    0.0000 N.am    1  LIG1       -0.2001
     21 C          -2.8210   -2.3420    0.0000 C.3     1  LIG1        0.1416
     22 C          -3.8250   -2.3420    0.0000 C.ar    1  LIG1        0.0027
     23 C          -4.3250   -1.4790    0.0000 C.ar    1  LIG1        0.0376
     24 C          -5.3210   -1.4790    0.0000 C.ar    1  LIG1        0.1762
     25 C          -5.8250   -2.3420    0.0000 C.ar    1  LIG1        0.1764
     26 O          -6.8000   -2.1380    0.0000 O.3     1  LIG1       -0.4346
     27 C          -6.9000   -1.1420    0.0000 C.3     1  LIG1        0.4294
     28 O          -5.9920   -0.7380    0.0000 O.3     1  LIG1       -0.4346
     29 C          -5.3210   -3.2130    0.0000 C.ar    1  LIG1        0.0399
     30 C          -4.3250   -3.2130    0.0000 C.ar    1  LIG1        0.0008
     31 O          -0.8250   -2.3420    0.0000 O.2     1  LIG1       -0.2728
     32 O           0.6750   -1.4790    0.0000 O.2     1  LIG1       -0.2724
     33 O           3.1790    2.8540    0.0000 O.2     1  LIG1       -0.2669
@<TRIPOS>BOND
     1     1     2   ar
     2     1     6   ar
     3     1    11    1
     4     2     3   ar
     5     2    33    2
     6     3     4   ar
     7     3    15   ar
     8     4     5   ar
     9     4    12   ar
    10     5     6   ar
    11     6     7    1
    12     7     8    1
    13     8     9    1
    14     9    10    1
    15    10    11    1
    16    12    13   ar
    17    13    14   ar
    18    14    15   ar
    19    14    16    1
    20    16    17   am
    21    17    18    1
    22    17    32    2
    23    18    19    1
    24    19    20   am
    25    19    31    2
    26    20    21    1
    27    21    22    1
    28    22    23   ar
    29    22    30   ar
    30    23    24   ar
    31    24    25   ar
    32    24    28    1
    33    25    26    1
    34    25    29   ar
    35    26    27    1
    36    27    28    1
    37    29    30   ar
