@<TRIPOS>MOLECULE
35544_ChemDiv_C849-0495
 29 33 0 0 0
SMALL
GASTEIGER
Energy = 0

@<TRIPOS>ATOM
      1 N          -1.6710    2.4040    0.0000 N.ar    1  LIG1       -0.2840
      2 C          -0.9250    3.0790    0.0000 C.ar    1  LIG1        0.2631
      3 C           0.0250    2.7670    0.0000 C.ar    1  LIG1        0.0738
      4 C           0.2330    1.7880    0.0000 C.ar    1  LIG1        0.0873
      5 N          -0.5130    1.1210    0.0000 N.ar    1  LIG1       -0.2322
      6 C          -1.4630    1.4290    0.0000 C.ar    1  LIG1        0.1224
      7 C          -2.0960    0.6580    0.0000 C.3     1  LIG1        0.0640
      8 C          -3.0960    0.6750    0.0000 C.3     1  LIG1        0.0080
      9 C          -3.7080    1.4670    0.0000 C.3     1  LIG1        0.0024
     10 C          -3.4710    2.4380    0.0000 C.3     1  LIG1        0.0246
     11 C          -2.5630    2.8540    0.0000 C.3     1  LIG1        0.1102
     12 C           1.1830    1.4790    0.0000 C.ar    1  LIG1        0.0239
     13 C           1.9250    2.1460    0.0000 C.ar    1  LIG1        0.0565
     14 C           2.8750    1.8380    0.0000 C.2     1  LIG1        0.2651
     15 N           3.0880    0.8630    0.0000 N.am    1  LIG1       -0.1968
     16 C           2.3380    0.1960    0.0000 C.3     1  LIG1        0.1419
     17 C           2.5500   -0.7830    0.0000 C.ar    1  LIG1        0.0027
     18 C           1.8080   -1.4540    0.0000 C.ar    1  LIG1        0.0376
     19 C           2.0170   -2.4330    0.0000 C.ar    1  LIG1        0.1762
     20 C           2.9670   -2.7420    0.0000 C.ar    1  LIG1        0.1764
     21 O           2.9670   -3.7420    0.0000 O.3     1  LIG1       -0.4346
     22 C           2.0170   -4.0500    0.0000 C.3     1  LIG1        0.4294
     23 O           1.4290   -3.2420    0.0000 O.3     1  LIG1       -0.4346
     24 C           3.7040   -2.0750    0.0000 C.ar    1  LIG1        0.0399
     25 C           3.5000   -1.0960    0.0000 C.ar    1  LIG1        0.0008
     26 O           3.6210    2.5080    0.0000 O.2     1  LIG1       -0.2684
     27 C           1.7210    3.1250    0.0000 C.ar    1  LIG1        0.0048
     28 C           0.7670    3.4380    0.0000 C.ar    1  LIG1        0.0064
     29 O          -1.1330    4.0500    0.0000 O.2     1  LIG1       -0.2669
@<TRIPOS>BOND
     1     1     2   ar
     2     1     6   ar
     3     1    11    1
     4     2     3   ar
     5     2    29    2
     6     3     4   ar
     7     3    28   ar
     8     4     5   ar
     9     4    12   ar
    10     5     6   ar
    11     6     7    1
    12     7     8    1
    13     8     9    1
    14     9    10    1
    15    10    11    1
    16    12    13   ar
    17    13    14    1
    18    13    27   ar
    19    14    15   am
    20    14    26    2
    21    15    16    1
    22    16    17    1
    23    17    18   ar
    24    17    25   ar
    25    18    19   ar
    26    19    20   ar
    27    19    23    1
    28    20    21    1
    29    20    24   ar
    30    21    22    1
    31    22    23    1
    32    24    25   ar
    33    27    28   ar
