@<TRIPOS>MOLECULE
35541_ChemDiv_C096-0389
 29 32 0 0 0
SMALL
GASTEIGER
Energy = 0

@<TRIPOS>ATOM
      1 C           2.5170    1.0170    0.0000 C.ar    1  LIG1        0.1307
      2 C           1.5670    1.3080    0.0000 C.ar    1  LIG1        0.0987
      3 C           1.5630    2.2960    0.0000 C.ar    1  LIG1        0.1180
      4 N           0.6920    2.7920    0.0000 N.ar    1  LIG1       -0.2185
      5 C          -0.1580    2.2830    0.0000 C.ar    1  LIG1        0.1817
      6 N          -0.1540    1.2880    0.0000 N.ar    1  LIG1       -0.2690
      7 C           0.7130    0.8040    0.0000 C.ar    1  LIG1        0.2656
      8 O           0.7290   -0.1920    0.0000 O.2     1  LIG1       -0.2668
      9 C          -1.0040    0.7750    0.0000 C.3     1  LIG1        0.1956
     10 C          -1.8830    1.2750    0.0000 C.2     1  LIG1        0.2490
     11 N          -2.7540    0.7750    0.0000 N.am    1  LIG1       -0.2728
     12 C          -3.6040    1.2750    0.0000 C.3     1  LIG1        0.1255
     13 C          -4.4670    0.7750    0.0000 C.3     1  LIG1        0.1636
     14 O          -4.4750   -0.2330    0.0000 O.3     1  LIG1       -0.3501
     15 C          -3.6170   -0.7290    0.0000 C.3     1  LIG1        0.1636
     16 C          -2.7540   -0.2330    0.0000 C.3     1  LIG1        0.1255
     17 O          -1.8670    2.3710    0.0000 O.2     1  LIG1       -0.2728
     18 S           2.5040    2.6130    0.0000 S.2     1  LIG1       -0.0708
     19 C           3.0920    1.8080    0.0000 C.ar    1  LIG1        0.0278
     20 C           4.0920    1.8040    0.0000 C.3     1  LIG1        0.0396
     21 S           2.8500    0.0670    0.0000 S.O2    1  LIG1        0.0638
     22 N           3.1670   -0.8880    0.0000 N.3     1  LIG1       -0.1504
     23 C           2.5130   -1.6250    0.0000 C.3     1  LIG1        0.1279
     24 C           2.8330   -2.5630    0.0000 C.3     1  LIG1        0.1613
     25 O           3.8130   -2.7880    0.0000 O.3     1  LIG1       -0.3507
     26 C           4.4710   -2.0290    0.0000 C.3     1  LIG1        0.1613
     27 C           4.1460   -1.0830    0.0000 C.3     1  LIG1        0.1279
     28 O           1.9000   -0.2630    0.0000 O.2     1  LIG1       -0.1528
     29 O           3.8000    0.3710    0.0000 O.2     1  LIG1       -0.1528
@<TRIPOS>BOND
     1     1     2   ar
     2     1    19   ar
     3     1    21    1
     4     2     3   ar
     5     2     7   ar
     6     3     4   ar
     7     3    18   ar
     8     4     5   ar
     9     5     6   ar
    10     6     7   ar
    11     6     9    1
    12     7     8    2
    13     9    10    1
    14    10    11   am
    15    10    17    2
    16    11    12    1
    17    11    16    1
    18    12    13    1
    19    13    14    1
    20    14    15    1
    21    15    16    1
    22    18    19   ar
    23    19    20    1
    24    21    22    1
    25    21    28    2
    26    21    29    2
    27    22    23    1
    28    22    27    1
    29    23    24    1
    30    24    25    1
    31    25    26    1
    32    26    27    1
