@<TRIPOS>MOLECULE
35543_ChemDiv_C096-0399
 34 37 0 0 0
SMALL
GASTEIGER
Energy = 0

@<TRIPOS>ATOM
      1 C           1.6580    1.5630    0.0000 C.ar    1  LIG1        0.1307
      2 C           0.7080    1.8540    0.0000 C.ar    1  LIG1        0.0987
      3 C           0.7000    2.8420    0.0000 C.ar    1  LIG1        0.1180
      4 N          -0.1710    3.3380    0.0000 N.ar    1  LIG1       -0.2185
      5 C          -1.0210    2.8290    0.0000 C.ar    1  LIG1        0.1817
      6 N          -1.0170    1.8330    0.0000 N.ar    1  LIG1       -0.2689
      7 C          -0.1460    1.3500    0.0000 C.ar    1  LIG1        0.2656
      8 O          -0.1290    0.3540    0.0000 O.2     1  LIG1       -0.2668
      9 C          -1.8670    1.3210    0.0000 C.3     1  LIG1        0.1971
     10 C          -2.7420    1.8210    0.0000 C.2     1  LIG1        0.2646
     11 O          -2.7290    2.9170    0.0000 O.2     1  LIG1       -0.2712
     12 N          -3.6130    1.3210    0.0000 N.am    1  LIG1       -0.2036
     13 C          -3.6130    0.3080    0.0000 C.3     1  LIG1        0.1214
     14 C          -2.7420   -0.1880    0.0000 C.3     1  LIG1        0.0861
     15 C          -2.7380   -1.1830    0.0000 C.3     1  LIG1        0.1404
     16 N          -1.8630   -1.6790    0.0000 N.4     1  LIG1        0.3773
     17 C          -1.9380   -2.6670    0.0000 C.3     1  LIG1        0.1385
     18 C          -1.2000   -3.3330    0.0000 C.3     1  LIG1        0.0627
     19 C          -0.2130   -3.1920    0.0000 C.3     1  LIG1        0.0063
     20 C           0.2710   -2.3210    0.0000 C.3     1  LIG1        0.0063
     21 C          -0.0920   -1.3960    0.0000 C.3     1  LIG1        0.0627
     22 C          -1.0330   -1.1130    0.0000 C.3     1  LIG1        0.1385
     23 S           1.6460    3.1580    0.0000 S.2     1  LIG1       -0.0708
     24 C           2.2330    2.3540    0.0000 C.ar    1  LIG1        0.0278
     25 C           3.2330    2.3500    0.0000 C.3     1  LIG1        0.0396
     26 S           1.9920    0.6130    0.0000 S.O2    1  LIG1        0.0638
     27 N           2.3080   -0.3420    0.0000 N.3     1  LIG1       -0.1504
     28 C           3.2880   -0.5380    0.0000 C.3     1  LIG1        0.1279
     29 C           3.6080   -1.4830    0.0000 C.3     1  LIG1        0.1613
     30 O           2.9540   -2.2420    0.0000 O.3     1  LIG1       -0.3507
     31 C           1.9710   -2.0170    0.0000 C.3     1  LIG1        0.1613
     32 C           1.6540   -1.0790    0.0000 C.3     1  LIG1        0.1279
     33 O           2.9380    0.9170    0.0000 O.2     1  LIG1       -0.1528
     34 O           1.0420    0.2830    0.0000 O.2     1  LIG1       -0.1528
@<TRIPOS>BOND
     1     1     2   ar
     2     1    24   ar
     3     1    26    1
     4     2     3   ar
     5     2     7   ar
     6     3     4   ar
     7     3    23   ar
     8     4     5   ar
     9     5     6   ar
    10     6     7   ar
    11     6     9    1
    12     7     8    2
    13     9    10    1
    14    10    11    2
    15    10    12   am
    16    12    13    1
    17    13    14    1
    18    14    15    1
    19    15    16    1
    20    16    17    1
    21    16    22    1
    22    17    18    1
    23    18    19    1
    24    19    20    1
    25    20    21    1
    26    21    22    1
    27    23    24   ar
    28    24    25    1
    29    26    27    1
    30    26    33    2
    31    26    34    2
    32    27    28    1
    33    27    32    1
    34    28    29    1
    35    29    30    1
    36    30    31    1
    37    31    32    1
