@<TRIPOS>MOLECULE
35550_ChemDiv_C660-0333
 35 39 0 0 0
SMALL
GASTEIGER
Energy = 0

@<TRIPOS>ATOM
      1 N          -4.0670   -2.0710    0.0000 N.ar    1  LIG1       -0.2840
      2 C          -3.1960   -1.5670    0.0000 C.ar    1  LIG1        0.2631
      3 C          -2.3330   -2.0670    0.0000 C.ar    1  LIG1        0.0738
      4 C          -2.3330   -3.0630    0.0000 C.ar    1  LIG1        0.0873
      5 N          -3.1960   -3.5580    0.0000 N.ar    1  LIG1       -0.2322
      6 C          -4.0670   -3.0580    0.0000 C.ar    1  LIG1        0.1224
      7 C          -4.8460   -3.6790    0.0000 C.3     1  LIG1        0.0640
      8 C          -5.8210   -3.4580    0.0000 C.3     1  LIG1        0.0080
      9 C          -6.2540   -2.5710    0.0000 C.3     1  LIG1        0.0024
     10 C          -5.8210   -1.6710    0.0000 C.3     1  LIG1        0.0246
     11 C          -4.8460   -1.4500    0.0000 C.3     1  LIG1        0.1102
     12 C          -1.4710   -3.5580    0.0000 C.ar    1  LIG1        0.0239
     13 C          -0.6000   -3.0580    0.0000 C.ar    1  LIG1        0.0565
     14 C           0.2830   -3.5460    0.0000 C.2     1  LIG1        0.2648
     15 O           0.3000   -4.5500    0.0000 O.2     1  LIG1       -0.2684
     16 N           1.1380   -3.0330    0.0000 N.am    1  LIG1       -0.2014
     17 C           1.1170   -2.0250    0.0000 C.3     1  LIG1        0.1216
     18 C           1.9710   -1.5130    0.0000 C.3     1  LIG1        0.0861
     19 C           1.9540   -0.5080    0.0000 C.3     1  LIG1        0.1404
     20 N           2.8080    0.0040    0.0000 N.4     1  LIG1        0.3773
     21 C           3.6790   -0.4790    0.0000 C.3     1  LIG1        0.1386
     22 C           4.5420    0.0420    0.0000 C.3     1  LIG1        0.0632
     23 C           4.5250    1.0380    0.0000 C.3     1  LIG1        0.0162
     24 C           5.3960    1.5460    0.0000 C.3     1  LIG1        0.0268
     25 C           5.3830    2.5540    0.0000 C.ar    1  LIG1       -0.0222
     26 C           6.2540    3.0630    0.0000 C.ar    1  LIG1       -0.0043
     27 C           6.2420    4.0670    0.0000 C.ar    1  LIG1       -0.0003
     28 C           5.3670    4.5500    0.0000 C.ar    1  LIG1       -0.0000
     29 C           4.5080    4.0460    0.0000 C.ar    1  LIG1       -0.0003
     30 C           4.5170    3.0420    0.0000 C.ar    1  LIG1       -0.0043
     31 C           3.6460    1.5250    0.0000 C.3     1  LIG1        0.0632
     32 C           2.7920    1.0130    0.0000 C.3     1  LIG1        0.1386
     33 C          -0.6000   -2.0710    0.0000 C.ar    1  LIG1        0.0048
     34 C          -1.4710   -1.5670    0.0000 C.ar    1  LIG1        0.0064
     35 O          -3.1880   -0.5710    0.0000 O.2     1  LIG1       -0.2669
@<TRIPOS>BOND
     1     1     2   ar
     2     1     6   ar
     3     1    11    1
     4     2     3   ar
     5     2    35    2
     6     3     4   ar
     7     3    34   ar
     8     4     5   ar
     9     4    12   ar
    10     5     6   ar
    11     6     7    1
    12     7     8    1
    13     8     9    1
    14     9    10    1
    15    10    11    1
    16    12    13   ar
    17    13    14    1
    18    13    33   ar
    19    14    15    2
    20    14    16   am
    21    16    17    1
    22    17    18    1
    23    18    19    1
    24    19    20    1
    25    20    21    1
    26    20    32    1
    27    21    22    1
    28    22    23    1
    29    23    24    1
    30    23    31    1
    31    24    25    1
    32    25    26   ar
    33    25    30   ar
    34    26    27   ar
    35    27    28   ar
    36    28    29   ar
    37    29    30   ar
    38    31    32    1
    39    33    34   ar
