@<TRIPOS>MOLECULE
35552_ChemDiv_C849-0396
 27 30 0 0 0
SMALL
GASTEIGER
Energy = 0

@<TRIPOS>ATOM
      1 N          -2.4790   -1.3080    0.0000 N.ar    1  LIG1       -0.2840
      2 C          -2.7920   -0.3630    0.0000 C.ar    1  LIG1        0.2631
      3 C          -2.1250    0.3830    0.0000 C.ar    1  LIG1        0.0738
      4 C          -1.1420    0.1750    0.0000 C.ar    1  LIG1        0.0873
      5 N          -0.8380   -0.7750    0.0000 N.ar    1  LIG1       -0.2322
      6 C          -1.5040   -1.5170    0.0000 C.ar    1  LIG1        0.1224
      7 C          -1.0540   -2.4130    0.0000 C.3     1  LIG1        0.0640
      8 C          -1.4750   -3.3210    0.0000 C.3     1  LIG1        0.0080
      9 C          -2.4500   -3.5580    0.0000 C.3     1  LIG1        0.0024
     10 C          -3.2380   -2.9460    0.0000 C.3     1  LIG1        0.0246
     11 C          -3.2500   -1.9460    0.0000 C.3     1  LIG1        0.1102
     12 C          -0.4710    0.9210    0.0000 C.ar    1  LIG1        0.0239
     13 C          -0.7790    1.8710    0.0000 C.ar    1  LIG1        0.0565
     14 C          -0.1130    2.6130    0.0000 C.2     1  LIG1        0.2650
     15 N           0.8670    2.4040    0.0000 N.am    1  LIG1       -0.1955
     16 C           1.1750    1.4580    0.0000 C.3     1  LIG1        0.1717
     17 C           2.1540    1.2460    0.0000 C.3     1  LIG1        0.1092
     18 N           2.5580    0.3380    0.0000 N.4     1  LIG1        0.3743
     19 C           3.5540    0.4380    0.0000 C.3     1  LIG1        0.1385
     20 C           3.7630    1.4170    0.0000 C.3     1  LIG1        0.0687
     21 C           2.9000    1.9170    0.0000 C.3     1  LIG1        0.0647
     22 C           2.0580   -0.5290    0.0000 C.3     1  LIG1        0.1385
     23 C           2.5580   -1.3960    0.0000 C.3     1  LIG1        0.0688
     24 O          -0.4210    3.5630    0.0000 O.2     1  LIG1       -0.2684
     25 C          -1.7580    2.0750    0.0000 C.ar    1  LIG1        0.0048
     26 C          -2.4290    1.3380    0.0000 C.ar    1  LIG1        0.0064
     27 O          -3.7670   -0.1500    0.0000 O.2     1  LIG1       -0.2669
@<TRIPOS>BOND
     1     1     2   ar
     2     1     6   ar
     3     1    11    1
     4     2     3   ar
     5     2    27    2
     6     3     4   ar
     7     3    26   ar
     8     4     5   ar
     9     4    12   ar
    10     5     6   ar
    11     6     7    1
    12     7     8    1
    13     8     9    1
    14     9    10    1
    15    10    11    1
    16    12    13   ar
    17    13    14    1
    18    13    25   ar
    19    14    15   am
    20    14    24    2
    21    15    16    1
    22    16    17    1
    23    17    18    1
    24    17    21    1
    25    18    19    1
    26    18    22    1
    27    19    20    1
    28    20    21    1
    29    22    23    1
    30    25    26   ar
