@<TRIPOS>MOLECULE
35556_ChemDiv_C085-0668
 28 30 0 0 0
SMALL
GASTEIGER
Energy = 0

@<TRIPOS>ATOM
      1 S           0.1000    0.1710    0.0000 S.O2    1  LIG1        0.0634
      2 N          -0.8670   -0.0830    0.0000 N.3     1  LIG1       -0.1520
      3 C          -1.1250   -1.0330    0.0000 C.3     1  LIG1        0.1172
      4 C          -2.0920   -1.3000    0.0000 C.3     1  LIG1        0.1100
      5 N          -2.8040   -0.5920    0.0000 N.pl3   1  LIG1       -0.3022
      6 C          -3.7500   -0.8500    0.0000 C.ar    1  LIG1        0.0824
      7 C          -4.4580   -0.1420    0.0000 C.ar    1  LIG1        0.1517
      8 O          -4.2080    0.8380    0.0000 O.3     1  LIG1       -0.4742
      9 C          -3.2380    1.1000    0.0000 C.3     1  LIG1        0.2056
     10 C          -2.9880    2.0710    0.0000 C.3     1  LIG1        0.0512
     11 C          -5.4130   -0.3960    0.0000 C.ar    1  LIG1        0.0382
     12 C          -5.6790   -1.3630    0.0000 C.ar    1  LIG1        0.0032
     13 C          -4.9710   -2.0670    0.0000 C.ar    1  LIG1        0.0015
     14 C          -4.0080   -1.8000    0.0000 C.ar    1  LIG1        0.0176
     15 C          -2.5420    0.3710    0.0000 C.3     1  LIG1        0.1100
     16 C          -1.5880    0.6420    0.0000 C.3     1  LIG1        0.1172
     17 C           1.0830    0.4210    0.0000 C.ar    1  LIG1        0.1222
     18 C           1.7830   -0.2960    0.0000 C.ar    1  LIG1        0.0196
     19 C           2.7380   -0.0460    0.0000 C.ar    1  LIG1       -0.0029
     20 C           3.0210    0.9250    0.0000 C.ar    1  LIG1       -0.0221
     21 C           2.3210    1.6380    0.0000 C.ar    1  LIG1       -0.0029
     22 C           1.3540    1.3880    0.0000 C.ar    1  LIG1        0.0196
     23 C           3.9960    1.1830    0.0000 C.3     1  LIG1        0.0263
     24 C           4.7080    0.4790    0.0000 C.3     1  LIG1        0.0044
     25 C           5.6750    0.7380    0.0000 C.3     1  LIG1        0.0003
     26 C           4.4460   -0.4750    0.0000 C.3     1  LIG1        0.0003
     27 O          -0.1500    1.1330    0.0000 O.2     1  LIG1       -0.1528
     28 O           0.3540   -0.8000    0.0000 O.2     1  LIG1       -0.1528
@<TRIPOS>BOND
     1     1     2    1
     2     1    17    1
     3     1    27    2
     4     1    28    2
     5     2     3    1
     6     2    16    1
     7     3     4    1
     8     4     5    1
     9     5     6    1
    10     5    15    1
    11     6     7   ar
    12     6    14   ar
    13     7     8    1
    14     7    11   ar
    15     8     9    1
    16     9    10    1
    17    11    12   ar
    18    12    13   ar
    19    13    14   ar
    20    15    16    1
    21    17    18   ar
    22    17    22   ar
    23    18    19   ar
    24    19    20   ar
    25    20    21   ar
    26    20    23    1
    27    21    22   ar
    28    23    24    1
    29    24    25    1
    30    24    26    1
