@<TRIPOS>MOLECULE
35578_ChemDiv_C066-4050
 19 21 0 0 0
SMALL
GASTEIGER
Energy = 0

@<TRIPOS>ATOM
      1 C           0.1920    0.2960    0.0000 C.ar    1  LIG1        0.1725
      2 C           0.1920   -0.7210    0.0000 C.ar    1  LIG1        0.1689
      3 N           1.1540   -1.0250    0.0000 N.ar    1  LIG1       -0.3002
      4 C           1.7460   -0.2000    0.0000 C.ar    1  LIG1        0.1216
      5 N           1.1540    0.6130    0.0000 N.ar    1  LIG1       -0.2245
      6 C           2.6170   -0.0710    0.0000 C.3     1  LIG1        0.0640
      7 C           3.3040   -0.7960    0.0000 C.3     1  LIG1        0.0080
      8 C           3.1130   -1.8290    0.0000 C.3     1  LIG1        0.0024
      9 C           2.1880   -2.3080    0.0000 C.3     1  LIG1        0.0246
     10 C           1.2920   -1.8670    0.0000 C.3     1  LIG1        0.1086
     11 N          -0.6790   -1.2250    0.0000 N.ar    1  LIG1       -0.2062
     12 C          -1.5670   -0.7210    0.0000 C.ar    1  LIG1        0.1826
     13 N          -1.5670    0.2960    0.0000 N.ar    1  LIG1       -0.2714
     14 C          -0.6790    0.8080    0.0000 C.ar    1  LIG1        0.2830
     15 O          -0.6830    1.8210    0.0000 O.2     1  LIG1       -0.2652
     16 C          -2.4380    0.8000    0.0000 C.3     1  LIG1        0.1523
     17 C          -2.4380    1.8080    0.0000 C.2     1  LIG1        0.0734
     18 O          -3.3080    2.3130    0.0000 O.co2   1  LIG1       -0.5472
     19 O          -1.5670    2.3130    0.0000 O.co2   1  LIG1       -0.5472
@<TRIPOS>BOND
     1     1     2   ar
     2     1     5   ar
     3     1    14   ar
     4     2     3   ar
     5     2    11   ar
     6     3     4   ar
     7     3    10    1
     8     4     5   ar
     9     4     6    1
    10     6     7    1
    11     7     8    1
    12     8     9    1
    13     9    10    1
    14    11    12   ar
    15    12    13   ar
    16    13    14   ar
    17    13    16    1
    18    14    15    2
    19    16    17    1
    20    17    18   ar
    21    17    19   ar
