@<TRIPOS>MOLECULE
35576_ChemDiv_C066-4006
 15 17 0 0 0
SMALL
GASTEIGER
Energy = 0

@<TRIPOS>ATOM
      1 C          -0.6920    0.5420    0.0000 C.ar    1  LIG1        0.1450
      2 N           0.2880    0.8540    0.0000 N.ar    1  LIG1       -0.2269
      3 C           0.8750    0.0500    0.0000 C.ar    1  LIG1        0.1215
      4 N           0.2880   -0.7790    0.0000 N.ar    1  LIG1       -0.3002
      5 C          -0.6920   -0.4710    0.0000 C.ar    1  LIG1        0.1666
      6 N          -1.5670   -0.9790    0.0000 N.ar    1  LIG1       -0.2049
      7 C          -2.4460   -0.4710    0.0000 C.ar    1  LIG1        0.2011
      8 N          -2.4460    0.5420    0.0000 N.ar    1  LIG1       -0.2107
      9 C          -1.5670    1.0540    0.0000 C.ar    1  LIG1        0.1606
     10 CL         -1.5670    2.0670    0.0000 Cl      1  LIG1       -0.0596
     11 C           0.4250   -1.6250    0.0000 C.3     1  LIG1        0.1086
     12 C           1.3170   -2.0630    0.0000 C.3     1  LIG1        0.0246
     13 C           2.2420   -1.5920    0.0000 C.3     1  LIG1        0.0024
     14 C           2.4420   -0.5500    0.0000 C.3     1  LIG1        0.0080
     15 C           1.7500    0.1750    0.0000 C.3     1  LIG1        0.0640
@<TRIPOS>BOND
     1     1     2   ar
     2     1     5   ar
     3     1     9   ar
     4     2     3   ar
     5     3     4   ar
     6     3    15    1
     7     4     5   ar
     8     4    11    1
     9     5     6   ar
    10     6     7   ar
    11     7     8   ar
    12     8     9   ar
    13     9    10    1
    14    11    12    1
    15    12    13    1
    16    13    14    1
    17    14    15    1
