@<TRIPOS>MOLECULE
35574_ChemDiv_C066-3999
 15 17 0 0 0
SMALL
GASTEIGER
Energy = 0

@<TRIPOS>ATOM
      1 C          -0.6920    0.5460    0.0000 C.ar    1  LIG1        0.1742
      2 C          -0.6830   -0.4750    0.0000 C.ar    1  LIG1        0.1690
      3 N           0.2920   -0.7960    0.0000 N.ar    1  LIG1       -0.3002
      4 C           0.8790    0.0380    0.0000 C.ar    1  LIG1        0.1216
      5 N           0.2630    0.8670    0.0000 N.ar    1  LIG1       -0.2244
      6 C           1.7540    0.1580    0.0000 C.3     1  LIG1        0.0640
      7 C           2.4380   -0.5670    0.0000 C.3     1  LIG1        0.0080
      8 C           2.2460   -1.6000    0.0000 C.3     1  LIG1        0.0024
      9 C           1.3250   -2.0710    0.0000 C.3     1  LIG1        0.0246
     10 C           0.4330   -1.6290    0.0000 C.3     1  LIG1        0.1086
     11 N          -1.5710   -0.9750    0.0000 N.ar    1  LIG1       -0.2047
     12 C          -2.4420   -0.4750    0.0000 C.ar    1  LIG1        0.2031
     13 N          -2.4420    0.5460    0.0000 N.ar    1  LIG1       -0.1841
     14 C          -1.5710    1.0670    0.0000 C.ar    1  LIG1        0.3014
     15 O          -1.5710    2.0750    0.0000 O.2     1  LIG1       -0.2634
@<TRIPOS>BOND
     1     1     2   ar
     2     1     5   ar
     3     1    14   ar
     4     2     3   ar
     5     2    11   ar
     6     3     4   ar
     7     3    10    1
     8     4     5   ar
     9     4     6    1
    10     6     7    1
    11     7     8    1
    12     8     9    1
    13     9    10    1
    14    11    12   ar
    15    12    13   ar
    16    13    14   ar
    17    14    15    2
