@<TRIPOS>MOLECULE
35582_ChemDiv_C660-0369
 24 27 0 0 0
SMALL
GASTEIGER
Energy = 0

@<TRIPOS>ATOM
      1 C          -0.3000   -1.1580    0.0000 C.ar    1  LIG1        0.1495
      2 N           0.6420   -0.8580    0.0000 N.ar    1  LIG1       -0.2264
      3 C           1.2330   -1.6580    0.0000 C.ar    1  LIG1        0.1215
      4 N           0.6420   -2.4710    0.0000 N.ar    1  LIG1       -0.3002
      5 C          -0.3000   -2.1580    0.0000 C.ar    1  LIG1        0.1670
      6 N          -1.1630   -2.6540    0.0000 N.ar    1  LIG1       -0.2049
      7 C          -2.0330   -2.1580    0.0000 C.ar    1  LIG1        0.2015
      8 N          -2.0330   -1.1580    0.0000 N.ar    1  LIG1       -0.2059
      9 C          -1.1630   -0.6630    0.0000 C.ar    1  LIG1        0.1704
     10 N          -1.1630    0.3380    0.0000 N.pl3   1  LIG1       -0.2140
     11 C          -2.0210    0.8380    0.0000 C.3     1  LIG1        0.1432
     12 C          -2.0210    1.8330    0.0000 C.ar    1  LIG1        0.0334
     13 C          -1.1630    2.3330    0.0000 C.ar    1  LIG1        0.1364
     14 O          -0.2960    1.8170    0.0000 O.3     1  LIG1       -0.4717
     15 C           0.5830    2.3170    0.0000 C.3     1  LIG1        0.2525
     16 C          -1.1630    3.3330    0.0000 C.ar    1  LIG1        0.0366
     17 C          -2.0210    3.8330    0.0000 C.ar    1  LIG1        0.0031
     18 C          -2.8960    3.3330    0.0000 C.ar    1  LIG1       -0.0001
     19 C          -2.8960    2.3330    0.0000 C.ar    1  LIG1        0.0005
     20 C           0.9170   -3.4380    0.0000 C.3     1  LIG1        0.1086
     21 C           1.8380   -3.8290    0.0000 C.3     1  LIG1        0.0246
     22 C           2.7130   -3.3500    0.0000 C.3     1  LIG1        0.0024
     23 C           2.8920   -2.3540    0.0000 C.3     1  LIG1        0.0080
     24 C           2.2290   -1.6080    0.0000 C.3     1  LIG1        0.0640
@<TRIPOS>BOND
     1     1     2   ar
     2     1     5   ar
     3     1     9   ar
     4     2     3   ar
     5     3     4   ar
     6     3    24    1
     7     4     5   ar
     8     4    20    1
     9     5     6   ar
    10     6     7   ar
    11     7     8   ar
    12     8     9   ar
    13     9    10    1
    14    10    11    1
    15    11    12    1
    16    12    13   ar
    17    12    19   ar
    18    13    14    1
    19    13    16   ar
    20    14    15    1
    21    16    17   ar
    22    17    18   ar
    23    18    19   ar
    24    20    21    1
    25    21    22    1
    26    22    23    1
    27    23    24    1
