@<TRIPOS>MOLECULE
35592_ChemDiv_C094-0324
 29 31 0 0 0
SMALL
GASTEIGER
Energy = 0

@<TRIPOS>ATOM
      1 N           4.9710   -1.1130    0.0000 N.am    1  LIG1       -0.1248
      2 C           4.3880   -1.9250    0.0000 C.2     1  LIG1        0.3463
      3 N           3.4420   -1.6210    0.0000 N.am    1  LIG1       -0.1787
      4 C           3.4330   -0.6290    0.0000 C.3     1  LIG1        0.1839
      5 C           4.3880   -0.3080    0.0000 C.2     1  LIG1        0.2696
      6 O           4.6460    0.6580    0.0000 O.2     1  LIG1       -0.2710
      7 C           2.6210   -0.0380    0.0000 C.3     1  LIG1        0.1179
      8 C           1.7170   -0.4460    0.0000 C.2     1  LIG1        0.2443
      9 N           0.9000    0.1460    0.0000 N.am    1  LIG1       -0.1931
     10 C          -0.0130   -0.2630    0.0000 C.3     1  LIG1        0.1952
     11 C          -0.8250    0.3250    0.0000 C.2     1  LIG1        0.2697
     12 N          -1.7380   -0.0830    0.0000 N.am    1  LIG1       -0.1775
     13 C          -2.5540    0.5080    0.0000 C.ar    1  LIG1        0.0736
     14 C          -2.4460    1.4960    0.0000 C.ar    1  LIG1        0.0197
     15 C          -3.2500    2.0830    0.0000 C.ar    1  LIG1        0.0382
     16 C          -4.1630    1.6750    0.0000 C.ar    1  LIG1        0.1388
     17 C          -4.2670    0.6790    0.0000 C.ar    1  LIG1        0.0382
     18 C          -3.4580    0.1000    0.0000 C.ar    1  LIG1        0.0197
     19 O          -4.9750    2.2630    0.0000 O.3     1  LIG1       -0.4714
     20 C          -4.8670    3.2630    0.0000 C.3     1  LIG1        0.2525
     21 O          -0.7210    1.3250    0.0000 O.2     1  LIG1       -0.2708
     22 C          -0.1170   -1.2630    0.0000 C.ar    1  LIG1        0.0062
     23 C          -1.0290   -1.6710    0.0000 C.ar    1  LIG1       -0.0021
     24 C          -1.1380   -2.6670    0.0000 C.ar    1  LIG1       -0.0003
     25 C          -0.3290   -3.2580    0.0000 C.ar    1  LIG1       -0.0000
     26 C           0.5880   -2.8460    0.0000 C.ar    1  LIG1       -0.0003
     27 C           0.6960   -1.8500    0.0000 C.ar    1  LIG1       -0.0021
     28 O           1.6080   -1.4420    0.0000 O.2     1  LIG1       -0.2732
     29 O           4.6460   -2.8830    0.0000 O.2     1  LIG1       -0.2487
@<TRIPOS>BOND
     1     1     2   am
     2     1     5   am
     3     2     3   am
     4     2    29    2
     5     3     4    1
     6     4     5    1
     7     4     7    1
     8     5     6    2
     9     7     8    1
    10     8     9   am
    11     8    28    2
    12     9    10    1
    13    10    11    1
    14    10    22    1
    15    11    12   am
    16    11    21    2
    17    12    13    1
    18    13    14   ar
    19    13    18   ar
    20    14    15   ar
    21    15    16   ar
    22    16    17   ar
    23    16    19    1
    24    17    18   ar
    25    19    20    1
    26    22    23   ar
    27    22    27   ar
    28    23    24   ar
    29    24    25   ar
    30    25    26   ar
    31    26    27   ar
