@<TRIPOS>MOLECULE
35604_ChemDiv_E715-0496
 35 40 0 0 0
SMALL
GASTEIGER
Energy = 0

@<TRIPOS>ATOM
      1 C          -0.7170   -3.9380    0.0000 C.ar    1  LIG1        0.1481
      2 N          -1.7290   -3.9380    0.0000 N.ar    1  LIG1       -0.2265
      3 C          -2.0290   -4.9040    0.0000 C.ar    1  LIG1        0.1215
      4 N          -1.2080   -5.5000    0.0000 N.ar    1  LIG1       -0.3002
      5 C          -0.4000   -4.9040    0.0000 C.ar    1  LIG1        0.1670
      6 N           0.5880   -5.1080    0.0000 N.ar    1  LIG1       -0.2049
      7 C           1.2670   -4.3580    0.0000 C.ar    1  LIG1        0.2015
      8 N           0.9500   -3.3920    0.0000 N.ar    1  LIG1       -0.2073
      9 C          -0.0460   -3.1830    0.0000 C.ar    1  LIG1        0.1542
     10 N          -0.3080   -2.2000    0.0000 N.pl3   1  LIG1       -0.2919
     11 C           0.4040   -1.4750    0.0000 C.3     1  LIG1        0.0927
     12 C           0.1460   -0.5040    0.0000 C.3     1  LIG1        0.0307
     13 C          -0.8380   -0.2380    0.0000 C.3     1  LIG1        0.0820
     14 C          -1.1040    0.7250    0.0000 C.2     1  LIG1        0.2469
     15 N          -0.4000    1.4380    0.0000 N.am    1  LIG1       -0.1543
     16 C           0.3920    2.0330    0.0000 C.ar    1  LIG1        0.1858
     17 N           1.3380    1.7580    0.0000 N.ar    1  LIG1       -0.2225
     18 C           1.9080    2.5630    0.0000 C.ar    1  LIG1        0.0895
     19 C           1.3130    3.3710    0.0000 C.ar    1  LIG1        0.0528
     20 S           0.3710    3.0460    0.0000 S.2     1  LIG1       -0.0496
     21 C           1.7040    4.2920    0.0000 C.ar    1  LIG1        0.0450
     22 C           2.7000    4.4080    0.0000 C.ar    1  LIG1        0.1391
     23 C           3.3040    3.6040    0.0000 C.ar    1  LIG1        0.0385
     24 C           2.9080    2.6920    0.0000 C.ar    1  LIG1        0.0228
     25 O           3.1000    5.3330    0.0000 O.3     1  LIG1       -0.4754
     26 C           2.5000    6.1330    0.0000 C.3     1  LIG1        0.2055
     27 C           2.8960    7.0420    0.0000 C.3     1  LIG1        0.0512
     28 O          -2.0750    0.9880    0.0000 O.2     1  LIG1       -0.2729
     29 C          -1.5630   -0.9630    0.0000 C.3     1  LIG1        0.0307
     30 C          -1.3000   -1.9460    0.0000 C.3     1  LIG1        0.0927
     31 C          -1.1040   -6.3630    0.0000 C.3     1  LIG1        0.1086
     32 C          -1.8170   -7.0420    0.0000 C.3     1  LIG1        0.0246
     33 C          -2.8380   -6.8330    0.0000 C.3     1  LIG1        0.0024
     34 C          -3.3080   -5.9130    0.0000 C.3     1  LIG1        0.0080
     35 C          -2.8710   -5.0380    0.0000 C.3     1  LIG1        0.0640
@<TRIPOS>BOND
     1     1     2   ar
     2     1     5   ar
     3     1     9   ar
     4     2     3   ar
     5     3     4   ar
     6     3    35    1
     7     4     5   ar
     8     4    31    1
     9     5     6   ar
    10     6     7   ar
    11     7     8   ar
    12     8     9   ar
    13     9    10    1
    14    10    11    1
    15    10    30    1
    16    11    12    1
    17    12    13    1
    18    13    14    1
    19    13    29    1
    20    14    15   am
    21    14    28    2
    22    15    16    1
    23    16    17   ar
    24    16    20   ar
    25    17    18   ar
    26    18    19   ar
    27    18    24   ar
    28    19    20   ar
    29    19    21   ar
    30    21    22   ar
    31    22    23   ar
    32    22    25    1
    33    23    24   ar
    34    25    26    1
    35    26    27    1
    36    29    30    1
    37    31    32    1
    38    32    33    1
    39    33    34    1
    40    34    35    1
