@<TRIPOS>MOLECULE
35601_ChemDiv_C066-2859
 25 28 0 0 0
SMALL
GASTEIGER
Energy = 0

@<TRIPOS>ATOM
      1 C          -0.8540   -1.0000    0.0000 C.ar    1  LIG1        0.0779
      2 C           0.0170   -1.5000    0.0000 C.ar    1  LIG1        0.0589
      3 C           0.0170   -2.5040    0.0000 C.ar    1  LIG1        0.2712
      4 N          -0.8540   -3.0040    0.0000 N.ar    1  LIG1        0.0709
      5 C          -1.7130   -2.5040    0.0000 C.ar    1  LIG1        0.2974
      6 C          -1.7130   -1.5000    0.0000 C.ar    1  LIG1        0.0852
      7 C          -2.5830   -1.0000    0.0000 C.ar    1  LIG1        0.0074
      8 C          -3.4420   -1.5000    0.0000 C.ar    1  LIG1        0.0004
      9 C          -3.4540   -2.5040    0.0000 C.ar    1  LIG1        0.0063
     10 C          -2.5830   -3.0130    0.0000 C.ar    1  LIG1        0.0762
     11 C           0.8880   -3.0040    0.0000 C.3     1  LIG1        0.1036
     12 C           1.7580   -2.4960    0.0000 C.3     1  LIG1        0.0117
     13 C           1.7580   -1.4920    0.0000 C.3     1  LIG1        0.0055
     14 C           0.8790   -0.9920    0.0000 C.3     1  LIG1        0.0336
     15 N          -0.8630    0.0000    0.0000 N.pl3   1  LIG1       -0.2123
     16 C           0.0000    0.5040    0.0000 C.ar    1  LIG1        0.0737
     17 C           0.8580    0.0210    0.0000 C.ar    1  LIG1        0.0565
     18 C           1.7170    0.5130    0.0000 C.ar    1  LIG1        0.1737
     19 C           1.7080    1.5170    0.0000 C.ar    1  LIG1        0.1725
     20 C           0.8380    2.0080    0.0000 C.ar    1  LIG1        0.0414
     21 C          -0.0130    1.4960    0.0000 C.ar    1  LIG1        0.0198
     22 O           2.5710    2.0170    0.0000 O.3     1  LIG1       -0.4684
     23 C           2.5580    3.0170    0.0000 C.3     1  LIG1        0.2526
     24 O           2.5880    0.0290    0.0000 O.3     1  LIG1       -0.4683
     25 C           3.4500    0.5330    0.0000 C.3     1  LIG1        0.2526
@<TRIPOS>BOND
     1     1     2   ar
     2     1     6   ar
     3     1    15    1
     4     2     3   ar
     5     2    14    1
     6     3     4   ar
     7     3    11    1
     8     4     5   ar
     9     5     6   ar
    10     5    10   ar
    11     6     7   ar
    12     7     8   ar
    13     8     9   ar
    14     9    10   ar
    15    11    12    1
    16    12    13    1
    17    13    14    1
    18    15    16    1
    19    16    17   ar
    20    16    21   ar
    21    17    18   ar
    22    18    19   ar
    23    18    24    1
    24    19    20   ar
    25    19    22    1
    26    20    21   ar
    27    22    23    1
    28    24    25    1
