@<TRIPOS>MOLECULE
35606_ChemDiv_E715-0553
 32 36 0 0 0
SMALL
GASTEIGER
Energy = 0

@<TRIPOS>ATOM
      1 C          -0.2170   -2.6960    0.0000 C.ar    1  LIG1        0.1481
      2 N          -1.2290   -2.6960    0.0000 N.ar    1  LIG1       -0.2265
      3 C          -1.5290   -3.6630    0.0000 C.ar    1  LIG1        0.1215
      4 N          -0.7130   -4.2580    0.0000 N.ar    1  LIG1       -0.3002
      5 C           0.1000   -3.6630    0.0000 C.ar    1  LIG1        0.1670
      6 N           1.0830   -3.8670    0.0000 N.ar    1  LIG1       -0.2049
      7 C           1.7630   -3.1170    0.0000 C.ar    1  LIG1        0.2015
      8 N           1.4460   -2.1540    0.0000 N.ar    1  LIG1       -0.2073
      9 C           0.4500   -1.9420    0.0000 C.ar    1  LIG1        0.1542
     10 N           0.1880   -0.9630    0.0000 N.pl3   1  LIG1       -0.2919
     11 C          -0.8000   -0.7040    0.0000 C.3     1  LIG1        0.0927
     12 C          -1.0630    0.2750    0.0000 C.3     1  LIG1        0.0306
     13 C          -0.3380    1.0000    0.0000 C.3     1  LIG1        0.0816
     14 C          -0.6040    1.9670    0.0000 C.2     1  LIG1        0.2413
     15 N           0.1000    2.6750    0.0000 N.am    1  LIG1       -0.2022
     16 C           0.9170    3.2290    0.0000 C.3     1  LIG1        0.1234
     17 C           0.8420    4.2210    0.0000 C.ar    1  LIG1        0.0270
     18 S          -0.0040    4.7460    0.0000 S.2     1  LIG1       -0.0891
     19 C           0.2330    5.7290    0.0000 C.ar    1  LIG1        0.0352
     20 C           1.2330    5.8000    0.0000 C.ar    1  LIG1        0.0072
     21 C           1.6130    4.8670    0.0000 C.ar    1  LIG1        0.0044
     22 C           1.8250    2.7960    0.0000 C.3     1  LIG1        0.0267
     23 C           1.9080    1.8000    0.0000 C.3     1  LIG1        0.0021
     24 C           2.8040    1.3630    0.0000 C.3     1  LIG1        0.0001
     25 O          -1.5750    2.2290    0.0000 O.2     1  LIG1       -0.2733
     26 C           0.6420    0.7330    0.0000 C.3     1  LIG1        0.0306
     27 C           0.9040   -0.2380    0.0000 C.3     1  LIG1        0.0927
     28 C          -0.6040   -5.1210    0.0000 C.3     1  LIG1        0.1086
     29 C          -1.3210   -5.8000    0.0000 C.3     1  LIG1        0.0246
     30 C          -2.3420   -5.5920    0.0000 C.3     1  LIG1        0.0024
     31 C          -2.8080   -4.6710    0.0000 C.3     1  LIG1        0.0080
     32 C          -2.3710   -3.7960    0.0000 C.3     1  LIG1        0.0640
@<TRIPOS>BOND
     1     1     2   ar
     2     1     5   ar
     3     1     9   ar
     4     2     3   ar
     5     3     4   ar
     6     3    32    1
     7     4     5   ar
     8     4    28    1
     9     5     6   ar
    10     6     7   ar
    11     7     8   ar
    12     8     9   ar
    13     9    10    1
    14    10    11    1
    15    10    27    1
    16    11    12    1
    17    12    13    1
    18    13    14    1
    19    13    26    1
    20    14    15   am
    21    14    25    2
    22    15    16    1
    23    16    17    1
    24    16    22    1
    25    17    18   ar
    26    17    21   ar
    27    18    19   ar
    28    19    20   ar
    29    20    21   ar
    30    22    23    1
    31    23    24    1
    32    26    27    1
    33    28    29    1
    34    29    30    1
    35    30    31    1
    36    31    32    1
