@<TRIPOS>MOLECULE
35607_ChemDiv_C066-3709
 32 36 0 0 0
SMALL
GASTEIGER
Energy = 0

@<TRIPOS>ATOM
      1 C          -2.1670   -0.4960    0.0000 C.ar    1  LIG1        0.0781
      2 C          -1.3000   -0.9960    0.0000 C.ar    1  LIG1        0.0865
      3 C          -1.3000   -1.9960    0.0000 C.ar    1  LIG1        0.2975
      4 N          -2.1670   -2.4960    0.0000 N.ar    1  LIG1        0.0709
      5 C          -3.0380   -1.9960    0.0000 C.ar    1  LIG1        0.2712
      6 C          -3.0380   -0.9960    0.0000 C.ar    1  LIG1        0.0589
      7 C          -3.9040   -0.4960    0.0000 C.3     1  LIG1        0.0336
      8 C          -4.7670   -0.9960    0.0000 C.3     1  LIG1        0.0055
      9 C          -4.7670   -1.9960    0.0000 C.3     1  LIG1        0.0117
     10 C          -3.9040   -2.4960    0.0000 C.3     1  LIG1        0.1036
     11 C          -0.4380   -2.4960    0.0000 C.ar    1  LIG1        0.0775
     12 C           0.4290   -1.9960    0.0000 C.ar    1  LIG1        0.0229
     13 C           0.4290   -0.9960    0.0000 C.ar    1  LIG1        0.0741
     14 N           1.3040   -0.4960    0.0000 N.am    1  LIG1       -0.1754
     15 C           2.1670   -1.0080    0.0000 C.2     1  LIG1        0.2705
     16 C           3.0330   -0.5080    0.0000 C.ar    1  LIG1        0.0745
     17 C           3.0290    0.4880    0.0000 C.ar    1  LIG1        0.1034
     18 N           3.8920    0.9880    0.0000 N.ar    1  LIG1       -0.2422
     19 C           4.7630    0.4880    0.0000 C.ar    1  LIG1        0.0989
     20 C           4.7580   -0.5210    0.0000 C.ar    1  LIG1        0.0208
     21 C           3.8920   -1.0130    0.0000 C.ar    1  LIG1        0.0077
     22 O           2.1580   -2.0080    0.0000 O.2     1  LIG1       -0.2680
     23 C          -0.4380   -0.4960    0.0000 C.ar    1  LIG1        0.0240
     24 N          -2.1670    0.5000    0.0000 N.pl3   1  LIG1       -0.2093
     25 C          -1.3000    1.0000    0.0000 C.ar    1  LIG1        0.1043
     26 C          -1.3000    2.0000    0.0000 C.ar    1  LIG1        0.1538
     27 O          -2.1670    2.5000    0.0000 O.3     1  LIG1       -0.4701
     28 C          -3.0380    2.0000    0.0000 C.3     1  LIG1        0.2525
     29 C          -0.4380    2.5000    0.0000 C.ar    1  LIG1        0.0382
     30 C           0.4290    2.0000    0.0000 C.ar    1  LIG1        0.0032
     31 C           0.4290    1.0000    0.0000 C.ar    1  LIG1        0.0015
     32 C          -0.4380    0.5000    0.0000 C.ar    1  LIG1        0.0196
@<TRIPOS>BOND
     1     1     2   ar
     2     1     6   ar
     3     1    24    1
     4     2     3   ar
     5     2    23   ar
     6     3     4   ar
     7     3    11   ar
     8     4     5   ar
     9     5     6   ar
    10     5    10    1
    11     6     7    1
    12     7     8    1
    13     8     9    1
    14     9    10    1
    15    11    12   ar
    16    12    13   ar
    17    13    14    1
    18    13    23   ar
    19    14    15   am
    20    15    16    1
    21    15    22    2
    22    16    17   ar
    23    16    21   ar
    24    17    18   ar
    25    18    19   ar
    26    19    20   ar
    27    20    21   ar
    28    24    25    1
    29    25    26   ar
    30    25    32   ar
    31    26    27    1
    32    26    29   ar
    33    27    28    1
    34    29    30   ar
    35    30    31   ar
    36    31    32   ar
