@<TRIPOS>MOLECULE
35602_ChemDiv_E679-0595
 22 25 0 0 0
SMALL
GASTEIGER
Energy = 0

@<TRIPOS>ATOM
      1 C           0.4170   -0.5630    0.0000 C.ar    1  LIG1        0.1498
      2 N           0.1040   -1.5170    0.0000 N.ar    1  LIG1       -0.2264
      3 C           0.9130   -2.1040    0.0000 C.ar    1  LIG1        0.1215
      4 N           1.7250   -1.5170    0.0000 N.ar    1  LIG1       -0.3002
      5 C           1.4130   -0.5630    0.0000 C.ar    1  LIG1        0.1670
      6 N           1.9130    0.3000    0.0000 N.ar    1  LIG1       -0.2049
      7 C           1.4130    1.1670    0.0000 C.ar    1  LIG1        0.2015
      8 N           0.4170    1.1670    0.0000 N.ar    1  LIG1       -0.2055
      9 C          -0.0880    0.3000    0.0000 C.ar    1  LIG1        0.1743
     10 N          -1.0830    0.3000    0.0000 N.pl3   1  LIG1       -0.1928
     11 C          -1.5830    1.1670    0.0000 C.ar    1  LIG1        0.0723
     12 C          -2.5880    1.1670    0.0000 C.ar    1  LIG1        0.0189
     13 C          -3.0880    2.0330    0.0000 C.ar    1  LIG1        0.0310
     14 C          -2.5880    2.8960    0.0000 C.ar    1  LIG1        0.1402
     15 F          -3.0880    3.7670    0.0000 F       1  LIG1       -0.2042
     16 C          -1.5830    2.8960    0.0000 C.ar    1  LIG1        0.0310
     17 C          -1.0830    2.0330    0.0000 C.ar    1  LIG1        0.0189
     18 C           2.6880   -1.7830    0.0000 C.3     1  LIG1        0.1086
     19 C           3.0830   -2.7000    0.0000 C.3     1  LIG1        0.0246
     20 C           2.6080   -3.5830    0.0000 C.3     1  LIG1        0.0024
     21 C           1.6250   -3.7630    0.0000 C.3     1  LIG1        0.0080
     22 C           0.8710   -3.1040    0.0000 C.3     1  LIG1        0.0640
@<TRIPOS>BOND
     1     1     2   ar
     2     1     5   ar
     3     1     9   ar
     4     2     3   ar
     5     3     4   ar
     6     3    22    1
     7     4     5   ar
     8     4    18    1
     9     5     6   ar
    10     6     7   ar
    11     7     8   ar
    12     8     9   ar
    13     9    10    1
    14    10    11    1
    15    11    12   ar
    16    11    17   ar
    17    12    13   ar
    18    13    14   ar
    19    14    15    1
    20    14    16   ar
    21    16    17   ar
    22    18    19    1
    23    19    20    1
    24    20    21    1
    25    21    22    1
