@<TRIPOS>MOLECULE
35600_ChemDiv_C094-1853
 31 34 0 0 0
SMALL
GASTEIGER
Energy = 0

@<TRIPOS>ATOM
      1 N           3.9580    2.1380    0.0000 N.am    1  LIG1       -0.1248
      2 C           4.6040    1.3920    0.0000 C.2     1  LIG1        0.3463
      3 N           4.0880    0.5420    0.0000 N.am    1  LIG1       -0.1787
      4 C           3.1130    0.7830    0.0000 C.3     1  LIG1        0.1839
      5 C           3.0380    1.7710    0.0000 C.2     1  LIG1        0.2696
      6 O           2.1920    2.2750    0.0000 O.2     1  LIG1       -0.2710
      7 C           2.3580    0.1460    0.0000 C.3     1  LIG1        0.1164
      8 C           1.4250    0.4710    0.0000 C.2     1  LIG1        0.2284
      9 N           0.7210   -0.1380    0.0000 N.am    1  LIG1       -0.2700
     10 C          -0.8710    0.1330    0.0000 C.3     1  LIG1        0.1307
     11 C          -2.5080    0.2000    0.0000 C.2     1  LIG1        0.2574
     12 N          -3.2040   -0.4210    0.0000 N.am    1  LIG1       -0.2059
     13 C          -4.0960   -0.1210    0.0000 C.3     1  LIG1        0.0954
     14 C          -4.8580   -0.6580    0.0000 C.3     1  LIG1        0.0217
     15 C          -5.6040   -0.0960    0.0000 C.3     1  LIG1        0.0018
     16 C          -5.3080    0.7880    0.0000 C.3     1  LIG1        0.0018
     17 C          -4.3750    0.7670    0.0000 C.3     1  LIG1        0.0217
     18 O          -2.6750    1.1380    0.0000 O.2     1  LIG1       -0.2716
     19 C           0.0250    0.5130    0.0000 C.3     1  LIG1        0.0272
     20 C           0.0250    1.4460    0.0000 C.3     1  LIG1        0.0021
     21 C          -0.7790    1.9130    0.0000 C.3     1  LIG1        0.0001
     22 C          -1.5790    1.4460    0.0000 C.3     1  LIG1        0.0021
     23 C          -1.5790    0.5130    0.0000 C.3     1  LIG1        0.0272
     24 C           0.9830   -1.1000    0.0000 C.3     1  LIG1        0.1269
     25 C           1.9460   -1.3540    0.0000 C.ar    1  LIG1        0.0273
     26 S           2.7080   -0.7170    0.0000 S.2     1  LIG1       -0.0891
     27 C           3.5460   -1.2500    0.0000 C.ar    1  LIG1        0.0352
     28 C           3.3080   -2.2130    0.0000 C.ar    1  LIG1        0.0072
     29 C           2.3040   -2.2750    0.0000 C.ar    1  LIG1        0.0044
     30 O           1.2580    1.3920    0.0000 O.2     1  LIG1       -0.2748
     31 O           5.6000    1.4670    0.0000 O.2     1  LIG1       -0.2487
@<TRIPOS>BOND
     1     1     2   am
     2     1     5   am
     3     2     3   am
     4     2    31    2
     5     3     4    1
     6     4     5    1
     7     4     7    1
     8     5     6    2
     9     7     8    1
    10     8     9   am
    11     8    30    2
    12     9    10    1
    13     9    24    1
    14    10    11    1
    15    10    19    1
    16    10    23    1
    17    11    12   am
    18    11    18    2
    19    12    13    1
    20    13    14    1
    21    13    17    1
    22    14    15    1
    23    15    16    1
    24    16    17    1
    25    19    20    1
    26    20    21    1
    27    21    22    1
    28    22    23    1
    29    24    25    1
    30    25    26   ar
    31    25    29   ar
    32    26    27   ar
    33    27    28   ar
    34    28    29   ar
