@<TRIPOS>MOLECULE
35603_ChemDiv_C066-3049
 24 27 0 0 0
SMALL
GASTEIGER
Energy = 0

@<TRIPOS>ATOM
      1 C          -0.4250   -0.9920    0.0000 C.ar    1  LIG1        0.0781
      2 C           0.4380   -1.4920    0.0000 C.ar    1  LIG1        0.0866
      3 C           0.4330   -2.4960    0.0000 C.ar    1  LIG1        0.2975
      4 N          -0.4380   -2.9920    0.0000 N.ar    1  LIG1        0.0709
      5 C          -1.2960   -2.4830    0.0000 C.ar    1  LIG1        0.2712
      6 C          -1.2920   -1.4830    0.0000 C.ar    1  LIG1        0.0589
      7 C          -2.1500   -0.9750    0.0000 C.3     1  LIG1        0.0336
      8 C          -3.0210   -1.4750    0.0000 C.3     1  LIG1        0.0055
      9 C          -3.0210   -2.4790    0.0000 C.3     1  LIG1        0.0117
     10 C          -2.1630   -2.9790    0.0000 C.3     1  LIG1        0.1036
     11 C           1.2960   -3.0000    0.0000 C.ar    1  LIG1        0.0775
     12 C           2.1630   -2.5000    0.0000 C.ar    1  LIG1        0.0244
     13 C           2.1630   -1.4960    0.0000 C.ar    1  LIG1        0.0895
     14 C           1.3040   -0.9960    0.0000 C.ar    1  LIG1        0.0255
     15 N           3.0290   -0.9830    0.0000 N.pl3   1  LIG1       -0.1281
     16 N          -0.4290    0.0130    0.0000 N.pl3   1  LIG1       -0.2093
     17 C          -1.3000    0.5040    0.0000 C.ar    1  LIG1        0.1043
     18 C          -1.3040    1.5000    0.0000 C.ar    1  LIG1        0.1538
     19 O          -0.4290    2.0000    0.0000 O.3     1  LIG1       -0.4701
     20 C          -0.4330    3.0040    0.0000 C.3     1  LIG1        0.2525
     21 C          -2.1710    1.9960    0.0000 C.ar    1  LIG1        0.0382
     22 C          -3.0330    1.4880    0.0000 C.ar    1  LIG1        0.0032
     23 C          -3.0250    0.4880    0.0000 C.ar    1  LIG1        0.0015
     24 C          -2.1580   -0.0040    0.0000 C.ar    1  LIG1        0.0196
@<TRIPOS>BOND
     1     1     2   ar
     2     1     6   ar
     3     1    16    1
     4     2     3   ar
     5     2    14   ar
     6     3     4   ar
     7     3    11   ar
     8     4     5   ar
     9     5     6   ar
    10     5    10    1
    11     6     7    1
    12     7     8    1
    13     8     9    1
    14     9    10    1
    15    11    12   ar
    16    12    13   ar
    17    13    14   ar
    18    13    15    1
    19    16    17    1
    20    17    18   ar
    21    17    24   ar
    22    18    19    1
    23    18    21   ar
    24    19    20    1
    25    21    22   ar
    26    22    23   ar
    27    23    24   ar
