@<TRIPOS>MOLECULE
35605_ChemDiv_C066-3348
 26 29 0 0 0
SMALL
GASTEIGER
Energy = 0

@<TRIPOS>ATOM
      1 C          -0.4380   -1.2500    0.0000 C.ar    1  LIG1        0.0780
      2 C           0.4290   -1.7540    0.0000 C.ar    1  LIG1        0.0866
      3 C           0.4290   -2.7540    0.0000 C.ar    1  LIG1        0.2975
      4 N          -0.4380   -3.2500    0.0000 N.ar    1  LIG1        0.0709
      5 C          -1.3040   -2.7540    0.0000 C.ar    1  LIG1        0.2712
      6 C          -1.3000   -1.7580    0.0000 C.ar    1  LIG1        0.0589
      7 C          -2.1630   -1.2580    0.0000 C.3     1  LIG1        0.0336
      8 C          -3.0290   -1.7540    0.0000 C.3     1  LIG1        0.0055
      9 C          -3.0290   -2.7500    0.0000 C.3     1  LIG1        0.0117
     10 C          -2.1670   -3.2500    0.0000 C.3     1  LIG1        0.1036
     11 C           1.2960   -3.2500    0.0000 C.ar    1  LIG1        0.0775
     12 C           2.1630   -2.7500    0.0000 C.ar    1  LIG1        0.0244
     13 C           2.1630   -1.7330    0.0000 C.ar    1  LIG1        0.0895
     14 C           1.2880   -1.2420    0.0000 C.ar    1  LIG1        0.0255
     15 N           3.0250   -1.2380    0.0000 N.pl3   1  LIG1       -0.1281
     16 N          -0.4500   -0.2460    0.0000 N.pl3   1  LIG1       -0.2123
     17 C           0.4170    0.2670    0.0000 C.ar    1  LIG1        0.0737
     18 C           0.4000    1.2580    0.0000 C.ar    1  LIG1        0.0565
     19 C           1.2670    1.7670    0.0000 C.ar    1  LIG1        0.1737
     20 C           2.1380    1.2630    0.0000 C.ar    1  LIG1        0.1725
     21 C           2.1460    0.2670    0.0000 C.ar    1  LIG1        0.0414
     22 C           1.2790   -0.2330    0.0000 C.ar    1  LIG1        0.0198
     23 O           3.0040    1.7670    0.0000 O.3     1  LIG1       -0.4684
     24 C           2.9960    2.7710    0.0000 C.3     1  LIG1        0.2526
     25 O           1.2670    2.7710    0.0000 O.3     1  LIG1       -0.4683
     26 C           0.4000    3.2540    0.0000 C.3     1  LIG1        0.2526
@<TRIPOS>BOND
     1     1     2   ar
     2     1     6   ar
     3     1    16    1
     4     2     3   ar
     5     2    14   ar
     6     3     4   ar
     7     3    11   ar
     8     4     5   ar
     9     5     6   ar
    10     5    10    1
    11     6     7    1
    12     7     8    1
    13     8     9    1
    14     9    10    1
    15    11    12   ar
    16    12    13   ar
    17    13    14   ar
    18    13    15    1
    19    16    17    1
    20    17    18   ar
    21    17    22   ar
    22    18    19   ar
    23    19    20   ar
    24    19    25    1
    25    20    21   ar
    26    20    23    1
    27    21    22   ar
    28    23    24    1
    29    25    26    1
