@<TRIPOS>MOLECULE
35613_ChemDiv_C066-3765
 35 39 0 0 0
SMALL
GASTEIGER
Energy = 0

@<TRIPOS>ATOM
      1 C          -1.6460   -1.2330    0.0000 C.ar    1  LIG1        0.0780
      2 C          -0.7710   -1.7290    0.0000 C.ar    1  LIG1        0.0865
      3 C          -0.7710   -2.7290    0.0000 C.ar    1  LIG1        0.2975
      4 N          -1.6330   -3.2330    0.0000 N.ar    1  LIG1        0.0709
      5 C          -2.4960   -2.7420    0.0000 C.ar    1  LIG1        0.2712
      6 C          -2.5040   -1.7380    0.0000 C.ar    1  LIG1        0.0589
      7 C          -3.3670   -1.2420    0.0000 C.3     1  LIG1        0.0336
      8 C          -4.2380   -1.7380    0.0000 C.3     1  LIG1        0.0055
      9 C          -4.2380   -2.7500    0.0000 C.3     1  LIG1        0.0117
     10 C          -3.3670   -3.2420    0.0000 C.3     1  LIG1        0.1036
     11 C           0.0830   -3.2250    0.0000 C.ar    1  LIG1        0.0775
     12 C           0.9460   -2.7210    0.0000 C.ar    1  LIG1        0.0229
     13 C           0.9460   -1.7290    0.0000 C.ar    1  LIG1        0.0741
     14 C           0.0830   -1.2330    0.0000 C.ar    1  LIG1        0.0240
     15 N           1.8080   -1.2170    0.0000 N.am    1  LIG1       -0.1754
     16 C           1.7960   -0.2130    0.0000 C.2     1  LIG1        0.2692
     17 C           2.6630    0.2920    0.0000 C.2     1  LIG1        0.0629
     18 C           3.5330   -0.2130    0.0000 C.2     1  LIG1        0.0422
     19 C           4.4000    0.2920    0.0000 C.ar    1  LIG1        0.1457
     20 O           4.4880    1.2830    0.0000 O.2     1  LIG1       -0.4504
     21 C           5.4790    1.4920    0.0000 C.ar    1  LIG1        0.1796
     22 C           5.9790    0.6210    0.0000 C.ar    1  LIG1        0.0438
     23 C           5.3210   -0.1210    0.0000 C.ar    1  LIG1        0.0407
     24 O           0.9290    0.2790    0.0000 O.2     1  LIG1       -0.2680
     25 N          -1.6500   -0.2290    0.0000 N.pl3   1  LIG1       -0.2123
     26 C          -2.5170    0.2630    0.0000 C.ar    1  LIG1        0.0737
     27 C          -2.5250    1.2630    0.0000 C.ar    1  LIG1        0.0565
     28 C          -3.3960    1.7630    0.0000 C.ar    1  LIG1        0.1737
     29 C          -4.2580    1.2540    0.0000 C.ar    1  LIG1        0.1725
     30 C          -4.2500    0.2460    0.0000 C.ar    1  LIG1        0.0414
     31 C          -3.3750   -0.2420    0.0000 C.ar    1  LIG1        0.0198
     32 O          -5.1210    1.7420    0.0000 O.3     1  LIG1       -0.4684
     33 C          -5.9830    1.2330    0.0000 C.3     1  LIG1        0.2526
     34 O          -3.4000    2.7540    0.0000 O.3     1  LIG1       -0.4683
     35 C          -4.2710    3.2460    0.0000 C.3     1  LIG1        0.2526
@<TRIPOS>BOND
     1     1     2   ar
     2     1     6   ar
     3     1    25    1
     4     2     3   ar
     5     2    14   ar
     6     3     4   ar
     7     3    11   ar
     8     4     5   ar
     9     5     6   ar
    10     5    10    1
    11     6     7    1
    12     7     8    1
    13     8     9    1
    14     9    10    1
    15    11    12   ar
    16    12    13   ar
    17    13    14   ar
    18    13    15    1
    19    15    16   am
    20    16    17    1
    21    16    24    2
    22    17    18    2
    23    18    19    1
    24    19    20   ar
    25    19    23   ar
    26    20    21   ar
    27    21    22   ar
    28    22    23   ar
    29    25    26    1
    30    26    27   ar
    31    26    31   ar
    32    27    28   ar
    33    28    29   ar
    34    28    34    1
    35    29    30   ar
    36    29    32    1
    37    30    31   ar
    38    32    33    1
    39    34    35    1
