@<TRIPOS>MOLECULE
35611_ChemDiv_C066-3747
 33 37 0 0 0
SMALL
GASTEIGER
Energy = 0

@<TRIPOS>ATOM
      1 C          -1.3130   -1.2580    0.0000 C.ar    1  LIG1        0.0781
      2 C          -0.4420   -1.7630    0.0000 C.ar    1  LIG1        0.0865
      3 C          -0.4420   -2.7670    0.0000 C.ar    1  LIG1        0.2975
      4 N          -1.3130   -3.2710    0.0000 N.ar    1  LIG1        0.0709
      5 C          -2.1920   -2.7670    0.0000 C.ar    1  LIG1        0.2712
      6 C          -2.1920   -1.7630    0.0000 C.ar    1  LIG1        0.0589
      7 C          -3.0580   -1.2580    0.0000 C.3     1  LIG1        0.0336
      8 C          -3.9290   -1.7630    0.0000 C.3     1  LIG1        0.0055
      9 C          -3.9290   -2.7670    0.0000 C.3     1  LIG1        0.0117
     10 C          -3.0580   -3.2710    0.0000 C.3     1  LIG1        0.1036
     11 C           0.4290   -3.2710    0.0000 C.ar    1  LIG1        0.0775
     12 C           1.3000   -2.7670    0.0000 C.ar    1  LIG1        0.0229
     13 C           1.3000   -1.7630    0.0000 C.ar    1  LIG1        0.0740
     14 N           2.1790   -1.2580    0.0000 N.am    1  LIG1       -0.1742
     15 C           2.1880   -0.2540    0.0000 C.2     1  LIG1        0.3033
     16 C           3.0540    0.2500    0.0000 C.3     1  LIG1        0.2271
     17 N           3.0540    1.2580    0.0000 N.4     1  LIG1        0.3885
     18 C           3.9250    1.7630    0.0000 C.3     1  LIG1        0.1720
     19 C           3.9250    2.7710    0.0000 C.3     1  LIG1        0.2048
     20 O           3.0540    3.2750    0.0000 O.3     1  LIG1       -0.3411
     21 C           2.1880    2.7710    0.0000 C.3     1  LIG1        0.2048
     22 C           2.1880    1.7630    0.0000 C.3     1  LIG1        0.1720
     23 O           1.5290    0.1000    0.0000 O.2     1  LIG1       -0.2665
     24 C           0.4290   -1.2580    0.0000 C.ar    1  LIG1        0.0240
     25 N          -1.3130   -0.2540    0.0000 N.pl3   1  LIG1       -0.2093
     26 C          -0.4420    0.2500    0.0000 C.ar    1  LIG1        0.1043
     27 C          -0.4420    1.2580    0.0000 C.ar    1  LIG1        0.1538
     28 O          -1.3210    1.7750    0.0000 O.3     1  LIG1       -0.4701
     29 C          -2.2040    1.2790    0.0000 C.3     1  LIG1        0.2525
     30 C           0.4290    1.7630    0.0000 C.ar    1  LIG1        0.0382
     31 C           1.3000    1.2580    0.0000 C.ar    1  LIG1        0.0032
     32 C           1.3000    0.2500    0.0000 C.ar    1  LIG1        0.0015
     33 C           0.4290   -0.2540    0.0000 C.ar    1  LIG1        0.0196
@<TRIPOS>BOND
     1     1     2   ar
     2     1     6   ar
     3     1    25    1
     4     2     3   ar
     5     2    24   ar
     6     3     4   ar
     7     3    11   ar
     8     4     5   ar
     9     5     6   ar
    10     5    10    1
    11     6     7    1
    12     7     8    1
    13     8     9    1
    14     9    10    1
    15    11    12   ar
    16    12    13   ar
    17    13    14    1
    18    13    24   ar
    19    14    15   am
    20    15    16    1
    21    15    23    2
    22    16    17    1
    23    17    18    1
    24    17    22    1
    25    18    19    1
    26    19    20    1
    27    20    21    1
    28    21    22    1
    29    25    26    1
    30    26    27   ar
    31    26    33   ar
    32    27    28    1
    33    27    30   ar
    34    28    29    1
    35    30    31   ar
    36    31    32   ar
    37    32    33   ar
