@<TRIPOS>MOLECULE
35612_ChemDiv_C066-4042
 29 32 0 0 0
SMALL
GASTEIGER
Energy = 0

@<TRIPOS>ATOM
      1 C           0.4330    2.2420    0.0000 C.ar    1  LIG1        0.0923
      2 C           1.3000    2.7420    0.0000 C.ar    1  LIG1        0.0951
      3 N           1.3000    3.7500    0.0000 N.ar    1  LIG1       -0.2910
      4 C           0.4330    4.2460    0.0000 C.ar    1  LIG1        0.2610
      5 C          -0.4420    3.7500    0.0000 C.ar    1  LIG1        0.0575
      6 C          -0.4420    2.7500    0.0000 C.ar    1  LIG1        0.0215
      7 C          -1.3040    2.2420    0.0000 C.ar    1  LIG1        0.0015
      8 C          -2.1670    2.7420    0.0000 C.ar    1  LIG1        0.0000
      9 C          -2.1670    3.7380    0.0000 C.ar    1  LIG1        0.0002
     10 C          -1.3040    4.2460    0.0000 C.ar    1  LIG1        0.0048
     11 O           0.4210    5.2460    0.0000 O.2     1  LIG1       -0.2670
     12 C           2.1630    4.2330    0.0000 C.3     1  LIG1        0.1336
     13 N           0.4210    1.2420    0.0000 N.am    1  LIG1       -0.1607
     14 C           1.2830    0.7420    0.0000 C.2     1  LIG1        0.3276
     15 N           1.2830   -0.2580    0.0000 N.am    1  LIG1       -0.2591
     16 C           2.1500   -0.7630    0.0000 C.3     1  LIG1        0.1164
     17 C           2.1500   -1.7580    0.0000 C.3     1  LIG1        0.1124
     18 N           1.2790   -2.2580    0.0000 N.pl3   1  LIG1       -0.3043
     19 C           1.2790   -3.2540    0.0000 C.ar    1  LIG1        0.0436
     20 C           0.4080   -3.7460    0.0000 C.ar    1  LIG1       -0.0125
     21 C           0.4080   -4.7460    0.0000 C.ar    1  LIG1       -0.0246
     22 C           1.2710   -5.2460    0.0000 C.ar    1  LIG1       -0.0045
     23 C           2.1420   -4.7460    0.0000 C.ar    1  LIG1        0.0009
     24 C           2.1330   -3.7460    0.0000 C.ar    1  LIG1        0.0142
     25 C          -0.4540   -5.2460    0.0000 C.3     1  LIG1        0.0307
     26 C          -0.4540   -3.2460    0.0000 C.3     1  LIG1        0.0320
     27 C           0.4080   -1.7580    0.0000 C.3     1  LIG1        0.1124
     28 C           0.4170   -0.7580    0.0000 C.3     1  LIG1        0.1164
     29 O           2.1500    1.2500    0.0000 O.2     1  LIG1       -0.2504
@<TRIPOS>BOND
     1     1     2   ar
     2     1     6   ar
     3     1    13    1
     4     2     3   ar
     5     3     4   ar
     6     3    12    1
     7     4     5   ar
     8     4    11    2
     9     5     6   ar
    10     5    10   ar
    11     6     7   ar
    12     7     8   ar
    13     8     9   ar
    14     9    10   ar
    15    13    14   am
    16    14    15   am
    17    14    29    2
    18    15    16    1
    19    15    28    1
    20    16    17    1
    21    17    18    1
    22    18    19    1
    23    18    27    1
    24    19    20   ar
    25    19    24   ar
    26    20    21   ar
    27    20    26    1
    28    21    22   ar
    29    21    25    1
    30    22    23   ar
    31    23    24   ar
    32    27    28    1
