@<TRIPOS>MOLECULE
35610_ChemDiv_E715-0577
 34 38 0 0 0
SMALL
GASTEIGER
Energy = 0

@<TRIPOS>ATOM
      1 C          -1.6130   -2.7670    0.0000 C.ar    1  LIG1        0.1481
      2 N          -2.6250   -2.7670    0.0000 N.ar    1  LIG1       -0.2265
      3 C          -2.9290   -3.7330    0.0000 C.ar    1  LIG1        0.1215
      4 N          -2.1080   -4.3330    0.0000 N.ar    1  LIG1       -0.3002
      5 C          -1.2960   -3.7330    0.0000 C.ar    1  LIG1        0.1670
      6 N          -0.3130   -3.9380    0.0000 N.ar    1  LIG1       -0.2049
      7 C           0.3670   -3.1920    0.0000 C.ar    1  LIG1        0.2015
      8 N           0.0500   -2.2250    0.0000 N.ar    1  LIG1       -0.2073
      9 C          -0.9460   -2.0130    0.0000 C.ar    1  LIG1        0.1542
     10 N          -1.2080   -1.0330    0.0000 N.pl3   1  LIG1       -0.2919
     11 C          -2.2000   -0.7750    0.0000 C.3     1  LIG1        0.0927
     12 C          -2.4580    0.2040    0.0000 C.3     1  LIG1        0.0307
     13 C          -1.7330    0.9290    0.0000 C.3     1  LIG1        0.0820
     14 C          -2.0000    1.8960    0.0000 C.2     1  LIG1        0.2469
     15 N          -1.2960    2.6040    0.0000 N.am    1  LIG1       -0.1543
     16 C          -0.9960    3.5500    0.0000 C.ar    1  LIG1        0.1855
     17 N          -0.0540    3.8540    0.0000 N.ar    1  LIG1       -0.2263
     18 C          -0.0580    4.8580    0.0000 C.ar    1  LIG1        0.0787
     19 C           0.7460    5.4630    0.0000 C.3     1  LIG1        0.1557
     20 C           1.6670    5.0670    0.0000 C.2     1  LIG1        0.3231
     21 O           1.7710    4.0750    0.0000 O.2     1  LIG1       -0.2497
     22 O           2.4750    5.6710    0.0000 O.3     1  LIG1       -0.4482
     23 C           3.3880    5.2790    0.0000 C.3     1  LIG1        0.2086
     24 C           4.2000    5.8710    0.0000 C.3     1  LIG1        0.0513
     25 C          -1.0210    5.1460    0.0000 C.ar    1  LIG1        0.0534
     26 S          -1.5960    4.3460    0.0000 S.2     1  LIG1       -0.0495
     27 O          -2.9710    2.1580    0.0000 O.2     1  LIG1       -0.2729
     28 C          -0.7540    0.6630    0.0000 C.3     1  LIG1        0.0307
     29 C          -0.4920   -0.3080    0.0000 C.3     1  LIG1        0.0927
     30 C          -2.0000   -5.1920    0.0000 C.3     1  LIG1        0.1086
     31 C          -2.7170   -5.8710    0.0000 C.3     1  LIG1        0.0246
     32 C          -3.7380   -5.6670    0.0000 C.3     1  LIG1        0.0024
     33 C          -4.2040   -4.7460    0.0000 C.3     1  LIG1        0.0080
     34 C          -3.7670   -3.8710    0.0000 C.3     1  LIG1        0.0640
@<TRIPOS>BOND
     1     1     2   ar
     2     1     5   ar
     3     1     9   ar
     4     2     3   ar
     5     3     4   ar
     6     3    34    1
     7     4     5   ar
     8     4    30    1
     9     5     6   ar
    10     6     7   ar
    11     7     8   ar
    12     8     9   ar
    13     9    10    1
    14    10    11    1
    15    10    29    1
    16    11    12    1
    17    12    13    1
    18    13    14    1
    19    13    28    1
    20    14    15   am
    21    14    27    2
    22    15    16    1
    23    16    17   ar
    24    16    26   ar
    25    17    18   ar
    26    18    19    1
    27    18    25   ar
    28    19    20    1
    29    20    21    2
    30    20    22    1
    31    22    23    1
    32    23    24    1
    33    25    26   ar
    34    28    29    1
    35    30    31    1
    36    31    32    1
    37    32    33    1
    38    33    34    1
