@<TRIPOS>MOLECULE
35614_ChemDiv_D216-0061
 21 22 0 0 0
SMALL
GASTEIGER
Energy = 0

@<TRIPOS>ATOM
      1 C          -1.3170    0.7500    0.0000 C.ar    1  LIG1        0.1328
      2 C          -2.1880    1.2580    0.0000 C.ar    1  LIG1        0.2139
      3 C          -3.0500    0.7500    0.0000 C.ar    1  LIG1        0.0609
      4 C          -3.0580   -0.2500    0.0000 C.ar    1  LIG1        0.1183
      5 N          -2.1880   -0.7540    0.0000 N.ar    1  LIG1       -0.2392
      6 C          -1.3170   -0.2540    0.0000 C.ar    1  LIG1        0.1188
      7 C          -3.9210   -0.7540    0.0000 C.ar    1  LIG1        0.1563
      8 O          -3.9080   -1.7540    0.0000 O.3     1  LIG1       -0.4699
      9 C          -4.7710   -2.2500    0.0000 C.3     1  LIG1        0.2525
     10 C          -4.7830   -0.2540    0.0000 C.ar    1  LIG1        0.0385
     11 C          -4.7830    0.7500    0.0000 C.ar    1  LIG1        0.0033
     12 C          -3.9210    1.2460    0.0000 C.ar    1  LIG1        0.0049
     13 O          -2.1960    2.2540    0.0000 O.2     1  LIG1       -0.2851
     14 N          -0.4540    1.2420    0.0000 N.am    1  LIG1       -0.1561
     15 C           0.4040    0.7420    0.0000 C.2     1  LIG1        0.3436
     16 O           0.4040   -0.2540    0.0000 O.2     1  LIG1       -0.2488
     17 N           1.2790    1.2420    0.0000 N.am    1  LIG1       -0.1868
     18 C           2.1920    0.8380    0.0000 C.3     1  LIG1        0.1195
     19 C           3.0540    1.3500    0.0000 C.3     1  LIG1        0.0590
     20 C           3.9170    0.8540    0.0000 C.3     1  LIG1        0.1839
     21 O           4.7790    1.3630    0.0000 O.3     1  LIG1       -0.2204
@<TRIPOS>BOND
     1     1     2   ar
     2     1     6   ar
     3     1    14    1
     4     2     3   ar
     5     2    13    2
     6     3     4   ar
     7     3    12   ar
     8     4     5   ar
     9     4     7   ar
    10     5     6   ar
    11     7     8    1
    12     7    10   ar
    13     8     9    1
    14    10    11   ar
    15    11    12   ar
    16    14    15   am
    17    15    16    2
    18    15    17   am
    19    17    18    1
    20    18    19    1
    21    19    20    1
    22    20    21    1
