@<TRIPOS>MOLECULE
35620_ChemDiv_C094-1901
 32 35 0 0 0
SMALL
GASTEIGER
Energy = 0

@<TRIPOS>ATOM
      1 N           3.9580    2.9920    0.0000 N.am    1  LIG1       -0.1248
      2 C           4.6040    2.2460    0.0000 C.2     1  LIG1        0.3463
      3 N           4.0880    1.3960    0.0000 N.am    1  LIG1       -0.1787
      4 C           3.1080    1.6380    0.0000 C.3     1  LIG1        0.1839
      5 C           3.0380    2.6290    0.0000 C.2     1  LIG1        0.2696
      6 O           2.1920    3.1330    0.0000 O.2     1  LIG1       -0.2710
      7 C           2.3580    1.0000    0.0000 C.3     1  LIG1        0.1167
      8 C           1.4250    1.3250    0.0000 C.2     1  LIG1        0.2319
      9 N           0.7210    0.7170    0.0000 N.am    1  LIG1       -0.2536
     10 C          -0.8710    0.9880    0.0000 C.3     1  LIG1        0.1343
     11 C          -2.5080    1.0580    0.0000 C.2     1  LIG1        0.2577
     12 N          -3.2040    0.4330    0.0000 N.am    1  LIG1       -0.2059
     13 C          -4.0960    0.7380    0.0000 C.3     1  LIG1        0.0954
     14 C          -4.3710    1.6250    0.0000 C.3     1  LIG1        0.0217
     15 C          -5.3080    1.6420    0.0000 C.3     1  LIG1        0.0018
     16 C          -5.6040    0.7630    0.0000 C.3     1  LIG1        0.0018
     17 C          -4.8580    0.2000    0.0000 C.3     1  LIG1        0.0217
     18 O          -2.6750    1.9920    0.0000 O.2     1  LIG1       -0.2716
     19 C           0.0250    1.3670    0.0000 C.3     1  LIG1        0.0275
     20 C           0.0250    2.3040    0.0000 C.3     1  LIG1        0.0022
     21 C          -0.7790    2.7710    0.0000 C.3     1  LIG1        0.0001
     22 C          -1.5790    2.3040    0.0000 C.3     1  LIG1        0.0022
     23 C          -1.5790    1.3670    0.0000 C.3     1  LIG1        0.0275
     24 C           0.9830   -0.2420    0.0000 C.ar    1  LIG1        0.0541
     25 C           1.9330   -0.4920    0.0000 C.ar    1  LIG1        0.0146
     26 C           2.2040   -1.4580    0.0000 C.ar    1  LIG1       -0.0030
     27 C           1.5080   -2.1670    0.0000 C.ar    1  LIG1       -0.0218
     28 C           0.5420   -1.9130    0.0000 C.ar    1  LIG1       -0.0030
     29 C           0.2790   -0.9500    0.0000 C.ar    1  LIG1        0.0146
     30 C           1.7670   -3.1290    0.0000 C.3     1  LIG1        0.0310
     31 O           1.2580    2.2460    0.0000 O.2     1  LIG1       -0.2745
     32 O           5.6000    2.3210    0.0000 O.2     1  LIG1       -0.2487
@<TRIPOS>BOND
     1     1     2   am
     2     1     5   am
     3     2     3   am
     4     2    32    2
     5     3     4    1
     6     4     5    1
     7     4     7    1
     8     5     6    2
     9     7     8    1
    10     8     9   am
    11     8    31    2
    12     9    10    1
    13     9    24    1
    14    10    11    1
    15    10    19    1
    16    10    23    1
    17    11    12   am
    18    11    18    2
    19    12    13    1
    20    13    14    1
    21    13    17    1
    22    14    15    1
    23    15    16    1
    24    16    17    1
    25    19    20    1
    26    20    21    1
    27    21    22    1
    28    22    23    1
    29    24    25   ar
    30    24    29   ar
    31    25    26   ar
    32    26    27   ar
    33    27    28   ar
    34    27    30    1
    35    28    29   ar
