@<TRIPOS>MOLECULE
35628_ChemDiv_C094-2066
 27 28 0 0 0
SMALL
GASTEIGER
Energy = 0

@<TRIPOS>ATOM
      1 N           2.6000   -0.9960    0.0000 N.am    1  LIG1       -0.1881
      2 C           2.6000   -1.9960    0.0000 C.2     1  LIG1        0.2848
      3 C           3.4670   -2.5000    0.0000 C.ar    1  LIG1        0.1552
      4 N           4.3330   -1.9960    0.0000 N.ar    1  LIG1       -0.2360
      5 C           5.2000   -2.5000    0.0000 C.ar    1  LIG1        0.1196
      6 C           5.2000   -3.4960    0.0000 C.ar    1  LIG1        0.1195
      7 N           4.3250   -3.9960    0.0000 N.ar    1  LIG1       -0.2390
      8 C           3.4670   -3.4960    0.0000 C.ar    1  LIG1        0.1226
      9 O           1.7330   -2.5000    0.0000 O.2     1  LIG1       -0.2666
     10 C           1.7330   -0.4960    0.0000 C.3     1  LIG1        0.1953
     11 C           0.8750   -0.9960    0.0000 C.2     1  LIG1        0.2655
     12 O           0.8750   -1.9960    0.0000 O.2     1  LIG1       -0.2711
     13 N           0.0000   -0.4960    0.0000 N.am    1  LIG1       -0.2036
     14 C          -0.8710   -0.9960    0.0000 C.3     1  LIG1        0.1178
     15 C          -1.7250   -0.4960    0.0000 C.3     1  LIG1        0.0555
     16 C          -2.6000   -0.9960    0.0000 C.3     1  LIG1        0.1440
     17 O          -3.4670   -0.4960    0.0000 O.3     1  LIG1       -0.3537
     18 C          -4.3250   -0.9960    0.0000 C.3     1  LIG1        0.1422
     19 C          -5.2040   -0.4960    0.0000 C.3     1  LIG1        0.0346
     20 C           1.7330    0.5040    0.0000 C.ar    1  LIG1        0.0064
     21 C           2.5920    1.0000    0.0000 C.ar    1  LIG1        0.0010
     22 C           2.5920    2.0000    0.0000 C.ar    1  LIG1        0.0366
     23 C           1.7330    2.5040    0.0000 C.ar    1  LIG1        0.1387
     24 C           0.8670    2.0000    0.0000 C.ar    1  LIG1        0.0366
     25 C           0.8670    1.0000    0.0000 C.ar    1  LIG1        0.0010
     26 O           1.7330    3.5000    0.0000 O.3     1  LIG1       -0.4714
     27 C           2.5920    4.0000    0.0000 C.3     1  LIG1        0.2525
@<TRIPOS>BOND
     1     1     2   am
     2     1    10    1
     3     2     3    1
     4     2     9    2
     5     3     4   ar
     6     3     8   ar
     7     4     5   ar
     8     5     6   ar
     9     6     7   ar
    10     7     8   ar
    11    10    11    1
    12    10    20    1
    13    11    12    2
    14    11    13   am
    15    13    14    1
    16    14    15    1
    17    15    16    1
    18    16    17    1
    19    17    18    1
    20    18    19    1
    21    20    21   ar
    22    20    25   ar
    23    21    22   ar
    24    22    23   ar
    25    23    24   ar
    26    23    26    1
    27    24    25   ar
    28    26    27    1
