@<TRIPOS>MOLECULE
35622_ChemDiv_C094-2026
 28 29 0 0 0
SMALL
GASTEIGER
Energy = 0

@<TRIPOS>ATOM
      1 N           4.0830   -3.7460    0.0000 N.am    1  LIG1       -0.1248
      2 C           3.1000   -3.8460    0.0000 C.2     1  LIG1        0.3463
      3 N           2.6880   -2.9380    0.0000 N.am    1  LIG1       -0.1787
      4 C           3.4330   -2.2670    0.0000 C.3     1  LIG1        0.1839
      5 C           4.2960   -2.7670    0.0000 C.2     1  LIG1        0.2696
      6 O           5.2130   -2.3540    0.0000 O.2     1  LIG1       -0.2710
      7 C           3.4330   -1.2670    0.0000 C.3     1  LIG1        0.1179
      8 C           2.5710   -0.7670    0.0000 C.2     1  LIG1        0.2443
      9 N           2.5710    0.2290    0.0000 N.am    1  LIG1       -0.1931
     10 C           1.7040    0.7290    0.0000 C.3     1  LIG1        0.1949
     11 C           0.8500    0.2290    0.0000 C.2     1  LIG1        0.2655
     12 O           0.8500   -0.7670    0.0000 O.2     1  LIG1       -0.2711
     13 N          -0.0250    0.7290    0.0000 N.am    1  LIG1       -0.2036
     14 C          -0.8920    0.2290    0.0000 C.3     1  LIG1        0.1178
     15 C          -1.7460    0.7290    0.0000 C.3     1  LIG1        0.0555
     16 C          -2.6210    0.2290    0.0000 C.3     1  LIG1        0.1440
     17 O          -3.4880    0.7290    0.0000 O.3     1  LIG1       -0.3537
     18 C          -4.3420    0.2290    0.0000 C.3     1  LIG1        0.1422
     19 C          -5.2170    0.7290    0.0000 C.3     1  LIG1        0.0346
     20 C           1.7040    1.7250    0.0000 C.ar    1  LIG1        0.0063
     21 C           0.8380    2.2250    0.0000 C.ar    1  LIG1       -0.0013
     22 C           0.8380    3.2380    0.0000 C.ar    1  LIG1        0.0111
     23 C           1.7040    3.7330    0.0000 C.ar    1  LIG1        0.0577
     24 C           2.5630    3.2380    0.0000 C.ar    1  LIG1        0.0111
     25 C           2.5630    2.2250    0.0000 C.ar    1  LIG1       -0.0013
     26 CL          1.7040    4.7290    0.0000 Cl      1  LIG1       -0.0822
     27 O           1.7040   -1.2670    0.0000 O.2     1  LIG1       -0.2732
     28 O           2.6040   -4.7290    0.0000 O.2     1  LIG1       -0.2487
@<TRIPOS>BOND
     1     1     2   am
     2     1     5   am
     3     2     3   am
     4     2    28    2
     5     3     4    1
     6     4     5    1
     7     4     7    1
     8     5     6    2
     9     7     8    1
    10     8     9   am
    11     8    27    2
    12     9    10    1
    13    10    11    1
    14    10    20    1
    15    11    12    2
    16    11    13   am
    17    13    14    1
    18    14    15    1
    19    15    16    1
    20    16    17    1
    21    17    18    1
    22    18    19    1
    23    20    21   ar
    24    20    25   ar
    25    21    22   ar
    26    22    23   ar
    27    23    24   ar
    28    23    26    1
    29    24    25   ar
