@<TRIPOS>MOLECULE
35626_ChemDiv_C094-2048
 27 28 0 0 0
SMALL
GASTEIGER
Energy = 0

@<TRIPOS>ATOM
      1 C           3.0290   -2.2460    0.0000 C.ar    1  LIG1        0.0744
      2 C           2.1630   -1.7460    0.0000 C.2     1  LIG1        0.2670
      3 N           2.1630   -0.7500    0.0000 N.am    1  LIG1       -0.1894
      4 C           1.2960   -0.2500    0.0000 C.3     1  LIG1        0.1952
      5 C           0.4420   -0.7500    0.0000 C.2     1  LIG1        0.2655
      6 O           0.4420   -1.7460    0.0000 O.2     1  LIG1       -0.2711
      7 N          -0.4380   -0.2500    0.0000 N.am    1  LIG1       -0.2036
      8 C          -1.3040   -0.7500    0.0000 C.3     1  LIG1        0.1178
      9 C          -2.1580   -0.2500    0.0000 C.3     1  LIG1        0.0555
     10 C          -3.0330   -0.7500    0.0000 C.3     1  LIG1        0.1440
     11 O          -3.9000   -0.2500    0.0000 O.3     1  LIG1       -0.3537
     12 C          -4.7580   -0.7500    0.0000 C.3     1  LIG1        0.1422
     13 C          -5.6380   -0.2500    0.0000 C.3     1  LIG1        0.0346
     14 C           1.2960    0.7500    0.0000 C.ar    1  LIG1        0.0062
     15 C           2.1580    1.2500    0.0000 C.ar    1  LIG1       -0.0025
     16 C           2.1580    2.2500    0.0000 C.ar    1  LIG1       -0.0045
     17 C           1.2960    2.7500    0.0000 C.ar    1  LIG1       -0.0219
     18 C           0.4290    2.2500    0.0000 C.ar    1  LIG1       -0.0045
     19 C           0.4290    1.2500    0.0000 C.ar    1  LIG1       -0.0025
     20 C           1.2960    3.7540    0.0000 C.3     1  LIG1        0.0310
     21 O           1.2960   -2.2460    0.0000 O.2     1  LIG1       -0.2683
     22 C           3.0290   -3.2460    0.0000 C.ar    1  LIG1        0.1067
     23 N           3.8920   -3.7500    0.0000 N.ar    1  LIG1       -0.2062
     24 C           4.7580   -3.2460    0.0000 C.ar    1  LIG1        0.2793
     25 C           4.7580   -2.2460    0.0000 C.ar    1  LIG1        0.0627
     26 C           3.8920   -1.7460    0.0000 C.ar    1  LIG1        0.0111
     27 O           5.6330   -3.7500    0.0000 O.2     1  LIG1       -0.2652
@<TRIPOS>BOND
     1     1     2    1
     2     1    22   ar
     3     1    26   ar
     4     2     3   am
     5     2    21    2
     6     3     4    1
     7     4     5    1
     8     4    14    1
     9     5     6    2
    10     5     7   am
    11     7     8    1
    12     8     9    1
    13     9    10    1
    14    10    11    1
    15    11    12    1
    16    12    13    1
    17    14    15   ar
    18    14    19   ar
    19    15    16   ar
    20    16    17   ar
    21    17    18   ar
    22    17    20    1
    23    18    19   ar
    24    22    23   ar
    25    23    24   ar
    26    24    25   ar
    27    24    27    2
    28    25    26   ar
