@<TRIPOS>MOLECULE
35636_ChemDiv_E679-0407
 24 26 0 0 0
SMALL
GASTEIGER
Energy = 0

@<TRIPOS>ATOM
      1 C           2.0130    0.4040    0.0000 C.ar    1  LIG1        0.0923
      2 C           2.5170   -0.4630    0.0000 C.ar    1  LIG1        0.0951
      3 N           3.5210   -0.4630    0.0000 N.ar    1  LIG1       -0.2910
      4 C           4.0170    0.4040    0.0000 C.ar    1  LIG1        0.2610
      5 C           3.5210    1.2710    0.0000 C.ar    1  LIG1        0.0575
      6 C           2.5170    1.2710    0.0000 C.ar    1  LIG1        0.0215
      7 C           2.0130    2.1380    0.0000 C.ar    1  LIG1        0.0015
      8 C           2.5170    3.0040    0.0000 C.ar    1  LIG1        0.0000
      9 C           3.5210    3.0040    0.0000 C.ar    1  LIG1        0.0002
     10 C           4.0170    2.1380    0.0000 C.ar    1  LIG1        0.0048
     11 O           5.0210    0.4040    0.0000 O.2     1  LIG1       -0.2670
     12 C           4.0170   -1.3250    0.0000 C.3     1  LIG1        0.1336
     13 N           1.0170    0.4040    0.0000 N.am    1  LIG1       -0.1595
     14 C           0.5130   -0.4630    0.0000 C.2     1  LIG1        0.3435
     15 O           1.0170   -1.3250    0.0000 O.2     1  LIG1       -0.2488
     16 N          -0.4830   -0.4630    0.0000 N.am    1  LIG1       -0.1867
     17 C          -0.9880   -1.3250    0.0000 C.3     1  LIG1        0.1230
     18 C          -1.9880   -1.3250    0.0000 C.3     1  LIG1        0.0861
     19 C          -2.4880   -2.1920    0.0000 C.3     1  LIG1        0.1404
     20 N          -3.4880   -2.1920    0.0000 N.4     1  LIG1        0.3773
     21 C          -4.0710   -3.0000    0.0000 C.3     1  LIG1        0.1388
     22 C          -5.0250   -2.6920    0.0000 C.3     1  LIG1        0.0688
     23 C          -5.0250   -1.6920    0.0000 C.3     1  LIG1        0.0688
     24 C          -4.0710   -1.3830    0.0000 C.3     1  LIG1        0.1388
@<TRIPOS>BOND
     1     1     2   ar
     2     1     6   ar
     3     1    13    1
     4     2     3   ar
     5     3     4   ar
     6     3    12    1
     7     4     5   ar
     8     4    11    2
     9     5     6   ar
    10     5    10   ar
    11     6     7   ar
    12     7     8   ar
    13     8     9   ar
    14     9    10   ar
    15    13    14   am
    16    14    15    2
    17    14    16   am
    18    16    17    1
    19    17    18    1
    20    18    19    1
    21    19    20    1
    22    20    21    1
    23    20    24    1
    24    21    22    1
    25    22    23    1
    26    23    24    1
