@<TRIPOS>MOLECULE
35635_ChemDiv_C498-1384
 24 28 0 0 0
SMALL
GASTEIGER
Energy = 0

@<TRIPOS>ATOM
      1 C          -0.0630    0.8040    0.0000 C.ar    1  LIG1        0.0779
      2 C          -0.0710    1.7830    0.0000 C.ar    1  LIG1        0.0589
      3 C           0.8080    2.2880    0.0000 C.ar    1  LIG1        0.2712
      4 N           1.6710    1.7960    0.0000 N.ar    1  LIG1        0.0709
      5 C           1.6670    0.7960    0.0000 C.ar    1  LIG1        0.2974
      6 C           0.8000    0.2960    0.0000 C.ar    1  LIG1        0.0852
      7 C           0.8000   -0.6920    0.0000 C.ar    1  LIG1        0.0074
      8 C           1.6540   -1.1960    0.0000 C.ar    1  LIG1        0.0004
      9 C           2.5250   -0.6920    0.0000 C.ar    1  LIG1        0.0063
     10 C           2.5250    0.3000    0.0000 C.ar    1  LIG1        0.0762
     11 C           0.8080    3.2920    0.0000 C.3     1  LIG1        0.1036
     12 C          -0.0630    3.8000    0.0000 C.3     1  LIG1        0.0117
     13 C          -0.9330    3.2960    0.0000 C.3     1  LIG1        0.0055
     14 C          -0.9380    2.2830    0.0000 C.3     1  LIG1        0.0336
     15 N          -0.9290    0.3000    0.0000 N.pl3   1  LIG1       -0.2123
     16 C          -0.9290   -0.7170    0.0000 C.ar    1  LIG1        0.0737
     17 C          -1.7920   -1.2170    0.0000 C.ar    1  LIG1        0.0567
     18 C          -1.7880   -2.2040    0.0000 C.ar    1  LIG1        0.1777
     19 C          -0.9170   -2.7080    0.0000 C.ar    1  LIG1        0.1765
     20 O          -1.1250   -3.6830    0.0000 O.3     1  LIG1       -0.4346
     21 C          -2.1130   -3.7960    0.0000 C.3     1  LIG1        0.4294
     22 O          -2.5290   -2.8790    0.0000 O.3     1  LIG1       -0.4346
     23 C          -0.0540   -2.2040    0.0000 C.ar    1  LIG1        0.0415
     24 C          -0.0580   -1.2130    0.0000 C.ar    1  LIG1        0.0198
@<TRIPOS>BOND
     1     1     2   ar
     2     1     6   ar
     3     1    15    1
     4     2     3   ar
     5     2    14    1
     6     3     4   ar
     7     3    11    1
     8     4     5   ar
     9     5     6   ar
    10     5    10   ar
    11     6     7   ar
    12     7     8   ar
    13     8     9   ar
    14     9    10   ar
    15    11    12    1
    16    12    13    1
    17    13    14    1
    18    15    16    1
    19    16    17   ar
    20    16    24   ar
    21    17    18   ar
    22    18    19   ar
    23    18    22    1
    24    19    20    1
    25    19    23   ar
    26    20    21    1
    27    21    22    1
    28    23    24   ar
