@<TRIPOS>MOLECULE
35638_ChemDiv_E679-0475
 27 29 0 0 0
SMALL
GASTEIGER
Energy = 0

@<TRIPOS>ATOM
      1 C           1.9960    1.3000    0.0000 C.ar    1  LIG1        0.0923
      2 C           2.4960    0.4330    0.0000 C.ar    1  LIG1        0.0951
      3 N           3.5000    0.4330    0.0000 N.ar    1  LIG1       -0.2910
      4 C           3.9960    1.3000    0.0000 C.ar    1  LIG1        0.2610
      5 C           3.5000    2.1670    0.0000 C.ar    1  LIG1        0.0575
      6 C           2.4960    2.1670    0.0000 C.ar    1  LIG1        0.0215
      7 C           1.9960    3.0330    0.0000 C.ar    1  LIG1        0.0015
      8 C           2.4960    3.9000    0.0000 C.ar    1  LIG1        0.0000
      9 C           3.5000    3.9000    0.0000 C.ar    1  LIG1        0.0002
     10 C           3.9960    3.0330    0.0000 C.ar    1  LIG1        0.0048
     11 O           5.0000    1.3000    0.0000 O.2     1  LIG1       -0.2670
     12 C           3.9960   -0.4290    0.0000 C.3     1  LIG1        0.1336
     13 N           0.9960    1.3000    0.0000 N.am    1  LIG1       -0.1595
     14 C           0.4960    0.4330    0.0000 C.2     1  LIG1        0.3435
     15 N          -0.5040    0.4330    0.0000 N.am    1  LIG1       -0.1886
     16 C          -1.0080   -0.4290    0.0000 C.3     1  LIG1        0.1004
     17 C          -2.0040   -0.4290    0.0000 C.3     1  LIG1        0.0434
     18 C          -2.5080   -1.2960    0.0000 C.3     1  LIG1        0.0985
     19 N          -2.0040   -2.1630    0.0000 N.am    1  LIG1       -0.2459
     20 C          -2.5080   -3.0290    0.0000 C.2     1  LIG1        0.4049
     21 O          -2.0040   -3.8960    0.0000 O.2     1  LIG1       -0.2262
     22 O          -3.5040   -3.0290    0.0000 O.3     1  LIG1       -0.4345
     23 C          -4.0080   -2.1630    0.0000 C.3     1  LIG1        0.2102
     24 C          -5.0040   -2.1630    0.0000 C.3     1  LIG1        0.0513
     25 C          -1.0080   -2.1630    0.0000 C.3     1  LIG1        0.0985
     26 C          -0.5040   -1.2960    0.0000 C.3     1  LIG1        0.0434
     27 O           0.9960   -0.4290    0.0000 O.2     1  LIG1       -0.2488
@<TRIPOS>BOND
     1     1     2   ar
     2     1     6   ar
     3     1    13    1
     4     2     3   ar
     5     3     4   ar
     6     3    12    1
     7     4     5   ar
     8     4    11    2
     9     5     6   ar
    10     5    10   ar
    11     6     7   ar
    12     7     8   ar
    13     8     9   ar
    14     9    10   ar
    15    13    14   am
    16    14    15   am
    17    14    27    2
    18    15    16    1
    19    16    17    1
    20    16    26    1
    21    17    18    1
    22    18    19    1
    23    19    20   am
    24    19    25    1
    25    20    21    2
    26    20    22    1
    27    22    23    1
    28    23    24    1
    29    25    26    1
