@<TRIPOS>MOLECULE
35634_ChemDiv_E679-0358
 23 24 0 0 0
SMALL
GASTEIGER
Energy = 0

@<TRIPOS>ATOM
      1 C           1.4960   -0.4330    0.0000 C.ar    1  LIG1        0.0923
      2 C           1.9960   -1.3000    0.0000 C.ar    1  LIG1        0.0951
      3 N           3.0000   -1.3000    0.0000 N.ar    1  LIG1       -0.2910
      4 C           3.4960   -0.4330    0.0000 C.ar    1  LIG1        0.2610
      5 C           3.0000    0.4330    0.0000 C.ar    1  LIG1        0.0575
      6 C           1.9960    0.4330    0.0000 C.ar    1  LIG1        0.0215
      7 C           1.4960    1.3000    0.0000 C.ar    1  LIG1        0.0015
      8 C           1.9960    2.1670    0.0000 C.ar    1  LIG1        0.0000
      9 C           3.0000    2.1670    0.0000 C.ar    1  LIG1        0.0002
     10 C           3.4960    1.3000    0.0000 C.ar    1  LIG1        0.0048
     11 O           4.5000   -0.4330    0.0000 O.2     1  LIG1       -0.2670
     12 C           3.4960   -2.1630    0.0000 C.3     1  LIG1        0.1336
     13 N           0.5000   -0.4330    0.0000 N.am    1  LIG1       -0.1595
     14 C          -0.0040   -1.3000    0.0000 C.2     1  LIG1        0.3437
     15 O           0.5000   -2.1630    0.0000 O.2     1  LIG1       -0.2488
     16 N          -1.0000   -1.3000    0.0000 N.am    1  LIG1       -0.1805
     17 C          -1.5040   -0.4330    0.0000 C.3     1  LIG1        0.1792
     18 C          -2.5000   -0.4330    0.0000 C.3     1  LIG1        0.1624
     19 N          -3.0040    0.4330    0.0000 N.4     1  LIG1        0.3786
     20 C          -2.5000    1.3000    0.0000 C.3     1  LIG1        0.1388
     21 C          -3.0040    2.1670    0.0000 C.3     1  LIG1        0.0688
     22 C          -4.0000    0.4330    0.0000 C.3     1  LIG1        0.1388
     23 C          -4.5040    1.3000    0.0000 C.3     1  LIG1        0.0688
@<TRIPOS>BOND
     1     1     2   ar
     2     1     6   ar
     3     1    13    1
     4     2     3   ar
     5     3     4   ar
     6     3    12    1
     7     4     5   ar
     8     4    11    2
     9     5     6   ar
    10     5    10   ar
    11     6     7   ar
    12     7     8   ar
    13     8     9   ar
    14     9    10   ar
    15    13    14   am
    16    14    15    2
    17    14    16   am
    18    16    17    1
    19    17    18    1
    20    18    19    1
    21    19    20    1
    22    19    22    1
    23    20    21    1
    24    22    23    1
