@<TRIPOS>MOLECULE
35637_ChemDiv_C498-1501
 23 26 0 0 0
SMALL
GASTEIGER
Energy = 0

@<TRIPOS>ATOM
      1 C          -0.4290    0.5080    0.0000 C.ar    1  LIG1        0.0779
      2 C          -0.4290    1.4920    0.0000 C.ar    1  LIG1        0.0589
      3 C           0.4460    1.9960    0.0000 C.ar    1  LIG1        0.2712
      4 N           1.3080    1.5000    0.0000 N.ar    1  LIG1        0.0709
      5 C           1.3040    0.5000    0.0000 C.ar    1  LIG1        0.2974
      6 C           0.4380    0.0000    0.0000 C.ar    1  LIG1        0.0852
      7 C           0.4380   -0.9880    0.0000 C.ar    1  LIG1        0.0074
      8 C           1.2960   -1.4920    0.0000 C.ar    1  LIG1        0.0004
      9 C           2.1580   -0.9920    0.0000 C.ar    1  LIG1        0.0063
     10 C           2.1630    0.0080    0.0000 C.ar    1  LIG1        0.0762
     11 C           0.4460    3.0000    0.0000 C.3     1  LIG1        0.1036
     12 C          -0.4290    3.5130    0.0000 C.3     1  LIG1        0.0117
     13 C          -1.3000    3.0040    0.0000 C.3     1  LIG1        0.0055
     14 C          -1.3000    1.9920    0.0000 C.3     1  LIG1        0.0336
     15 N          -1.2960    0.0080    0.0000 N.pl3   1  LIG1       -0.2124
     16 C          -1.2960   -1.0040    0.0000 C.ar    1  LIG1        0.0711
     17 C          -0.4290   -1.5080    0.0000 C.ar    1  LIG1        0.0268
     18 C          -0.4330   -2.5040    0.0000 C.ar    1  LIG1        0.0697
     19 C           0.4250   -3.0000    0.0000 C.1     1  LIG1        0.1005
     20 N           1.2920   -3.5080    0.0000 N.1     1  LIG1       -0.1908
     21 C          -1.3000   -2.9920    0.0000 C.ar    1  LIG1        0.0104
     22 C          -2.1670   -2.4880    0.0000 C.ar    1  LIG1        0.0020
     23 C          -2.1630   -1.4960    0.0000 C.ar    1  LIG1        0.0165
@<TRIPOS>BOND
     1     1     2   ar
     2     1     6   ar
     3     1    15    1
     4     2     3   ar
     5     2    14    1
     6     3     4   ar
     7     3    11    1
     8     4     5   ar
     9     5     6   ar
    10     5    10   ar
    11     6     7   ar
    12     7     8   ar
    13     8     9   ar
    14     9    10   ar
    15    11    12    1
    16    12    13    1
    17    13    14    1
    18    15    16    1
    19    16    17   ar
    20    16    23   ar
    21    17    18   ar
    22    18    19    1
    23    18    21   ar
    24    19    20    3
    25    21    22   ar
    26    22    23   ar
