@<TRIPOS>MOLECULE
35644_ChemDiv_E679-0520
 24 26 0 0 0
SMALL
GASTEIGER
Energy = 0

@<TRIPOS>ATOM
      1 C           0.7460    1.3000    0.0000 C.ar    1  LIG1        0.0923
      2 C           1.2500    0.4330    0.0000 C.ar    1  LIG1        0.0951
      3 N           2.2500    0.4330    0.0000 N.ar    1  LIG1       -0.2910
      4 C           2.7460    1.3000    0.0000 C.ar    1  LIG1        0.2610
      5 C           2.2500    2.1670    0.0000 C.ar    1  LIG1        0.0575
      6 C           1.2500    2.1670    0.0000 C.ar    1  LIG1        0.0215
      7 C           0.7460    3.0330    0.0000 C.ar    1  LIG1        0.0015
      8 C           1.2500    3.8960    0.0000 C.ar    1  LIG1        0.0000
      9 C           2.2500    3.8960    0.0000 C.ar    1  LIG1        0.0002
     10 C           2.7460    3.0330    0.0000 C.ar    1  LIG1        0.0048
     11 O           3.7500    1.3000    0.0000 O.2     1  LIG1       -0.2670
     12 C           2.7460   -0.4290    0.0000 C.3     1  LIG1        0.1336
     13 N          -0.2500    1.3000    0.0000 N.am    1  LIG1       -0.1592
     14 C          -0.7540    0.4330    0.0000 C.2     1  LIG1        0.3478
     15 N          -1.7500    0.4330    0.0000 N.am    1  LIG1       -0.1607
     16 C          -2.2540   -0.4290    0.0000 C.ar    1  LIG1        0.0752
     17 C          -3.2500   -0.4290    0.0000 C.ar    1  LIG1        0.0198
     18 C          -3.7540   -1.2960    0.0000 C.ar    1  LIG1        0.0382
     19 C          -3.2500   -2.1630    0.0000 C.ar    1  LIG1        0.1388
     20 C          -2.2540   -2.1630    0.0000 C.ar    1  LIG1        0.0382
     21 C          -1.7500   -1.2960    0.0000 C.ar    1  LIG1        0.0198
     22 O          -3.7540   -3.0290    0.0000 O.3     1  LIG1       -0.4714
     23 C          -3.2500   -3.8920    0.0000 C.3     1  LIG1        0.2525
     24 O          -0.2500   -0.4290    0.0000 O.2     1  LIG1       -0.2484
@<TRIPOS>BOND
     1     1     2   ar
     2     1     6   ar
     3     1    13    1
     4     2     3   ar
     5     3     4   ar
     6     3    12    1
     7     4     5   ar
     8     4    11    2
     9     5     6   ar
    10     5    10   ar
    11     6     7   ar
    12     7     8   ar
    13     8     9   ar
    14     9    10   ar
    15    13    14   am
    16    14    15   am
    17    14    24    2
    18    15    16    1
    19    16    17   ar
    20    16    21   ar
    21    17    18   ar
    22    18    19   ar
    23    19    20   ar
    24    19    22    1
    25    20    21   ar
    26    22    23    1
