@<TRIPOS>MOLECULE
35646_ChemDiv_E679-0536
 24 25 0 0 0
SMALL
GASTEIGER
Energy = 0

@<TRIPOS>ATOM
      1 C           0.7460    0.0000    0.0000 C.ar    1  LIG1        0.0923
      2 C           1.2500   -0.8670    0.0000 C.ar    1  LIG1        0.0951
      3 N           2.2500   -0.8670    0.0000 N.ar    1  LIG1       -0.2910
      4 C           2.7500    0.0000    0.0000 C.ar    1  LIG1        0.2610
      5 C           2.2500    0.8670    0.0000 C.ar    1  LIG1        0.0575
      6 C           1.2500    0.8670    0.0000 C.ar    1  LIG1        0.0215
      7 C           0.7460    1.7330    0.0000 C.ar    1  LIG1        0.0015
      8 C           1.2500    2.6000    0.0000 C.ar    1  LIG1        0.0000
      9 C           2.2500    2.6000    0.0000 C.ar    1  LIG1        0.0002
     10 C           2.7500    1.7330    0.0000 C.ar    1  LIG1        0.0048
     11 O           3.7500    0.0000    0.0000 O.2     1  LIG1       -0.2670
     12 C           2.7500   -1.7290    0.0000 C.3     1  LIG1        0.1336
     13 N          -0.2500    0.0000    0.0000 N.am    1  LIG1       -0.1607
     14 C          -0.7540   -0.8670    0.0000 C.2     1  LIG1        0.3275
     15 N          -1.7540   -0.8670    0.0000 N.am    1  LIG1       -0.2626
     16 C          -2.2540   -1.7290    0.0000 C.3     1  LIG1        0.0949
     17 C          -3.2540   -1.7290    0.0000 C.3     1  LIG1        0.0199
     18 C          -3.7540   -2.5960    0.0000 C.3     1  LIG1        0.0018
     19 C          -3.7540   -0.8670    0.0000 C.3     1  LIG1        0.0018
     20 C          -2.2540    0.0000    0.0000 C.3     1  LIG1        0.0949
     21 C          -1.7540    0.8670    0.0000 C.3     1  LIG1        0.0199
     22 C          -0.7540    0.8670    0.0000 C.3     1  LIG1        0.0018
     23 C          -2.2540    1.7330    0.0000 C.3     1  LIG1        0.0018
     24 O          -0.2500   -1.7290    0.0000 O.2     1  LIG1       -0.2504
@<TRIPOS>BOND
     1     1     2   ar
     2     1     6   ar
     3     1    13    1
     4     2     3   ar
     5     3     4   ar
     6     3    12    1
     7     4     5   ar
     8     4    11    2
     9     5     6   ar
    10     5    10   ar
    11     6     7   ar
    12     7     8   ar
    13     8     9   ar
    14     9    10   ar
    15    13    14   am
    16    14    15   am
    17    14    24    2
    18    15    16    1
    19    15    20    1
    20    16    17    1
    21    17    18    1
    22    17    19    1
    23    20    21    1
    24    21    22    1
    25    21    23    1
