@<TRIPOS>MOLECULE
35641_ChemDiv_C619-0559
 33 37 0 0 0
SMALL
GASTEIGER
Energy = 0

@<TRIPOS>ATOM
      1 C           0.5000   -2.5210    0.0000 C.ar    1  LIG1        0.0781
      2 C           0.9960   -1.6540    0.0000 C.ar    1  LIG1        0.0865
      3 C           1.9960   -1.6540    0.0000 C.ar    1  LIG1        0.2975
      4 N           2.4960   -2.5210    0.0000 N.ar    1  LIG1        0.0709
      5 C           1.9960   -3.3880    0.0000 C.ar    1  LIG1        0.2712
      6 C           0.9960   -3.3880    0.0000 C.ar    1  LIG1        0.0589
      7 C           0.5000   -4.2540    0.0000 C.3     1  LIG1        0.0336
      8 C           0.9960   -5.1210    0.0000 C.3     1  LIG1        0.0055
      9 C           1.9960   -5.1210    0.0000 C.3     1  LIG1        0.0117
     10 C           2.4960   -4.2540    0.0000 C.3     1  LIG1        0.1036
     11 C           2.4960   -0.7920    0.0000 C.ar    1  LIG1        0.0775
     12 C           1.9960    0.0750    0.0000 C.ar    1  LIG1        0.0229
     13 C           0.9960    0.0750    0.0000 C.ar    1  LIG1        0.0741
     14 C           0.5000   -0.7920    0.0000 C.ar    1  LIG1        0.0240
     15 N           0.5000    0.9420    0.0000 N.am    1  LIG1       -0.1754
     16 C           0.9960    1.8080    0.0000 C.2     1  LIG1        0.2692
     17 C           0.5000    2.6750    0.0000 C.2     1  LIG1        0.0629
     18 C          -0.5000    2.6750    0.0000 C.2     1  LIG1        0.0422
     19 C          -1.0000    3.5420    0.0000 C.ar    1  LIG1        0.1457
     20 O          -1.9960    3.6460    0.0000 O.2     1  LIG1       -0.4504
     21 C          -2.2000    4.6210    0.0000 C.ar    1  LIG1        0.1796
     22 C          -1.3330    5.1210    0.0000 C.ar    1  LIG1        0.0438
     23 C          -0.5960    4.4500    0.0000 C.ar    1  LIG1        0.0407
     24 O           1.9960    1.8080    0.0000 O.2     1  LIG1       -0.2680
     25 N          -0.5000   -2.5210    0.0000 N.pl3   1  LIG1       -0.2093
     26 C          -1.0000   -1.6540    0.0000 C.ar    1  LIG1        0.1043
     27 C          -2.0000   -1.6540    0.0000 C.ar    1  LIG1        0.1538
     28 O          -2.5000   -2.5210    0.0000 O.3     1  LIG1       -0.4701
     29 C          -2.0000   -3.3880    0.0000 C.3     1  LIG1        0.2525
     30 C          -2.5000   -0.7920    0.0000 C.ar    1  LIG1        0.0382
     31 C          -2.0000    0.0750    0.0000 C.ar    1  LIG1        0.0032
     32 C          -1.0000    0.0750    0.0000 C.ar    1  LIG1        0.0015
     33 C          -0.5000   -0.7920    0.0000 C.ar    1  LIG1        0.0196
@<TRIPOS>BOND
     1     1     2   ar
     2     1     6   ar
     3     1    25    1
     4     2     3   ar
     5     2    14   ar
     6     3     4   ar
     7     3    11   ar
     8     4     5   ar
     9     5     6   ar
    10     5    10    1
    11     6     7    1
    12     7     8    1
    13     8     9    1
    14     9    10    1
    15    11    12   ar
    16    12    13   ar
    17    13    14   ar
    18    13    15    1
    19    15    16   am
    20    16    17    1
    21    16    24    2
    22    17    18    2
    23    18    19    1
    24    19    20   ar
    25    19    23   ar
    26    20    21   ar
    27    21    22   ar
    28    22    23   ar
    29    25    26    1
    30    26    27   ar
    31    26    33   ar
    32    27    28    1
    33    27    30   ar
    34    28    29    1
    35    30    31   ar
    36    31    32   ar
    37    32    33   ar
