@<TRIPOS>MOLECULE
35648_ChemDiv_E942-0284
 34 37 0 0 0
SMALL
GASTEIGER
Energy = 0

@<TRIPOS>ATOM
      1 N           1.7420    2.5380    0.0000 N.ar    1  LIG1       -0.2930
      2 C           0.8710    3.0500    0.0000 C.ar    1  LIG1        0.2609
      3 C           0.0000    2.5380    0.0000 C.ar    1  LIG1        0.0575
      4 C           0.0000    1.5460    0.0000 C.ar    1  LIG1        0.0215
      5 C           0.8710    1.0330    0.0000 C.ar    1  LIG1        0.0923
      6 C           1.7420    1.5460    0.0000 C.ar    1  LIG1        0.0950
      7 N           0.8710    0.0420    0.0000 N.am    1  LIG1       -0.1607
      8 C           1.7330   -0.4710    0.0000 C.2     1  LIG1        0.3279
      9 N           1.7130   -1.4790    0.0000 N.am    1  LIG1       -0.2551
     10 C           2.5830   -1.9710    0.0000 C.3     1  LIG1        0.1595
     11 C           2.5830   -2.9670    0.0000 C.ar    1  LIG1        0.1431
     12 O           1.8500   -3.6460    0.0000 O.2     1  LIG1       -0.4530
     13 C           2.2540   -4.5500    0.0000 C.ar    1  LIG1        0.1792
     14 C           3.2330   -4.4380    0.0000 C.ar    1  LIG1        0.0435
     15 C           3.4540   -3.4750    0.0000 C.ar    1  LIG1        0.0379
     16 C           0.8580   -1.9710    0.0000 C.3     1  LIG1        0.1016
     17 C          -0.0130   -1.4630    0.0000 C.3     1  LIG1        0.0842
     18 C          -0.8750   -1.9710    0.0000 C.3     1  LIG1        0.1406
     19 N          -1.7460   -1.4630    0.0000 N.4     1  LIG1        0.3813
     20 C          -2.6170   -1.9710    0.0000 C.3     1  LIG1        0.1713
     21 C          -3.4920   -1.4630    0.0000 C.3     1  LIG1        0.2047
     22 O          -3.4920   -0.4710    0.0000 O.3     1  LIG1       -0.3411
     23 C          -2.6170    0.0210    0.0000 C.3     1  LIG1        0.2047
     24 C          -1.7540   -0.4710    0.0000 C.3     1  LIG1        0.1713
     25 O           2.5830    0.0420    0.0000 O.2     1  LIG1       -0.2504
     26 C          -0.8540    1.0330    0.0000 C.ar    1  LIG1        0.0015
     27 C          -1.7250    1.5460    0.0000 C.ar    1  LIG1        0.0000
     28 C          -1.7250    2.5380    0.0000 C.ar    1  LIG1        0.0002
     29 C          -0.8540    3.0500    0.0000 C.ar    1  LIG1        0.0048
     30 O           0.8710    4.0370    0.0000 O.2     1  LIG1       -0.2670
     31 C           2.6130    3.0500    0.0000 C.3     1  LIG1        0.1091
     32 C           2.6330    4.0460    0.0000 C.3     1  LIG1        0.0227
     33 C           1.7630    4.5500    0.0000 C.3     1  LIG1        0.0020
     34 C           3.4880    4.5500    0.0000 C.3     1  LIG1        0.0020
@<TRIPOS>BOND
     1     1     2   ar
     2     1     6   ar
     3     1    31    1
     4     2     3   ar
     5     2    30    2
     6     3     4   ar
     7     3    29   ar
     8     4     5   ar
     9     4    26   ar
    10     5     6   ar
    11     5     7    1
    12     7     8   am
    13     8     9   am
    14     8    25    2
    15     9    10    1
    16     9    16    1
    17    10    11    1
    18    11    12   ar
    19    11    15   ar
    20    12    13   ar
    21    13    14   ar
    22    14    15   ar
    23    16    17    1
    24    17    18    1
    25    18    19    1
    26    19    20    1
    27    19    24    1
    28    20    21    1
    29    21    22    1
    30    22    23    1
    31    23    24    1
    32    26    27   ar
    33    27    28   ar
    34    28    29   ar
    35    31    32    1
    36    32    33    1
    37    32    34    1
