@<TRIPOS>MOLECULE
35647_ChemDiv_C619-0579
 33 37 0 0 0
SMALL
GASTEIGER
Energy = 0

@<TRIPOS>ATOM
      1 C           1.2420    2.0960    0.0000 C.ar    1  LIG1        0.0780
      2 C           1.7420    1.2330    0.0000 C.ar    1  LIG1        0.0865
      3 C           2.7420    1.2330    0.0000 C.ar    1  LIG1        0.2975
      4 N           3.2500    2.0960    0.0000 N.ar    1  LIG1        0.0709
      5 C           2.7420    2.9580    0.0000 C.ar    1  LIG1        0.2712
      6 C           1.7420    2.9580    0.0000 C.ar    1  LIG1        0.0589
      7 C           1.2420    3.8290    0.0000 C.3     1  LIG1        0.0336
      8 C           1.7420    4.6880    0.0000 C.3     1  LIG1        0.0055
      9 C           2.7420    4.6880    0.0000 C.3     1  LIG1        0.0117
     10 C           3.2500    3.8290    0.0000 C.3     1  LIG1        0.1036
     11 C           3.2500    0.3710    0.0000 C.ar    1  LIG1        0.0775
     12 C           2.7420   -0.4920    0.0000 C.ar    1  LIG1        0.0229
     13 C           1.7420   -0.4920    0.0000 C.ar    1  LIG1        0.0742
     14 N           1.2420   -1.3710    0.0000 N.am    1  LIG1       -0.1728
     15 C           1.7420   -2.2330    0.0000 C.2     1  LIG1        0.3037
     16 C           1.2420   -3.0960    0.0000 C.ar    1  LIG1        0.2005
     17 O           1.6500   -4.0170    0.0000 O.2     1  LIG1       -0.4457
     18 C           0.9080   -4.6880    0.0000 C.ar    1  LIG1        0.1798
     19 C           0.0460   -4.1830    0.0000 C.ar    1  LIG1        0.0440
     20 C           0.2540   -3.2040    0.0000 C.ar    1  LIG1        0.0455
     21 O           2.7420   -2.2330    0.0000 O.2     1  LIG1       -0.2646
     22 C           1.2420    0.3710    0.0000 C.ar    1  LIG1        0.0240
     23 N           0.2420    2.0960    0.0000 N.pl3   1  LIG1       -0.2123
     24 C          -0.2580    1.2330    0.0000 C.ar    1  LIG1        0.0737
     25 C          -1.2580    1.2330    0.0000 C.ar    1  LIG1        0.0565
     26 C          -1.7540    0.3710    0.0000 C.ar    1  LIG1        0.1737
     27 C          -1.2580   -0.4920    0.0000 C.ar    1  LIG1        0.1725
     28 C          -0.2580   -0.4920    0.0000 C.ar    1  LIG1        0.0414
     29 C           0.2420    0.3710    0.0000 C.ar    1  LIG1        0.0198
     30 O          -1.7540   -1.3670    0.0000 O.3     1  LIG1       -0.4684
     31 C          -1.2580   -2.2290    0.0000 C.3     1  LIG1        0.2526
     32 O          -2.7540    0.3710    0.0000 O.3     1  LIG1       -0.4683
     33 C          -3.2540   -0.4920    0.0000 C.3     1  LIG1        0.2526
@<TRIPOS>BOND
     1     1     2   ar
     2     1     6   ar
     3     1    23    1
     4     2     3   ar
     5     2    22   ar
     6     3     4   ar
     7     3    11   ar
     8     4     5   ar
     9     5     6   ar
    10     5    10    1
    11     6     7    1
    12     7     8    1
    13     8     9    1
    14     9    10    1
    15    11    12   ar
    16    12    13   ar
    17    13    14    1
    18    13    22   ar
    19    14    15   am
    20    15    16    1
    21    15    21    2
    22    16    17   ar
    23    16    20   ar
    24    17    18   ar
    25    18    19   ar
    26    19    20   ar
    27    23    24    1
    28    24    25   ar
    29    24    29   ar
    30    25    26   ar
    31    26    27   ar
    32    26    32    1
    33    27    28   ar
    34    27    30    1
    35    28    29   ar
    36    30    31    1
    37    32    33    1
