@<TRIPOS>MOLECULE
35642_ChemDiv_E679-0499
 21 23 0 0 0
SMALL
GASTEIGER
Energy = 0

@<TRIPOS>ATOM
      1 C           0.5960   -0.4330    0.0000 C.ar    1  LIG1        0.0923
      2 C           1.0960   -1.3000    0.0000 C.ar    1  LIG1        0.0951
      3 N           2.1000   -1.3000    0.0000 N.ar    1  LIG1       -0.2910
      4 C           2.5960   -0.4330    0.0000 C.ar    1  LIG1        0.2610
      5 C           2.1000    0.4330    0.0000 C.ar    1  LIG1        0.0575
      6 C           1.0960    0.4330    0.0000 C.ar    1  LIG1        0.0215
      7 C           0.5960    1.3000    0.0000 C.ar    1  LIG1        0.0015
      8 C           1.0960    2.1670    0.0000 C.ar    1  LIG1        0.0000
      9 C           2.1000    2.1670    0.0000 C.ar    1  LIG1        0.0002
     10 C           2.5960    1.3000    0.0000 C.ar    1  LIG1        0.0048
     11 O           3.6000   -0.4330    0.0000 O.2     1  LIG1       -0.2670
     12 C           2.5960   -2.1630    0.0000 C.3     1  LIG1        0.1336
     13 N          -0.4040   -0.4330    0.0000 N.am    1  LIG1       -0.1595
     14 C          -0.9040   -1.3000    0.0000 C.2     1  LIG1        0.3435
     15 N          -1.9040   -1.3000    0.0000 N.am    1  LIG1       -0.1887
     16 C          -2.4040   -0.4330    0.0000 C.3     1  LIG1        0.0970
     17 C          -3.4000   -0.3290    0.0000 C.3     1  LIG1        0.0217
     18 C          -3.6040    0.6500    0.0000 C.3     1  LIG1        0.0018
     19 C          -2.7380    1.1500    0.0000 C.3     1  LIG1        0.0018
     20 C          -1.9960    0.4790    0.0000 C.3     1  LIG1        0.0217
     21 O          -0.4040   -2.1630    0.0000 O.2     1  LIG1       -0.2488
@<TRIPOS>BOND
     1     1     2   ar
     2     1     6   ar
     3     1    13    1
     4     2     3   ar
     5     3     4   ar
     6     3    12    1
     7     4     5   ar
     8     4    11    2
     9     5     6   ar
    10     5    10   ar
    11     6     7   ar
    12     7     8   ar
    13     8     9   ar
    14     9    10   ar
    15    13    14   am
    16    14    15   am
    17    14    21    2
    18    15    16    1
    19    16    17    1
    20    16    20    1
    21    17    18    1
    22    18    19    1
    23    19    20    1
