@<TRIPOS>MOLECULE
35643_ChemDiv_C619-0564
 34 38 0 0 0
SMALL
GASTEIGER
Energy = 0

@<TRIPOS>ATOM
      1 C           1.2420    2.1670    0.0000 C.ar    1  LIG1        0.0780
      2 C           1.7420    1.3080    0.0000 C.ar    1  LIG1        0.0865
      3 C           2.7420    1.3080    0.0000 C.ar    1  LIG1        0.2975
      4 N           3.2500    2.1670    0.0000 N.ar    1  LIG1        0.0709
      5 C           2.7420    3.0330    0.0000 C.ar    1  LIG1        0.2712
      6 C           1.7420    3.0330    0.0000 C.ar    1  LIG1        0.0589
      7 C           1.2420    3.9000    0.0000 C.3     1  LIG1        0.0336
      8 C           1.7420    4.7580    0.0000 C.3     1  LIG1        0.0055
      9 C           2.7420    4.7580    0.0000 C.3     1  LIG1        0.0117
     10 C           3.2500    3.9000    0.0000 C.3     1  LIG1        0.1036
     11 C           3.2500    0.4330    0.0000 C.ar    1  LIG1        0.0775
     12 C           2.7420   -0.4290    0.0000 C.ar    1  LIG1        0.0229
     13 C           1.7420   -0.4290    0.0000 C.ar    1  LIG1        0.0741
     14 N           1.2420   -1.2960    0.0000 N.am    1  LIG1       -0.1754
     15 C           1.7420   -2.1580    0.0000 C.2     1  LIG1        0.2705
     16 C           1.2420   -3.0210    0.0000 C.ar    1  LIG1        0.0745
     17 C           0.2420   -3.0210    0.0000 C.ar    1  LIG1        0.1034
     18 N          -0.2580   -3.8960    0.0000 N.ar    1  LIG1       -0.2422
     19 C           0.2420   -4.7580    0.0000 C.ar    1  LIG1        0.0989
     20 C           1.2420   -4.7580    0.0000 C.ar    1  LIG1        0.0208
     21 C           1.7420   -3.8960    0.0000 C.ar    1  LIG1        0.0077
     22 O           2.7420   -2.1580    0.0000 O.2     1  LIG1       -0.2680
     23 C           1.2420    0.4330    0.0000 C.ar    1  LIG1        0.0240
     24 N           0.2420    2.1670    0.0000 N.pl3   1  LIG1       -0.2123
     25 C          -0.2580    1.3080    0.0000 C.ar    1  LIG1        0.0737
     26 C          -1.2540    1.3080    0.0000 C.ar    1  LIG1        0.0565
     27 C          -1.7540    0.4330    0.0000 C.ar    1  LIG1        0.1737
     28 C          -1.2540   -0.4290    0.0000 C.ar    1  LIG1        0.1725
     29 C          -0.2580   -0.4290    0.0000 C.ar    1  LIG1        0.0414
     30 C           0.2420    0.4330    0.0000 C.ar    1  LIG1        0.0198
     31 O          -1.7540   -1.2830    0.0000 O.3     1  LIG1       -0.4684
     32 C          -1.2460   -2.1540    0.0000 C.3     1  LIG1        0.2526
     33 O          -2.7540    0.4330    0.0000 O.3     1  LIG1       -0.4683
     34 C          -3.2540   -0.4290    0.0000 C.3     1  LIG1        0.2526
@<TRIPOS>BOND
     1     1     2   ar
     2     1     6   ar
     3     1    24    1
     4     2     3   ar
     5     2    23   ar
     6     3     4   ar
     7     3    11   ar
     8     4     5   ar
     9     5     6   ar
    10     5    10    1
    11     6     7    1
    12     7     8    1
    13     8     9    1
    14     9    10    1
    15    11    12   ar
    16    12    13   ar
    17    13    14    1
    18    13    23   ar
    19    14    15   am
    20    15    16    1
    21    15    22    2
    22    16    17   ar
    23    16    21   ar
    24    17    18   ar
    25    18    19   ar
    26    19    20   ar
    27    20    21   ar
    28    24    25    1
    29    25    26   ar
    30    25    30   ar
    31    26    27   ar
    32    27    28   ar
    33    27    33    1
    34    28    29   ar
    35    28    31    1
    36    29    30   ar
    37    31    32    1
    38    33    34    1
