@<TRIPOS>MOLECULE
35652_ChemDiv_C094-2202
 37 40 0 0 0
SMALL
GASTEIGER
Energy = 0

@<TRIPOS>ATOM
      1 N           1.7290   -1.5250    0.0000 N.am    1  LIG1       -0.2606
      2 C           2.5460   -2.1130    0.0000 C.2     1  LIG1        0.2691
      3 C           3.4540   -1.6920    0.0000 C.ar    1  LIG1        0.1538
      4 N           3.5460   -0.7080    0.0000 N.ar    1  LIG1       -0.2360
      5 C           4.4540   -0.3000    0.0000 C.ar    1  LIG1        0.1196
      6 C           5.2710   -0.8880    0.0000 C.ar    1  LIG1        0.1195
      7 N           5.1670   -1.8750    0.0000 N.ar    1  LIG1       -0.2390
      8 C           4.2670   -2.2830    0.0000 C.ar    1  LIG1        0.1226
      9 O           2.4420   -3.1130    0.0000 O.2     1  LIG1       -0.2682
     10 C           0.7330   -1.5250    0.0000 C.3     1  LIG1        0.1770
     11 C           0.2420   -2.4000    0.0000 C.2     1  LIG1        0.2638
     12 O           0.7420   -3.2500    0.0000 O.2     1  LIG1       -0.2712
     13 N          -0.7670   -2.4000    0.0000 N.am    1  LIG1       -0.2037
     14 C          -1.2670   -1.5380    0.0000 C.3     1  LIG1        0.1178
     15 C          -2.2710   -1.5380    0.0000 C.3     1  LIG1        0.0555
     16 C          -2.7670   -0.6750    0.0000 C.3     1  LIG1        0.1440
     17 O          -3.7790   -0.6750    0.0000 O.3     1  LIG1       -0.3537
     18 C          -4.2670    0.1880    0.0000 C.3     1  LIG1        0.1422
     19 C          -5.2750    0.1880    0.0000 C.3     1  LIG1        0.0346
     20 C           0.2420   -0.6630    0.0000 C.ar    1  LIG1        0.0048
     21 C          -0.7670   -0.6630    0.0000 C.ar    1  LIG1        0.0009
     22 C          -1.2670    0.2000    0.0000 C.ar    1  LIG1        0.0366
     23 C          -0.7670    1.0750    0.0000 C.ar    1  LIG1        0.1387
     24 C           0.2330    1.0750    0.0000 C.ar    1  LIG1        0.0366
     25 C           0.7330    0.2040    0.0000 C.ar    1  LIG1        0.0009
     26 O          -1.2670    1.9420    0.0000 O.3     1  LIG1       -0.4714
     27 C          -2.2630    1.9420    0.0000 C.3     1  LIG1        0.2525
     28 C           2.5460   -0.9380    0.0000 C.3     1  LIG1        0.1213
     29 C           2.4420    0.0630    0.0000 C.ar    1  LIG1        0.0009
     30 C           3.2580    0.6500    0.0000 C.ar    1  LIG1        0.0376
     31 C           3.1540    1.6420    0.0000 C.ar    1  LIG1        0.1762
     32 C           2.2460    2.0460    0.0000 C.ar    1  LIG1        0.1764
     33 O           2.3500    3.0420    0.0000 O.3     1  LIG1       -0.4346
     34 C           3.3290    3.2540    0.0000 C.3     1  LIG1        0.4294
     35 O           3.8170    2.3920    0.0000 O.3     1  LIG1       -0.4346
     36 C           1.4290    1.4540    0.0000 C.ar    1  LIG1        0.0399
     37 C           1.5330    0.4580    0.0000 C.ar    1  LIG1        0.0007
@<TRIPOS>BOND
     1     1     2   am
     2     1    10    1
     3     1    28    1
     4     2     3    1
     5     2     9    2
     6     3     4   ar
     7     3     8   ar
     8     4     5   ar
     9     5     6   ar
    10     6     7   ar
    11     7     8   ar
    12    10    11    1
    13    10    20    1
    14    11    12    2
    15    11    13   am
    16    13    14    1
    17    14    15    1
    18    15    16    1
    19    16    17    1
    20    17    18    1
    21    18    19    1
    22    20    21   ar
    23    20    25   ar
    24    21    22   ar
    25    22    23   ar
    26    23    24   ar
    27    23    26    1
    28    24    25   ar
    29    26    27    1
    30    28    29    1
    31    29    30   ar
    32    29    37   ar
    33    30    31   ar
    34    31    32   ar
    35    31    35    1
    36    32    33    1
    37    32    36   ar
    38    33    34    1
    39    34    35    1
    40    36    37   ar
