@<TRIPOS>MOLECULE
35665_ChemDiv_C619-0593
 31 35 0 0 0
SMALL
GASTEIGER
Energy = 0

@<TRIPOS>ATOM
      1 C           1.2420    1.8080    0.0000 C.ar    1  LIG1        0.0780
      2 C           1.7420    0.9330    0.0000 C.ar    1  LIG1        0.0865
      3 C           2.7420    0.9330    0.0000 C.ar    1  LIG1        0.2975
      4 N           3.2500    1.8080    0.0000 N.ar    1  LIG1        0.0709
      5 C           2.7420    2.6710    0.0000 C.ar    1  LIG1        0.2712
      6 C           1.7420    2.6710    0.0000 C.ar    1  LIG1        0.0589
      7 C           1.2420    3.5330    0.0000 C.3     1  LIG1        0.0336
      8 C           1.7420    4.3920    0.0000 C.3     1  LIG1        0.0055
      9 C           2.7420    4.3920    0.0000 C.3     1  LIG1        0.0117
     10 C           3.2500    3.5330    0.0000 C.3     1  LIG1        0.1036
     11 C           3.2500    0.0710    0.0000 C.ar    1  LIG1        0.0775
     12 C           2.7420   -0.7960    0.0000 C.ar    1  LIG1        0.0229
     13 C           1.7420   -0.7960    0.0000 C.ar    1  LIG1        0.0738
     14 N           1.2420   -1.6580    0.0000 N.am    1  LIG1       -0.1792
     15 C           1.7420   -2.5210    0.0000 C.2     1  LIG1        0.2451
     16 C           1.2420   -3.3960    0.0000 C.3     1  LIG1        0.0786
     17 C           1.2420   -4.3920    0.0000 C.3     1  LIG1        0.0096
     18 C           0.3790   -3.8920    0.0000 C.3     1  LIG1        0.0096
     19 O           2.7420   -2.5210    0.0000 O.2     1  LIG1       -0.2730
     20 C           1.2420    0.0710    0.0000 C.ar    1  LIG1        0.0240
     21 N           0.2420    1.8080    0.0000 N.pl3   1  LIG1       -0.2123
     22 C          -0.2580    0.9330    0.0000 C.ar    1  LIG1        0.0737
     23 C          -1.2540    0.9330    0.0000 C.ar    1  LIG1        0.0565
     24 C          -1.7540    0.0710    0.0000 C.ar    1  LIG1        0.1737
     25 C          -1.2540   -0.7960    0.0000 C.ar    1  LIG1        0.1725
     26 C          -0.2580   -0.7960    0.0000 C.ar    1  LIG1        0.0414
     27 C           0.2420    0.0710    0.0000 C.ar    1  LIG1        0.0198
     28 O          -1.7540   -1.6580    0.0000 O.3     1  LIG1       -0.4684
     29 C          -1.2540   -2.5210    0.0000 C.3     1  LIG1        0.2526
     30 O          -2.7540    0.0710    0.0000 O.3     1  LIG1       -0.4683
     31 C          -3.2540   -0.7920    0.0000 C.3     1  LIG1        0.2526
@<TRIPOS>BOND
     1     1     2   ar
     2     1     6   ar
     3     1    21    1
     4     2     3   ar
     5     2    20   ar
     6     3     4   ar
     7     3    11   ar
     8     4     5   ar
     9     5     6   ar
    10     5    10    1
    11     6     7    1
    12     7     8    1
    13     8     9    1
    14     9    10    1
    15    11    12   ar
    16    12    13   ar
    17    13    14    1
    18    13    20   ar
    19    14    15   am
    20    15    16    1
    21    15    19    2
    22    16    17    1
    23    16    18    1
    24    17    18    1
    25    21    22    1
    26    22    23   ar
    27    22    27   ar
    28    23    24   ar
    29    24    25   ar
    30    24    30    1
    31    25    26   ar
    32    25    28    1
    33    26    27   ar
    34    28    29    1
    35    30    31    1
