@<TRIPOS>MOLECULE
35669_ChemDiv_C660-0095
 24 27 0 0 0
SMALL
GASTEIGER
Energy = 0

@<TRIPOS>ATOM
      1 C          -0.0080   -1.2580    0.0000 C.ar    1  LIG1        0.0779
      2 C           0.8540   -1.7460    0.0000 C.ar    1  LIG1        0.0589
      3 C           0.8580   -2.7540    0.0000 C.ar    1  LIG1        0.2712
      4 N          -0.0080   -3.2540    0.0000 N.ar    1  LIG1        0.0709
      5 C          -0.8710   -2.7540    0.0000 C.ar    1  LIG1        0.2974
      6 C          -0.8710   -1.7580    0.0000 C.ar    1  LIG1        0.0852
      7 C          -1.7290   -1.2580    0.0000 C.ar    1  LIG1        0.0074
      8 C          -2.6040   -1.7580    0.0000 C.ar    1  LIG1        0.0004
      9 C          -2.6040   -2.7540    0.0000 C.ar    1  LIG1        0.0063
     10 C          -1.7290   -3.2540    0.0000 C.ar    1  LIG1        0.0762
     11 C           1.7330   -3.2540    0.0000 C.3     1  LIG1        0.1036
     12 C           2.6000   -2.7460    0.0000 C.3     1  LIG1        0.0117
     13 C           2.6000   -1.7420    0.0000 C.3     1  LIG1        0.0055
     14 C           1.7210   -1.2330    0.0000 C.3     1  LIG1        0.0336
     15 N          -0.0170   -0.2580    0.0000 N.pl3   1  LIG1       -0.2124
     16 C           0.8460    0.2500    0.0000 C.ar    1  LIG1        0.0706
     17 C           0.8290    1.2460    0.0000 C.ar    1  LIG1        0.0193
     18 C           1.6920    1.7500    0.0000 C.ar    1  LIG1        0.0360
     19 C           1.6750    2.7500    0.0000 C.2     1  LIG1        0.1735
     20 O           0.8080    3.2420    0.0000 O.2     1  LIG1       -0.2913
     21 C           2.5380    3.2580    0.0000 C.3     1  LIG1        0.0773
     22 C           2.5630    1.2630    0.0000 C.ar    1  LIG1        0.0029
     23 C           2.5670    0.2630    0.0000 C.ar    1  LIG1        0.0014
     24 C           1.7040   -0.2460    0.0000 C.ar    1  LIG1        0.0165
@<TRIPOS>BOND
     1     1     2   ar
     2     1     6   ar
     3     1    15    1
     4     2     3   ar
     5     2    14    1
     6     3     4   ar
     7     3    11    1
     8     4     5   ar
     9     5     6   ar
    10     5    10   ar
    11     6     7   ar
    12     7     8   ar
    13     8     9   ar
    14     9    10   ar
    15    11    12    1
    16    12    13    1
    17    13    14    1
    18    15    16    1
    19    16    17   ar
    20    16    24   ar
    21    17    18   ar
    22    18    19    1
    23    18    22   ar
    24    19    20    2
    25    19    21    1
    26    22    23   ar
    27    23    24   ar
