@<TRIPOS>MOLECULE
35667_ChemDiv_C660-0092
 24 27 0 0 0
SMALL
GASTEIGER
Energy = 0

@<TRIPOS>ATOM
      1 C          -0.8540   -1.0080    0.0000 C.ar    1  LIG1        0.0779
      2 C           0.0080   -1.4960    0.0000 C.ar    1  LIG1        0.0589
      3 C           0.0130   -2.5040    0.0000 C.ar    1  LIG1        0.2712
      4 N          -0.8540   -3.0040    0.0000 N.ar    1  LIG1        0.0709
      5 C          -1.7170   -2.5040    0.0000 C.ar    1  LIG1        0.2974
      6 C          -1.7170   -1.5080    0.0000 C.ar    1  LIG1        0.0852
      7 C          -2.5790   -1.0080    0.0000 C.ar    1  LIG1        0.0074
      8 C          -3.4500   -1.5080    0.0000 C.ar    1  LIG1        0.0004
      9 C          -3.4500   -2.5040    0.0000 C.ar    1  LIG1        0.0063
     10 C          -2.5790   -3.0040    0.0000 C.ar    1  LIG1        0.0762
     11 C           0.8830   -3.0040    0.0000 C.3     1  LIG1        0.1036
     12 C           1.7540   -2.4960    0.0000 C.3     1  LIG1        0.0117
     13 C           1.7540   -1.4920    0.0000 C.3     1  LIG1        0.0055
     14 C           0.8750   -0.9830    0.0000 C.3     1  LIG1        0.0336
     15 N          -0.8630   -0.0130    0.0000 N.pl3   1  LIG1       -0.2124
     16 C           0.0000    0.5000    0.0000 C.ar    1  LIG1        0.0705
     17 C           0.8580    0.0040    0.0000 C.ar    1  LIG1        0.0166
     18 C           1.7210    0.5130    0.0000 C.ar    1  LIG1        0.0042
     19 C           1.7170    1.5130    0.0000 C.ar    1  LIG1        0.0348
     20 C           2.5790    2.0130    0.0000 C.2     1  LIG1        0.1735
     21 O           2.5710    3.0080    0.0000 O.2     1  LIG1       -0.2913
     22 C           3.4460    1.5250    0.0000 C.3     1  LIG1        0.0773
     23 C           0.8460    2.0000    0.0000 C.ar    1  LIG1        0.0042
     24 C          -0.0170    1.4960    0.0000 C.ar    1  LIG1        0.0166
@<TRIPOS>BOND
     1     1     2   ar
     2     1     6   ar
     3     1    15    1
     4     2     3   ar
     5     2    14    1
     6     3     4   ar
     7     3    11    1
     8     4     5   ar
     9     5     6   ar
    10     5    10   ar
    11     6     7   ar
    12     7     8   ar
    13     8     9   ar
    14     9    10   ar
    15    11    12    1
    16    12    13    1
    17    13    14    1
    18    15    16    1
    19    16    17   ar
    20    16    24   ar
    21    17    18   ar
    22    18    19   ar
    23    19    20    1
    24    19    23   ar
    25    20    21    2
    26    20    22    1
    27    23    24   ar
