@<TRIPOS>MOLECULE
35666_ChemDiv_E942-0318
 32 34 0 0 0
SMALL
GASTEIGER
Energy = 0

@<TRIPOS>ATOM
      1 N           0.0330    3.5040    0.0000 N.ar    1  LIG1       -0.2930
      2 C          -0.8380    4.0130    0.0000 C.ar    1  LIG1        0.2609
      3 C          -1.7130    3.5040    0.0000 C.ar    1  LIG1        0.0575
      4 C          -1.7130    2.5130    0.0000 C.ar    1  LIG1        0.0215
      5 C          -0.8380    2.0040    0.0000 C.ar    1  LIG1        0.0923
      6 C           0.0330    2.5130    0.0000 C.ar    1  LIG1        0.0950
      7 N          -0.8380    1.0080    0.0000 N.am    1  LIG1       -0.1595
      8 C           0.0250    0.5000    0.0000 C.2     1  LIG1        0.3437
      9 O           0.8750    1.0080    0.0000 O.2     1  LIG1       -0.2488
     10 N           0.0040   -0.5130    0.0000 N.am    1  LIG1       -0.1805
     11 C           0.8750   -1.0040    0.0000 C.3     1  LIG1        0.1792
     12 C           0.8460   -2.0170    0.0000 C.3     1  LIG1        0.1631
     13 N           1.7170   -2.5080    0.0000 N.4     1  LIG1        0.3846
     14 C           2.5880   -2.0000    0.0000 C.3     1  LIG1        0.2041
     15 C           2.5790   -1.0040    0.0000 C.ar    1  LIG1        0.1798
     16 O           1.8380   -0.3330    0.0000 O.2     1  LIG1       -0.4488
     17 C           2.2500    0.5670    0.0000 C.ar    1  LIG1        0.1794
     18 C           3.2210    0.4670    0.0000 C.ar    1  LIG1        0.0436
     19 C           3.4330   -0.4960    0.0000 C.ar    1  LIG1        0.0422
     20 C           1.7170   -3.5000    0.0000 C.3     1  LIG1        0.1393
     21 C           2.5790   -4.0130    0.0000 C.3     1  LIG1        0.0627
     22 C           2.5580   -5.0040    0.0000 C.3     1  LIG1        0.0061
     23 C           3.4330   -5.5170    0.0000 C.3     1  LIG1        0.0002
     24 C          -2.5630    2.0040    0.0000 C.ar    1  LIG1        0.0015
     25 C          -3.4380    2.5130    0.0000 C.ar    1  LIG1        0.0000
     26 C          -3.4380    3.5040    0.0000 C.ar    1  LIG1        0.0002
     27 C          -2.5630    4.0130    0.0000 C.ar    1  LIG1        0.0048
     28 O          -0.8380    5.0040    0.0000 O.2     1  LIG1       -0.2670
     29 C           0.9040    4.0130    0.0000 C.3     1  LIG1        0.1091
     30 C           0.9250    5.0170    0.0000 C.3     1  LIG1        0.0227
     31 C           1.7790    5.5170    0.0000 C.3     1  LIG1        0.0020
     32 C           0.0540    5.5170    0.0000 C.3     1  LIG1        0.0020
@<TRIPOS>BOND
     1     1     2   ar
     2     1     6   ar
     3     1    29    1
     4     2     3   ar
     5     2    28    2
     6     3     4   ar
     7     3    27   ar
     8     4     5   ar
     9     4    24   ar
    10     5     6   ar
    11     5     7    1
    12     7     8   am
    13     8     9    2
    14     8    10   am
    15    10    11    1
    16    11    12    1
    17    12    13    1
    18    13    14    1
    19    13    20    1
    20    14    15    1
    21    15    16   ar
    22    15    19   ar
    23    16    17   ar
    24    17    18   ar
    25    18    19   ar
    26    20    21    1
    27    21    22    1
    28    22    23    1
    29    24    25   ar
    30    25    26   ar
    31    26    27   ar
    32    29    30    1
    33    30    31    1
    34    30    32    1
