@<TRIPOS>MOLECULE
35679_ChemDiv_C498-0353
 26 29 0 0 0
SMALL
GASTEIGER
Energy = 0

@<TRIPOS>ATOM
      1 C          -0.7540    2.3330    0.0000 C.ar    1  LIG1        0.0752
      2 C           0.2500    2.3250    0.0000 C.ar    1  LIG1        0.0661
      3 N           0.5540    1.3670    0.0000 N.ar    1  LIG1       -0.3214
      4 C          -0.2540    0.7960    0.0000 C.ar    1  LIG1        0.1159
      5 C          -1.0580    1.3790    0.0000 C.ar    1  LIG1        0.0281
      6 C          -0.2540   -0.2130    0.0000 C.2     1  LIG1        0.2807
      7 O           0.6130   -0.7170    0.0000 O.2     1  LIG1       -0.2668
      8 N          -1.1210   -0.7170    0.0000 N.am    1  LIG1       -0.2002
      9 C          -1.1210   -1.7170    0.0000 C.3     1  LIG1        0.1217
     10 C          -0.2710   -2.2000    0.0000 C.3     1  LIG1        0.0861
     11 C          -0.2710   -3.2130    0.0000 C.3     1  LIG1        0.1404
     12 N           0.5920   -3.7130    0.0000 N.4     1  LIG1        0.3773
     13 C           0.7000   -4.7170    0.0000 C.3     1  LIG1        0.1388
     14 C           1.6670   -4.9250    0.0000 C.3     1  LIG1        0.0688
     15 C           2.1750   -4.0670    0.0000 C.3     1  LIG1        0.0688
     16 C           1.5080   -3.3130    0.0000 C.3     1  LIG1        0.1388
     17 C           1.4880    1.0630    0.0000 C.3     1  LIG1        0.1306
     18 C           0.7580    3.1960    0.0000 C.ar    1  LIG1        0.0337
     19 C           0.2580    4.0670    0.0000 C.ar    1  LIG1        0.0859
     20 N          -0.7380    4.0670    0.0000 N.ar    1  LIG1       -0.2078
     21 C          -1.2540    3.2080    0.0000 C.ar    1  LIG1        0.2806
     22 O          -2.2580    3.2170    0.0000 O.2     1  LIG1       -0.2651
     23 C           0.7630    4.9250    0.0000 C.ar    1  LIG1        0.0193
     24 C           1.7540    4.9250    0.0000 C.ar    1  LIG1        0.0015
     25 C           2.2540    4.0500    0.0000 C.ar    1  LIG1        0.0001
     26 C           1.7460    3.1880    0.0000 C.ar    1  LIG1        0.0029
@<TRIPOS>BOND
     1     1     2   ar
     2     1     5   ar
     3     1    21   ar
     4     2     3   ar
     5     2    18   ar
     6     3     4   ar
     7     3    17    1
     8     4     5   ar
     9     4     6    1
    10     6     7    2
    11     6     8   am
    12     8     9    1
    13     9    10    1
    14    10    11    1
    15    11    12    1
    16    12    13    1
    17    12    16    1
    18    13    14    1
    19    14    15    1
    20    15    16    1
    21    18    19   ar
    22    18    26   ar
    23    19    20   ar
    24    19    23   ar
    25    20    21   ar
    26    21    22    2
    27    23    24   ar
    28    24    25   ar
    29    25    26   ar
