@<TRIPOS>MOLECULE
35673_ChemDiv_C066-3044
 19 21 0 0 0
SMALL
GASTEIGER
Energy = 0

@<TRIPOS>ATOM
      1 C           0.8130   -0.4080    0.0000 C.ar    1  LIG1        0.0734
      2 C          -0.0580    0.0880    0.0000 C.ar    1  LIG1        0.0659
      3 N           0.1460    1.0710    0.0000 N.ar    1  LIG1       -0.3241
      4 C           1.1420    1.1830    0.0000 C.ar    1  LIG1        0.0743
      5 C           1.5540    0.2670    0.0000 C.ar    1  LIG1        0.0245
      6 C           1.6380    2.0460    0.0000 C.2     1  LIG1        0.0886
      7 O           1.1380    2.9130    0.0000 O.co2   1  LIG1       -0.5431
      8 O           2.6380    2.0580    0.0000 O.co2   1  LIG1       -0.5431
      9 C          -0.5290    1.8080    0.0000 C.3     1  LIG1        0.1305
     10 C          -0.9130   -0.4130    0.0000 C.ar    1  LIG1        0.0318
     11 C          -0.9130   -1.4130    0.0000 C.ar    1  LIG1        0.0639
     12 N          -0.0460   -1.9130    0.0000 N.ar    1  LIG1       -0.2934
     13 C           0.8210   -1.4080    0.0000 C.ar    1  LIG1        0.2623
     14 O           1.6920   -1.9000    0.0000 O.2     1  LIG1       -0.2669
     15 C          -0.0460   -2.9080    0.0000 C.3     1  LIG1        0.1335
     16 C          -1.7790   -1.9210    0.0000 C.ar    1  LIG1        0.0173
     17 C          -2.6420   -1.4170    0.0000 C.ar    1  LIG1        0.0015
     18 C          -2.6420   -0.4170    0.0000 C.ar    1  LIG1        0.0001
     19 C          -1.7790    0.0830    0.0000 C.ar    1  LIG1        0.0029
@<TRIPOS>BOND
     1     1     2   ar
     2     1     5   ar
     3     1    13   ar
     4     2     3   ar
     5     2    10   ar
     6     3     4   ar
     7     3     9    1
     8     4     5   ar
     9     4     6    1
    10     6     7   ar
    11     6     8   ar
    12    10    11   ar
    13    10    19   ar
    14    11    12   ar
    15    11    16   ar
    16    12    13   ar
    17    12    15    1
    18    13    14    2
    19    16    17   ar
    20    17    18   ar
    21    18    19   ar
