@<TRIPOS>MOLECULE
35675_ChemDiv_C498-0273
 24 27 0 0 0
SMALL
GASTEIGER
Energy = 0

@<TRIPOS>ATOM
      1 C          -0.0290    0.9880    0.0000 C.ar    1  LIG1        0.0752
      2 C           0.9750    0.9830    0.0000 C.ar    1  LIG1        0.0661
      3 N           1.2790    0.0210    0.0000 N.ar    1  LIG1       -0.3215
      4 C           0.4670   -0.5500    0.0000 C.ar    1  LIG1        0.1144
      5 C          -0.3330    0.0330    0.0000 C.ar    1  LIG1        0.0281
      6 C           0.4670   -1.5540    0.0000 C.2     1  LIG1        0.2653
      7 N          -0.4000   -2.0630    0.0000 N.am    1  LIG1       -0.2633
      8 C          -0.3920   -3.0540    0.0000 C.3     1  LIG1        0.1567
      9 C          -1.2540   -3.5500    0.0000 C.3     1  LIG1        0.1608
     10 N          -2.1210   -3.0830    0.0000 N.4     1  LIG1        0.3847
     11 C          -2.1290   -2.0630    0.0000 C.3     1  LIG1        0.1608
     12 C          -1.2670   -1.5540    0.0000 C.3     1  LIG1        0.1567
     13 C          -2.9830   -3.5790    0.0000 C.3     1  LIG1        0.2024
     14 O           1.3380   -2.0630    0.0000 O.2     1  LIG1       -0.2683
     15 C           2.2130   -0.2830    0.0000 C.3     1  LIG1        0.1306
     16 C           1.4790    1.8500    0.0000 C.ar    1  LIG1        0.0337
     17 C           0.9830    2.7250    0.0000 C.ar    1  LIG1        0.0859
     18 N          -0.0170    2.7250    0.0000 N.ar    1  LIG1       -0.2078
     19 C          -0.5290    1.8630    0.0000 C.ar    1  LIG1        0.2806
     20 O          -1.5330    1.8710    0.0000 O.2     1  LIG1       -0.2651
     21 C           1.4880    3.5830    0.0000 C.ar    1  LIG1        0.0193
     22 C           2.4790    3.5830    0.0000 C.ar    1  LIG1        0.0015
     23 C           2.9790    2.7080    0.0000 C.ar    1  LIG1        0.0001
     24 C           2.4710    1.8420    0.0000 C.ar    1  LIG1        0.0029
@<TRIPOS>BOND
     1     1     2   ar
     2     1     5   ar
     3     1    19   ar
     4     2     3   ar
     5     2    16   ar
     6     3     4   ar
     7     3    15    1
     8     4     5   ar
     9     4     6    1
    10     6     7   am
    11     6    14    2
    12     7     8    1
    13     7    12    1
    14     8     9    1
    15     9    10    1
    16    10    11    1
    17    10    13    1
    18    11    12    1
    19    16    17   ar
    20    16    24   ar
    21    17    18   ar
    22    17    21   ar
    23    18    19   ar
    24    19    20    2
    25    21    22   ar
    26    22    23   ar
    27    23    24   ar
