@<TRIPOS>MOLECULE
35671_ChemDiv_C660-0103
 29 32 0 0 0
SMALL
GASTEIGER
Energy = 0

@<TRIPOS>ATOM
      1 S           1.7290    1.4960    0.0000 S.O2    1  LIG1        0.0633
      2 C           0.8500    0.9920    0.0000 C.ar    1  LIG1        0.1223
      3 C           0.8500   -0.0170    0.0000 C.ar    1  LIG1        0.0212
      4 C          -0.0130   -0.5170    0.0000 C.ar    1  LIG1        0.0179
      5 C          -0.8750   -0.0170    0.0000 C.ar    1  LIG1        0.0706
      6 N          -1.7380   -0.5170    0.0000 N.pl3   1  LIG1       -0.2124
      7 C          -1.7380   -1.5170    0.0000 C.ar    1  LIG1        0.0779
      8 C          -0.8750   -2.0170    0.0000 C.ar    1  LIG1        0.0589
      9 C          -0.8750   -3.0130    0.0000 C.ar    1  LIG1        0.2712
     10 N          -1.7380   -3.5130    0.0000 N.ar    1  LIG1        0.0709
     11 C          -2.6000   -3.0130    0.0000 C.ar    1  LIG1        0.2974
     12 C          -2.6000   -2.0170    0.0000 C.ar    1  LIG1        0.0852
     13 C          -3.4630   -1.5170    0.0000 C.ar    1  LIG1        0.0074
     14 C          -4.3290   -2.0170    0.0000 C.ar    1  LIG1        0.0004
     15 C          -4.3290   -3.0130    0.0000 C.ar    1  LIG1        0.0063
     16 C          -3.4630   -3.5130    0.0000 C.ar    1  LIG1        0.0762
     17 C          -0.0130   -3.5130    0.0000 C.3     1  LIG1        0.1036
     18 C           0.8580   -3.0130    0.0000 C.3     1  LIG1        0.0117
     19 C           0.8580   -2.0170    0.0000 C.3     1  LIG1        0.0055
     20 C          -0.0130   -1.5170    0.0000 C.3     1  LIG1        0.0336
     21 C          -0.8750    0.9920    0.0000 C.ar    1  LIG1        0.0179
     22 C          -0.0130    1.4880    0.0000 C.ar    1  LIG1        0.0212
     23 N           2.6000    2.0040    0.0000 N.3     1  LIG1       -0.1555
     24 C           3.4670    1.5210    0.0000 C.3     1  LIG1        0.0958
     25 C           4.3250    2.0250    0.0000 C.3     1  LIG1        0.0206
     26 C           2.5920    3.0040    0.0000 C.3     1  LIG1        0.0958
     27 C           3.4460    3.5170    0.0000 C.3     1  LIG1        0.0206
     28 O           1.2130    2.3670    0.0000 O.2     1  LIG1       -0.1528
     29 O           2.2380    0.6290    0.0000 O.2     1  LIG1       -0.1528
@<TRIPOS>BOND
     1     1     2    1
     2     1    23    1
     3     1    28    2
     4     1    29    2
     5     2     3   ar
     6     2    22   ar
     7     3     4   ar
     8     4     5   ar
     9     5     6    1
    10     5    21   ar
    11     6     7    1
    12     7     8   ar
    13     7    12   ar
    14     8     9   ar
    15     8    20    1
    16     9    10   ar
    17     9    17    1
    18    10    11   ar
    19    11    12   ar
    20    11    16   ar
    21    12    13   ar
    22    13    14   ar
    23    14    15   ar
    24    15    16   ar
    25    17    18    1
    26    18    19    1
    27    19    20    1
    28    21    22   ar
    29    23    24    1
    30    23    26    1
    31    24    25    1
    32    26    27    1
