@<TRIPOS>MOLECULE
35670_ChemDiv_C066-4051
 18 19 0 0 0
SMALL
GASTEIGER
Energy = 0

@<TRIPOS>ATOM
      1 S           1.7210   -0.7500    0.0000 S.O2    1  LIG1        0.0094
      2 C           0.8580   -0.2420    0.0000 C.ar    1  LIG1        0.1146
      3 C          -0.0040   -0.7500    0.0000 C.ar    1  LIG1        0.0928
      4 C          -0.0040   -1.7540    0.0000 C.2     1  LIG1        0.3425
      5 O           0.8580   -2.2500    0.0000 O.2     1  LIG1       -0.2448
      6 O          -0.8670   -2.2540    0.0000 O.3     1  LIG1       -0.4454
      7 C          -1.7290   -1.7540    0.0000 C.3     1  LIG1        0.2089
      8 C          -2.6000   -2.2540    0.0000 C.3     1  LIG1        0.0513
      9 C          -0.8670   -0.2500    0.0000 C.ar    1  LIG1        0.0077
     10 C          -0.8670    0.7500    0.0000 C.ar    1  LIG1        0.0004
     11 C          -0.0040    1.2580    0.0000 C.ar    1  LIG1        0.0041
     12 C           0.8580    0.7580    0.0000 C.ar    1  LIG1        0.0520
     13 C           1.7210    1.2580    0.0000 C.2     1  LIG1        0.1761
     14 C           2.5960    0.7580    0.0000 C.3     1  LIG1        0.0949
     15 C           2.5960   -0.2500    0.0000 C.3     1  LIG1        0.1640
     16 O           1.7210    2.2580    0.0000 O.2     1  LIG1       -0.2912
     17 O           2.5830   -1.2500    0.0000 O.2     1  LIG1       -0.1686
     18 O           0.8580   -1.2380    0.0000 O.2     1  LIG1       -0.1686
@<TRIPOS>BOND
     1     1     2    1
     2     1    15    1
     3     1    17    2
     4     1    18    2
     5     2     3   ar
     6     2    12   ar
     7     3     4    1
     8     3     9   ar
     9     4     5    2
    10     4     6    1
    11     6     7    1
    12     7     8    1
    13     9    10   ar
    14    10    11   ar
    15    11    12   ar
    16    12    13    1
    17    13    14    1
    18    13    16    2
    19    14    15    1
