@<TRIPOS>MOLECULE
35672_ChemDiv_C066-4658
 14 14 0 0 0
SMALL
GASTEIGER
Energy = 0

@<TRIPOS>ATOM
      1 C          -0.5000    0.9580    0.0000 C.ar    1  LIG1        0.1385
      2 C           0.5000    0.9580    0.0000 C.ar    1  LIG1        0.2040
      3 N           0.8000    1.9040    0.0000 N.ar    1  LIG1       -0.0685
      4 O           0.0040    2.4960    0.0000 O.2     1  LIG1       -0.3348
      5 C          -0.8130    1.9040    0.0000 C.ar    1  LIG1        0.2698
      6 N          -1.7630    2.2130    0.0000 N.pl3   1  LIG1       -0.0851
      7 C           1.0790    0.1500    0.0000 C.2     1  LIG1        0.3627
      8 O           2.0790    0.2580    0.0000 O.2     1  LIG1       -0.2431
      9 O           0.6710   -0.7670    0.0000 O.3     1  LIG1       -0.4443
     10 C           1.2630   -1.5750    0.0000 C.3     1  LIG1        0.2089
     11 C           0.8540   -2.4920    0.0000 C.3     1  LIG1        0.0513
     12 C          -1.0880    0.1500    0.0000 C.2     1  LIG1        0.2904
     13 O          -0.6790   -0.7670    0.0000 O.2     1  LIG1       -0.2664
     14 N          -2.0830    0.2580    0.0000 N.am    1  LIG1       -0.0835
@<TRIPOS>BOND
     1     1     2   ar
     2     1     5   ar
     3     1    12    1
     4     2     3   ar
     5     2     7    1
     6     3     4   ar
     7     4     5   ar
     8     5     6    1
     9     7     8    2
    10     7     9    1
    11     9    10    1
    12    10    11    1
    13    12    13    2
    14    12    14   am
