@<TRIPOS>MOLECULE
35687_ChemDiv_C066-2167
 35 39 0 0 0
SMALL
GASTEIGER
Energy = 0

@<TRIPOS>ATOM
      1 S          -1.7040   -1.9880    0.0000 S.O2    1  LIG1        0.0648
      2 C          -1.7040   -0.9880    0.0000 C.ar    1  LIG1        0.1395
      3 C          -0.8420   -0.4880    0.0000 C.ar    1  LIG1        0.0987
      4 N          -0.8420    0.5130    0.0000 N.ar    1  LIG1       -0.2840
      5 C          -1.7040    1.0130    0.0000 C.ar    1  LIG1        0.2613
      6 C          -2.5670    0.5130    0.0000 C.ar    1  LIG1        0.0575
      7 C          -2.5670   -0.4880    0.0000 C.ar    1  LIG1        0.0247
      8 C          -3.4330   -0.9880    0.0000 C.ar    1  LIG1        0.0015
      9 C          -4.3000   -0.4880    0.0000 C.ar    1  LIG1        0.0000
     10 C          -4.3000    0.5130    0.0000 C.ar    1  LIG1        0.0002
     11 C          -3.4330    1.0130    0.0000 C.ar    1  LIG1        0.0048
     12 O          -1.7040    2.0130    0.0000 O.2     1  LIG1       -0.2670
     13 C           0.0380    1.0130    0.0000 C.3     1  LIG1        0.1943
     14 C           0.0380    2.0130    0.0000 C.2     1  LIG1        0.2488
     15 N           0.9000    2.5130    0.0000 N.am    1  LIG1       -0.2780
     16 C           1.8080    2.1130    0.0000 C.3     1  LIG1        0.0935
     17 C           2.4880    2.8540    0.0000 C.3     1  LIG1        0.0233
     18 C           1.9880    3.7210    0.0000 C.3     1  LIG1        0.0233
     19 C           1.0080    3.5080    0.0000 C.3     1  LIG1        0.0935
     20 O          -0.8290    2.5130    0.0000 O.2     1  LIG1       -0.2728
     21 N          -0.7040   -1.9880    0.0000 N.3     1  LIG1       -0.1520
     22 C          -0.2080   -1.1210    0.0000 C.3     1  LIG1        0.1172
     23 C           0.7920   -1.1210    0.0000 C.3     1  LIG1        0.1100
     24 N           1.2920   -1.9880    0.0000 N.pl3   1  LIG1       -0.3028
     25 C           2.2960   -1.9880    0.0000 C.ar    1  LIG1        0.0757
     26 C           2.7960   -2.8500    0.0000 C.ar    1  LIG1        0.1533
     27 F           2.2960   -3.7170    0.0000 F       1  LIG1       -0.2029
     28 C           3.7960   -2.8500    0.0000 C.ar    1  LIG1        0.0309
     29 C           4.2960   -1.9880    0.0000 C.ar    1  LIG1        0.0024
     30 C           3.7960   -1.1130    0.0000 C.ar    1  LIG1        0.0014
     31 C           2.7960   -1.1210    0.0000 C.ar    1  LIG1        0.0168
     32 C           0.7920   -2.8540    0.0000 C.3     1  LIG1        0.1100
     33 C          -0.2080   -2.8540    0.0000 C.3     1  LIG1        0.1172
     34 O          -2.7040   -1.9880    0.0000 O.2     1  LIG1       -0.1527
     35 O          -1.7040   -2.9880    0.0000 O.2     1  LIG1       -0.1527
@<TRIPOS>BOND
     1     1     2    1
     2     1    21    1
     3     1    34    2
     4     1    35    2
     5     2     3   ar
     6     2     7   ar
     7     3     4   ar
     8     4     5   ar
     9     4    13    1
    10     5     6   ar
    11     5    12    2
    12     6     7   ar
    13     6    11   ar
    14     7     8   ar
    15     8     9   ar
    16     9    10   ar
    17    10    11   ar
    18    13    14    1
    19    14    15   am
    20    14    20    2
    21    15    16    1
    22    15    19    1
    23    16    17    1
    24    17    18    1
    25    18    19    1
    26    21    22    1
    27    21    33    1
    28    22    23    1
    29    23    24    1
    30    24    25    1
    31    24    32    1
    32    25    26   ar
    33    25    31   ar
    34    26    27    1
    35    26    28   ar
    36    28    29   ar
    37    29    30   ar
    38    30    31   ar
    39    32    33    1
