@<TRIPOS>MOLECULE
35691_ChemDiv_C265-0538
 39 43 0 0 0
SMALL
GASTEIGER
Energy = 0

@<TRIPOS>ATOM
      1 S           0.8540    1.5040    0.0000 S.O2    1  LIG1        0.0648
      2 C           0.8540    0.5000    0.0000 C.ar    1  LIG1        0.1395
      3 C          -0.0130   -0.0040    0.0000 C.ar    1  LIG1        0.0987
      4 N           0.0000   -1.0080    0.0000 N.ar    1  LIG1       -0.2840
      5 C           0.8670   -1.5080    0.0000 C.ar    1  LIG1        0.2613
      6 C           1.7290   -0.9920    0.0000 C.ar    1  LIG1        0.0575
      7 C           1.7290    0.0080    0.0000 C.ar    1  LIG1        0.0247
      8 C           2.5790    0.5080    0.0000 C.ar    1  LIG1        0.0015
      9 C           3.4580    0.0080    0.0000 C.ar    1  LIG1        0.0000
     10 C           3.4580   -0.9920    0.0000 C.ar    1  LIG1        0.0002
     11 C           2.5960   -1.4920    0.0000 C.ar    1  LIG1        0.0048
     12 O           0.8670   -2.4880    0.0000 O.2     1  LIG1       -0.2670
     13 C          -0.8750   -1.5080    0.0000 C.3     1  LIG1        0.1959
     14 C          -0.8750   -2.5000    0.0000 C.2     1  LIG1        0.2647
     15 O          -0.0130   -2.9920    0.0000 O.2     1  LIG1       -0.2712
     16 N          -1.7330   -2.9960    0.0000 N.am    1  LIG1       -0.1974
     17 C          -1.7330   -3.9960    0.0000 C.3     1  LIG1        0.1775
     18 C          -2.6000   -4.4960    0.0000 C.3     1  LIG1        0.1626
     19 N          -2.6000   -5.5080    0.0000 N.4     1  LIG1        0.3827
     20 C          -3.4630   -6.0080    0.0000 C.3     1  LIG1        0.1714
     21 C          -3.4630   -7.0080    0.0000 C.3     1  LIG1        0.2047
     22 O          -2.6000   -7.5130    0.0000 O.3     1  LIG1       -0.3411
     23 C          -1.7330   -7.0080    0.0000 C.3     1  LIG1        0.2047
     24 C          -1.7330   -6.0080    0.0000 C.3     1  LIG1        0.1714
     25 N           0.8540    2.4920    0.0000 N.3     1  LIG1       -0.1520
     26 C          -0.0170    2.9920    0.0000 C.3     1  LIG1        0.1172
     27 C          -0.0250    4.0000    0.0000 C.3     1  LIG1        0.1100
     28 N           0.8380    4.5040    0.0000 N.pl3   1  LIG1       -0.3028
     29 C           0.8380    5.5000    0.0000 C.ar    1  LIG1        0.0757
     30 C          -0.0250    6.0000    0.0000 C.ar    1  LIG1        0.1533
     31 F          -0.8880    5.4880    0.0000 F       1  LIG1       -0.2029
     32 C          -0.0290    7.0000    0.0000 C.ar    1  LIG1        0.0309
     33 C           0.8250    7.5130    0.0000 C.ar    1  LIG1        0.0024
     34 C           1.7000    7.0170    0.0000 C.ar    1  LIG1        0.0014
     35 C           1.7000    6.0130    0.0000 C.ar    1  LIG1        0.0168
     36 C           1.7080    4.0040    0.0000 C.3     1  LIG1        0.1100
     37 C           1.7170    3.0040    0.0000 C.3     1  LIG1        0.1172
     38 O          -0.1380    1.4920    0.0000 O.2     1  LIG1       -0.1527
     39 O           1.8500    1.5080    0.0000 O.2     1  LIG1       -0.1527
@<TRIPOS>BOND
     1     1     2    1
     2     1    25    1
     3     1    38    2
     4     1    39    2
     5     2     3   ar
     6     2     7   ar
     7     3     4   ar
     8     4     5   ar
     9     4    13    1
    10     5     6   ar
    11     5    12    2
    12     6     7   ar
    13     6    11   ar
    14     7     8   ar
    15     8     9   ar
    16     9    10   ar
    17    10    11   ar
    18    13    14    1
    19    14    15    2
    20    14    16   am
    21    16    17    1
    22    17    18    1
    23    18    19    1
    24    19    20    1
    25    19    24    1
    26    20    21    1
    27    21    22    1
    28    22    23    1
    29    23    24    1
    30    25    26    1
    31    25    37    1
    32    26    27    1
    33    27    28    1
    34    28    29    1
    35    28    36    1
    36    29    30   ar
    37    29    35   ar
    38    30    31    1
    39    30    32   ar
    40    32    33   ar
    41    33    34   ar
    42    34    35   ar
    43    36    37    1
