@<TRIPOS>MOLECULE
35699_ChemDiv_C498-0407
 31 35 0 0 0
SMALL
GASTEIGER
Energy = 0

@<TRIPOS>ATOM
      1 C           0.8540    2.2460    0.0000 C.ar    1  LIG1        0.0752
      2 C           1.8500    2.2380    0.0000 C.ar    1  LIG1        0.0661
      3 N           2.1500    1.2830    0.0000 N.ar    1  LIG1       -0.3215
      4 C           1.3500    0.7040    0.0000 C.ar    1  LIG1        0.1144
      5 C           0.5460    1.3000    0.0000 C.ar    1  LIG1        0.0281
      6 C           1.3500   -0.3000    0.0000 C.2     1  LIG1        0.2650
      7 N           0.4750   -0.8000    0.0000 N.am    1  LIG1       -0.2715
      8 C           0.4830   -1.8130    0.0000 C.3     1  LIG1        0.1134
      9 C          -0.3790   -2.2880    0.0000 C.3     1  LIG1        0.0927
     10 N          -1.2460   -1.8130    0.0000 N.pl3   1  LIG1       -0.3057
     11 C          -2.1080   -2.3040    0.0000 C.ar    1  LIG1        0.0476
     12 C          -2.1000   -3.3080    0.0000 C.ar    1  LIG1        0.0103
     13 C          -2.9670   -3.8170    0.0000 C.ar    1  LIG1       -0.0206
     14 C          -3.8500   -3.3250    0.0000 C.ar    1  LIG1       -0.0042
     15 C          -3.8500   -2.3130    0.0000 C.ar    1  LIG1        0.0009
     16 C          -2.9880   -1.8170    0.0000 C.ar    1  LIG1        0.0145
     17 C          -2.9670   -4.8290    0.0000 C.3     1  LIG1        0.0311
     18 C          -1.2460   -0.8080    0.0000 C.3     1  LIG1        0.1123
     19 C          -0.3880   -0.3000    0.0000 C.3     1  LIG1        0.1152
     20 C          -0.3790   -3.3000    0.0000 C.3     1  LIG1        0.0232
     21 O           2.2130   -0.8000    0.0000 O.2     1  LIG1       -0.2683
     22 C           3.0920    0.9750    0.0000 C.3     1  LIG1        0.1306
     23 C           2.3420    3.1040    0.0000 C.ar    1  LIG1        0.0337
     24 C           1.8580    3.9750    0.0000 C.ar    1  LIG1        0.0859
     25 N           0.8630    3.9750    0.0000 N.ar    1  LIG1       -0.2078
     26 C           0.3540    3.1210    0.0000 C.ar    1  LIG1        0.2806
     27 O          -0.6500    3.1210    0.0000 O.2     1  LIG1       -0.2651
     28 C           2.3580    4.8290    0.0000 C.ar    1  LIG1        0.0193
     29 C           3.3540    4.8290    0.0000 C.ar    1  LIG1        0.0015
     30 C           3.8460    3.9670    0.0000 C.ar    1  LIG1        0.0001
     31 C           3.3460    3.0960    0.0000 C.ar    1  LIG1        0.0029
@<TRIPOS>BOND
     1     1     2   ar
     2     1     5   ar
     3     1    26   ar
     4     2     3   ar
     5     2    23   ar
     6     3     4   ar
     7     3    22    1
     8     4     5   ar
     9     4     6    1
    10     6     7   am
    11     6    21    2
    12     7     8    1
    13     7    19    1
    14     8     9    1
    15     9    10    1
    16     9    20    1
    17    10    11    1
    18    10    18    1
    19    11    12   ar
    20    11    16   ar
    21    12    13   ar
    22    13    14   ar
    23    13    17    1
    24    14    15   ar
    25    15    16   ar
    26    18    19    1
    27    23    24   ar
    28    23    31   ar
    29    24    25   ar
    30    24    28   ar
    31    25    26   ar
    32    26    27    2
    33    28    29   ar
    34    29    30   ar
    35    30    31   ar
