@<TRIPOS>MOLECULE
35703_ChemDiv_C593-0417
 26 29 0 0 0
SMALL
GASTEIGER
Energy = 0

@<TRIPOS>ATOM
      1 C           0.0420    2.1290    0.0000 C.ar    1  LIG1        0.0735
      2 C           1.0040    2.1750    0.0000 C.ar    1  LIG1        0.0660
      3 N           1.3250    1.2830    0.0000 N.ar    1  LIG1       -0.3214
      4 C           0.6920    0.5420    0.0000 C.ar    1  LIG1        0.1159
      5 C          -0.2000    1.2080    0.0000 C.ar    1  LIG1        0.0281
      6 C           0.6170   -1.2080    0.0000 C.2     1  LIG1        0.2810
      7 N          -0.2460   -1.7080    0.0000 N.am    1  LIG1       -0.1955
      8 C          -0.2460   -2.7080    0.0000 C.3     1  LIG1        0.1434
      9 C          -1.1250   -3.2040    0.0000 C.ar    1  LIG1        0.0186
     10 C          -1.1250   -4.2000    0.0000 C.ar    1  LIG1        0.0963
     11 N          -1.9880   -4.7000    0.0000 N.ar    1  LIG1       -0.2426
     12 C          -2.8290   -4.2040    0.0000 C.ar    1  LIG1        0.0989
     13 C          -2.8460   -3.2040    0.0000 C.ar    1  LIG1        0.0204
     14 C          -1.9880   -2.7080    0.0000 C.ar    1  LIG1        0.0006
     15 O           1.4580   -1.6420    0.0000 O.2     1  LIG1       -0.2668
     16 C           2.2460    1.0130    0.0000 C.3     1  LIG1        0.1306
     17 C           1.4500    3.0250    0.0000 C.ar    1  LIG1        0.0318
     18 C           0.9330    3.8250    0.0000 C.ar    1  LIG1        0.0639
     19 N          -0.0210    3.7790    0.0000 N.ar    1  LIG1       -0.2934
     20 C          -0.4580    2.9460    0.0000 C.ar    1  LIG1        0.2623
     21 O          -1.4130    2.9170    0.0000 O.2     1  LIG1       -0.2669
     22 C          -0.5210    4.5920    0.0000 C.3     1  LIG1        0.1335
     23 C           1.3830    4.6540    0.0000 C.ar    1  LIG1        0.0173
     24 C           2.3380    4.7000    0.0000 C.ar    1  LIG1        0.0015
     25 C           2.8420    3.9000    0.0000 C.ar    1  LIG1        0.0001
     26 C           2.3960    3.0540    0.0000 C.ar    1  LIG1        0.0029
@<TRIPOS>BOND
     1     1     2   ar
     2     1     5   ar
     3     1    20   ar
     4     2     3   ar
     5     2    17   ar
     6     3     4   ar
     7     3    16    1
     8     4     5   ar
     9     4     6    1
    10     6     7   am
    11     6    15    2
    12     7     8    1
    13     8     9    1
    14     9    10   ar
    15     9    14   ar
    16    10    11   ar
    17    11    12   ar
    18    12    13   ar
    19    13    14   ar
    20    17    18   ar
    21    17    26   ar
    22    18    19   ar
    23    18    23   ar
    24    19    20   ar
    25    19    22    1
    26    20    21    2
    27    23    24   ar
    28    24    25   ar
    29    25    26   ar
