@<TRIPOS>MOLECULE
35701_ChemDiv_C593-0379
 23 25 0 0 0
SMALL
GASTEIGER
Energy = 0

@<TRIPOS>ATOM
      1 C          -0.6750    1.8830    0.0000 C.ar    1  LIG1        0.0735
      2 C           0.2880    1.9290    0.0000 C.ar    1  LIG1        0.0660
      3 N           0.6080    1.0380    0.0000 N.ar    1  LIG1       -0.3214
      4 C          -0.0250    0.3000    0.0000 C.ar    1  LIG1        0.1159
      5 C          -0.9170    0.9630    0.0000 C.ar    1  LIG1        0.0281
      6 C          -0.1000   -1.4500    0.0000 C.2     1  LIG1        0.2806
      7 N          -0.9630   -1.9460    0.0000 N.am    1  LIG1       -0.2022
      8 C          -0.9630   -2.9420    0.0000 C.3     1  LIG1        0.0957
      9 C          -0.0920   -3.4420    0.0000 C.3     1  LIG1        0.0217
     10 C          -0.0920   -4.4500    0.0000 C.3     1  LIG1        0.0018
     11 C          -1.8210   -3.4420    0.0000 C.3     1  LIG1        0.0234
     12 O           0.7420   -1.8790    0.0000 O.2     1  LIG1       -0.2668
     13 C           1.5250    0.7670    0.0000 C.3     1  LIG1        0.1306
     14 C           0.7290    2.7750    0.0000 C.ar    1  LIG1        0.0318
     15 C           0.2170    3.5750    0.0000 C.ar    1  LIG1        0.0639
     16 N          -0.7330    3.5290    0.0000 N.ar    1  LIG1       -0.2934
     17 C          -1.1710    2.7000    0.0000 C.ar    1  LIG1        0.2623
     18 O          -2.1250    2.6710    0.0000 O.2     1  LIG1       -0.2669
     19 C          -1.2330    4.3420    0.0000 C.3     1  LIG1        0.1335
     20 C           0.6670    4.4040    0.0000 C.ar    1  LIG1        0.0173
     21 C           1.6170    4.4500    0.0000 C.ar    1  LIG1        0.0015
     22 C           2.1210    3.6500    0.0000 C.ar    1  LIG1        0.0001
     23 C           1.6750    2.8040    0.0000 C.ar    1  LIG1        0.0029
@<TRIPOS>BOND
     1     1     2   ar
     2     1     5   ar
     3     1    17   ar
     4     2     3   ar
     5     2    14   ar
     6     3     4   ar
     7     3    13    1
     8     4     5   ar
     9     4     6    1
    10     6     7   am
    11     6    12    2
    12     7     8    1
    13     8     9    1
    14     8    11    1
    15     9    10    1
    16    14    15   ar
    17    14    23   ar
    18    15    16   ar
    19    15    20   ar
    20    16    17   ar
    21    16    19    1
    22    17    18    2
    23    20    21   ar
    24    21    22   ar
    25    22    23   ar
