@<TRIPOS>MOLECULE
35709_ChemDiv_C593-0435
 34 39 0 0 0
SMALL
GASTEIGER
Energy = 0

@<TRIPOS>ATOM
      1 C           2.1170    1.3830    0.0000 C.ar    1  LIG1        0.0735
      2 C           3.0790    1.4250    0.0000 C.ar    1  LIG1        0.0660
      3 N           3.4000    0.5380    0.0000 N.ar    1  LIG1       -0.3215
      4 C           2.7670   -0.2040    0.0000 C.ar    1  LIG1        0.1144
      5 C           1.8750    0.4580    0.0000 C.ar    1  LIG1        0.0280
      6 C           2.6920   -1.9500    0.0000 C.2     1  LIG1        0.2653
      7 N           1.8290   -2.4500    0.0000 N.am    1  LIG1       -0.2633
      8 C           0.9540   -1.9380    0.0000 C.3     1  LIG1        0.1567
      9 C           0.0920   -2.4460    0.0000 C.3     1  LIG1        0.1610
     10 N           0.0790   -3.4460    0.0000 N.4     1  LIG1        0.3834
     11 C          -0.7630   -3.9460    0.0000 C.3     1  LIG1        0.1664
     12 C          -1.6500   -3.4330    0.0000 C.ar    1  LIG1        0.0376
     13 C          -2.5130   -3.9290    0.0000 C.ar    1  LIG1        0.0416
     14 C          -3.3750   -3.4330    0.0000 C.ar    1  LIG1        0.1763
     15 C          -3.3750   -2.4330    0.0000 C.ar    1  LIG1        0.1764
     16 O          -4.3250   -2.1170    0.0000 O.3     1  LIG1       -0.4346
     17 C          -4.9170   -2.9170    0.0000 C.3     1  LIG1        0.4294
     18 O          -4.3250   -3.7330    0.0000 O.3     1  LIG1       -0.4346
     19 C          -2.5080   -1.9380    0.0000 C.ar    1  LIG1        0.0401
     20 C          -1.6500   -2.4330    0.0000 C.ar    1  LIG1        0.0048
     21 C           0.9540   -3.9460    0.0000 C.3     1  LIG1        0.1610
     22 C           1.8170   -3.4460    0.0000 C.3     1  LIG1        0.1567
     23 O           3.5330   -2.3830    0.0000 O.2     1  LIG1       -0.2683
     24 C           4.3170    0.2630    0.0000 C.3     1  LIG1        0.1306
     25 C           3.5210    2.2710    0.0000 C.ar    1  LIG1        0.0318
     26 C           3.0080    3.0750    0.0000 C.ar    1  LIG1        0.0639
     27 N           2.0580    3.0290    0.0000 N.ar    1  LIG1       -0.2934
     28 C           1.6210    2.1960    0.0000 C.ar    1  LIG1        0.2623
     29 O           0.6670    2.1670    0.0000 O.2     1  LIG1       -0.2669
     30 C           1.5580    3.8420    0.0000 C.3     1  LIG1        0.1335
     31 C           3.4580    3.9040    0.0000 C.ar    1  LIG1        0.0173
     32 C           4.4080    3.9500    0.0000 C.ar    1  LIG1        0.0015
     33 C           4.9130    3.1500    0.0000 C.ar    1  LIG1        0.0001
     34 C           4.4670    2.3040    0.0000 C.ar    1  LIG1        0.0029
@<TRIPOS>BOND
     1     1     2   ar
     2     1     5   ar
     3     1    28   ar
     4     2     3   ar
     5     2    25   ar
     6     3     4   ar
     7     3    24    1
     8     4     5   ar
     9     4     6    1
    10     6     7   am
    11     6    23    2
    12     7     8    1
    13     7    22    1
    14     8     9    1
    15     9    10    1
    16    10    11    1
    17    10    21    1
    18    11    12    1
    19    12    13   ar
    20    12    20   ar
    21    13    14   ar
    22    14    15   ar
    23    14    18    1
    24    15    16    1
    25    15    19   ar
    26    16    17    1
    27    17    18    1
    28    19    20   ar
    29    21    22    1
    30    25    26   ar
    31    25    34   ar
    32    26    27   ar
    33    26    31   ar
    34    27    28   ar
    35    27    30    1
    36    28    29    2
    37    31    32   ar
    38    32    33   ar
    39    33    34   ar
