@<TRIPOS>MOLECULE
35707_ChemDiv_C593-0429
 28 32 0 0 0
SMALL
GASTEIGER
Energy = 0

@<TRIPOS>ATOM
      1 C          -0.4540    2.6830    0.0000 C.ar    1  LIG1        0.0735
      2 C           0.5080    2.7250    0.0000 C.ar    1  LIG1        0.0660
      3 N           0.8290    1.8330    0.0000 N.ar    1  LIG1       -0.3214
      4 C           0.1960    1.0960    0.0000 C.ar    1  LIG1        0.1162
      5 C          -0.6960    1.7580    0.0000 C.ar    1  LIG1        0.0281
      6 C           0.1210   -0.6540    0.0000 C.2     1  LIG1        0.2849
      7 N          -0.7420   -1.1500    0.0000 N.am    1  LIG1       -0.1741
      8 C          -0.7420   -2.1580    0.0000 C.ar    1  LIG1        0.0770
      9 C          -1.6080   -2.6630    0.0000 C.ar    1  LIG1        0.0568
     10 C          -1.6040   -3.6580    0.0000 C.ar    1  LIG1        0.1777
     11 C          -0.7420   -4.1580    0.0000 C.ar    1  LIG1        0.1765
     12 O          -0.9460   -5.1330    0.0000 O.3     1  LIG1       -0.4346
     13 C          -1.9250   -5.2460    0.0000 C.3     1  LIG1        0.4294
     14 O          -2.3460   -4.3250    0.0000 O.3     1  LIG1       -0.4346
     15 C           0.1290   -3.6580    0.0000 C.ar    1  LIG1        0.0415
     16 C           0.1210   -2.6580    0.0000 C.ar    1  LIG1        0.0199
     17 O           0.9580   -1.0880    0.0000 O.2     1  LIG1       -0.2664
     18 C           1.7460    1.5630    0.0000 C.3     1  LIG1        0.1306
     19 C           0.9500    3.5710    0.0000 C.ar    1  LIG1        0.0318
     20 C           0.4380    4.3710    0.0000 C.ar    1  LIG1        0.0639
     21 N          -0.5170    4.3250    0.0000 N.ar    1  LIG1       -0.2934
     22 C          -0.9540    3.4960    0.0000 C.ar    1  LIG1        0.2623
     23 O          -1.9040    3.4670    0.0000 O.2     1  LIG1       -0.2669
     24 C          -1.0130    5.1420    0.0000 C.3     1  LIG1        0.1335
     25 C           0.8830    5.2000    0.0000 C.ar    1  LIG1        0.0173
     26 C           1.8380    5.2460    0.0000 C.ar    1  LIG1        0.0015
     27 C           2.3420    4.4460    0.0000 C.ar    1  LIG1        0.0001
     28 C           1.8960    3.6040    0.0000 C.ar    1  LIG1        0.0029
@<TRIPOS>BOND
     1     1     2   ar
     2     1     5   ar
     3     1    22   ar
     4     2     3   ar
     5     2    19   ar
     6     3     4   ar
     7     3    18    1
     8     4     5   ar
     9     4     6    1
    10     6     7   am
    11     6    17    2
    12     7     8    1
    13     8     9   ar
    14     8    16   ar
    15     9    10   ar
    16    10    11   ar
    17    10    14    1
    18    11    12    1
    19    11    15   ar
    20    12    13    1
    21    13    14    1
    22    15    16   ar
    23    19    20   ar
    24    19    28   ar
    25    20    21   ar
    26    20    25   ar
    27    21    22   ar
    28    21    24    1
    29    22    23    2
    30    25    26   ar
    31    26    27   ar
    32    27    28   ar
