@<TRIPOS>MOLECULE
35705_ChemDiv_C593-0418
 29 32 0 0 0
SMALL
GASTEIGER
Energy = 0

@<TRIPOS>ATOM
      1 C           0.5000    2.6210    0.0000 C.ar    1  LIG1        0.0735
      2 C           1.4630    2.6670    0.0000 C.ar    1  LIG1        0.0660
      3 N           1.7830    1.7750    0.0000 N.ar    1  LIG1       -0.3215
      4 C           1.1500    1.0330    0.0000 C.ar    1  LIG1        0.1144
      5 C           0.2580    1.7000    0.0000 C.ar    1  LIG1        0.0280
      6 C           1.0750   -0.7130    0.0000 C.2     1  LIG1        0.2650
      7 N           0.2130   -1.2130    0.0000 N.am    1  LIG1       -0.2714
      8 C          -0.6460   -0.7130    0.0000 C.3     1  LIG1        0.1154
      9 C          -1.5210   -1.2040    0.0000 C.3     1  LIG1        0.1182
     10 N          -1.5210   -2.1920    0.0000 N.am    1  LIG1       -0.2425
     11 C          -2.4040   -2.7040    0.0000 C.2     1  LIG1        0.4050
     12 O          -3.2710   -2.1920    0.0000 O.2     1  LIG1       -0.2262
     13 O          -2.4080   -3.7040    0.0000 O.3     1  LIG1       -0.4345
     14 C          -3.2830   -4.1880    0.0000 C.3     1  LIG1        0.2102
     15 C          -3.3000   -5.1830    0.0000 C.3     1  LIG1        0.0513
     16 C          -0.6630   -2.7040    0.0000 C.3     1  LIG1        0.1182
     17 C           0.2000   -2.2170    0.0000 C.3     1  LIG1        0.1154
     18 O           1.9170   -1.1460    0.0000 O.2     1  LIG1       -0.2683
     19 C           2.7000    1.5040    0.0000 C.3     1  LIG1        0.1306
     20 C           1.9040    3.5130    0.0000 C.ar    1  LIG1        0.0318
     21 C           1.3920    4.3080    0.0000 C.ar    1  LIG1        0.0639
     22 N           0.4420    4.2630    0.0000 N.ar    1  LIG1       -0.2934
     23 C           0.0040    3.4330    0.0000 C.ar    1  LIG1        0.2623
     24 O          -0.9500    3.4040    0.0000 O.2     1  LIG1       -0.2669
     25 C          -0.0580    5.0750    0.0000 C.3     1  LIG1        0.1335
     26 C           1.8420    5.1380    0.0000 C.ar    1  LIG1        0.0173
     27 C           2.7920    5.1830    0.0000 C.ar    1  LIG1        0.0015
     28 C           3.2960    4.3830    0.0000 C.ar    1  LIG1        0.0001
     29 C           2.8500    3.5420    0.0000 C.ar    1  LIG1        0.0029
@<TRIPOS>BOND
     1     1     2   ar
     2     1     5   ar
     3     1    23   ar
     4     2     3   ar
     5     2    20   ar
     6     3     4   ar
     7     3    19    1
     8     4     5   ar
     9     4     6    1
    10     6     7   am
    11     6    18    2
    12     7     8    1
    13     7    17    1
    14     8     9    1
    15     9    10    1
    16    10    11   am
    17    10    16    1
    18    11    12    2
    19    11    13    1
    20    13    14    1
    21    14    15    1
    22    16    17    1
    23    20    21   ar
    24    20    29   ar
    25    21    22   ar
    26    21    26   ar
    27    22    23   ar
    28    22    25    1
    29    23    24    2
    30    26    27   ar
    31    27    28   ar
    32    28    29   ar
