@<TRIPOS>MOLECULE
35713_ChemDiv_C265-0752
 37 41 0 0 0
SMALL
GASTEIGER
Energy = 0

@<TRIPOS>ATOM
      1 S           2.1330    2.2710    0.0000 S.O2    1  LIG1        0.0647
      2 C           2.1460    1.2710    0.0000 C.ar    1  LIG1        0.1395
      3 C           1.2880    0.7580    0.0000 C.ar    1  LIG1        0.0987
      4 N           1.2880   -0.2290    0.0000 N.ar    1  LIG1       -0.2840
      5 C           2.1630   -0.7290    0.0000 C.ar    1  LIG1        0.2613
      6 C           3.0170   -0.2290    0.0000 C.ar    1  LIG1        0.0575
      7 C           3.0170    0.7710    0.0000 C.ar    1  LIG1        0.0247
      8 C           3.8750    1.2830    0.0000 C.ar    1  LIG1        0.0015
      9 C           4.7500    0.7880    0.0000 C.ar    1  LIG1        0.0000
     10 C           4.7540   -0.2130    0.0000 C.ar    1  LIG1        0.0002
     11 C           3.8920   -0.7170    0.0000 C.ar    1  LIG1        0.0048
     12 O           2.1670   -1.7210    0.0000 O.2     1  LIG1       -0.2670
     13 C           0.4290   -0.7420    0.0000 C.3     1  LIG1        0.1943
     14 C           0.4290   -1.7380    0.0000 C.2     1  LIG1        0.2489
     15 N          -0.4380   -2.2380    0.0000 N.am    1  LIG1       -0.2745
     16 C          -0.4380   -3.2290    0.0000 C.3     1  LIG1        0.1149
     17 C          -1.3000   -3.7330    0.0000 C.3     1  LIG1        0.1123
     18 N          -2.1670   -3.2500    0.0000 N.pl3   1  LIG1       -0.3040
     19 C          -3.0210   -3.7670    0.0000 C.ar    1  LIG1        0.0488
     20 C          -3.0210   -4.7670    0.0000 C.ar    1  LIG1        0.0259
     21 C          -3.8710   -5.2790    0.0000 C.ar    1  LIG1        0.0589
     22 CL         -3.8710   -6.2790    0.0000 Cl      1  LIG1       -0.0822
     23 C          -4.7500   -4.7790    0.0000 C.ar    1  LIG1        0.0115
     24 C          -4.7580   -3.7920    0.0000 C.ar    1  LIG1        0.0021
     25 C          -3.8880   -3.2790    0.0000 C.ar    1  LIG1        0.0146
     26 C          -2.1790   -2.2460    0.0000 C.3     1  LIG1        0.1123
     27 C          -1.3080   -1.7210    0.0000 C.3     1  LIG1        0.1149
     28 O           1.2960   -2.2290    0.0000 O.2     1  LIG1       -0.2728
     29 N           2.1290    3.2710    0.0000 N.3     1  LIG1       -0.1555
     30 C           1.2710    3.7710    0.0000 C.3     1  LIG1        0.0958
     31 C           1.2670    4.7670    0.0000 C.3     1  LIG1        0.0192
     32 C           2.1210    5.2670    0.0000 C.3     1  LIG1        0.0029
     33 C           2.9920    4.7790    0.0000 C.3     1  LIG1        0.0192
     34 C           3.0000    3.7710    0.0000 C.3     1  LIG1        0.0958
     35 C           2.1040    6.2790    0.0000 C.3     1  LIG1        0.0001
     36 O           3.1380    2.2710    0.0000 O.2     1  LIG1       -0.1527
     37 O           1.1460    2.2580    0.0000 O.2     1  LIG1       -0.1527
@<TRIPOS>BOND
     1     1     2    1
     2     1    29    1
     3     1    36    2
     4     1    37    2
     5     2     3   ar
     6     2     7   ar
     7     3     4   ar
     8     4     5   ar
     9     4    13    1
    10     5     6   ar
    11     5    12    2
    12     6     7   ar
    13     6    11   ar
    14     7     8   ar
    15     8     9   ar
    16     9    10   ar
    17    10    11   ar
    18    13    14    1
    19    14    15   am
    20    14    28    2
    21    15    16    1
    22    15    27    1
    23    16    17    1
    24    17    18    1
    25    18    19    1
    26    18    26    1
    27    19    20   ar
    28    19    25   ar
    29    20    21   ar
    30    21    22    1
    31    21    23   ar
    32    23    24   ar
    33    24    25   ar
    34    26    27    1
    35    29    30    1
    36    29    34    1
    37    30    31    1
    38    31    32    1
    39    32    33    1
    40    32    35    1
    41    33    34    1
