@<TRIPOS>MOLECULE
35711_ChemDiv_C593-0453
 31 34 0 0 0
SMALL
GASTEIGER
Energy = 0

@<TRIPOS>ATOM
      1 C           0.9130    3.6290    0.0000 C.ar    1  LIG1        0.0735
      2 C           1.8750    3.6750    0.0000 C.ar    1  LIG1        0.0660
      3 N           2.1960    2.7880    0.0000 N.ar    1  LIG1       -0.3214
      4 C           1.5630    2.0460    0.0000 C.ar    1  LIG1        0.1159
      5 C           0.6710    2.7080    0.0000 C.ar    1  LIG1        0.0281
      6 C           1.4880    0.3000    0.0000 C.2     1  LIG1        0.2807
      7 O           2.3290   -0.1330    0.0000 O.2     1  LIG1       -0.2668
      8 N           0.6290   -0.2000    0.0000 N.am    1  LIG1       -0.2002
      9 C           0.6290   -1.1920    0.0000 C.3     1  LIG1        0.1217
     10 C          -0.2500   -1.6960    0.0000 C.3     1  LIG1        0.0861
     11 C          -0.2500   -2.6920    0.0000 C.3     1  LIG1        0.1412
     12 N          -1.1250   -3.1880    0.0000 N.4     1  LIG1        0.3855
     13 C          -1.1080   -4.1880    0.0000 C.3     1  LIG1        0.1665
     14 C          -1.9670   -4.6960    0.0000 C.ar    1  LIG1        0.0344
     15 C          -2.8420   -4.1880    0.0000 C.ar    1  LIG1        0.0014
     16 C          -3.7130   -4.6960    0.0000 C.ar    1  LIG1       -0.0001
     17 C          -3.7130   -5.6960    0.0000 C.ar    1  LIG1       -0.0000
     18 C          -2.8420   -6.1920    0.0000 C.ar    1  LIG1       -0.0001
     19 C          -1.9670   -5.6920    0.0000 C.ar    1  LIG1        0.0014
     20 C          -1.9670   -2.6920    0.0000 C.3     1  LIG1        0.2027
     21 C           3.1130    2.5130    0.0000 C.3     1  LIG1        0.1306
     22 C           2.3170    4.5170    0.0000 C.ar    1  LIG1        0.0318
     23 C           1.8040    5.3170    0.0000 C.ar    1  LIG1        0.0639
     24 N           0.8540    5.2710    0.0000 N.ar    1  LIG1       -0.2934
     25 C           0.4170    4.4420    0.0000 C.ar    1  LIG1        0.2623
     26 O          -0.5380    4.4130    0.0000 O.2     1  LIG1       -0.2669
     27 C           0.3540    6.0880    0.0000 C.3     1  LIG1        0.1335
     28 C           2.2540    6.1500    0.0000 C.ar    1  LIG1        0.0173
     29 C           3.2040    6.1920    0.0000 C.ar    1  LIG1        0.0015
     30 C           3.7080    5.3920    0.0000 C.ar    1  LIG1        0.0001
     31 C           3.2630    4.5460    0.0000 C.ar    1  LIG1        0.0029
@<TRIPOS>BOND
     1     1     2   ar
     2     1     5   ar
     3     1    25   ar
     4     2     3   ar
     5     2    22   ar
     6     3     4   ar
     7     3    21    1
     8     4     5   ar
     9     4     6    1
    10     6     7    2
    11     6     8   am
    12     8     9    1
    13     9    10    1
    14    10    11    1
    15    11    12    1
    16    12    13    1
    17    12    20    1
    18    13    14    1
    19    14    15   ar
    20    14    19   ar
    21    15    16   ar
    22    16    17   ar
    23    17    18   ar
    24    18    19   ar
    25    22    23   ar
    26    22    31   ar
    27    23    24   ar
    28    23    28   ar
    29    24    25   ar
    30    24    27    1
    31    25    26    2
    32    28    29   ar
    33    29    30   ar
    34    30    31   ar
