@<TRIPOS>MOLECULE
35718_ChemDiv_C105-0601
 32 35 0 0 0
SMALL
GASTEIGER
Energy = 0

@<TRIPOS>ATOM
      1 C           1.5540    3.2830    0.0000 C.ar    1  LIG1        0.1281
      2 C           2.3880    3.7670    0.0000 C.ar    1  LIG1        0.1601
      3 C           2.3880    4.7330    0.0000 C.ar    1  LIG1        0.1444
      4 N           3.3130    5.0420    0.0000 N.ar    1  LIG1       -0.0482
      5 O           3.8880    4.2500    0.0000 O.2     1  LIG1       -0.2415
      6 N           3.3130    3.4750    0.0000 N.ar    1  LIG1       -0.0469
      7 C           1.5540    5.2210    0.0000 C.ar    1  LIG1        0.0242
      8 C           0.7130    4.7330    0.0000 C.ar    1  LIG1        0.0031
      9 C           0.7130    3.7670    0.0000 C.ar    1  LIG1        0.0201
     10 S           1.5540    2.3170    0.0000 S.O2    1  LIG1        0.0107
     11 C           1.5540    1.3460    0.0000 C.3     1  LIG1        0.1655
     12 C           2.3880    0.8630    0.0000 C.3     1  LIG1        0.1110
     13 C           2.3830   -0.1080    0.0000 C.2     1  LIG1        0.2282
     14 N           1.4880   -0.6210    0.0000 N.am    1  LIG1       -0.2628
     15 C           0.5960   -0.1040    0.0000 C.3     1  LIG1        0.1801
     16 C          -0.3000   -0.6080    0.0000 C.2     1  LIG1        0.2517
     17 N          -0.3000   -1.6290    0.0000 N.am    1  LIG1       -0.2268
     18 C           0.5960   -2.1500    0.0000 C.2     1  LIG1        0.2517
     19 C           1.4790   -1.6500    0.0000 C.3     1  LIG1        0.1801
     20 O           0.5830   -3.1920    0.0000 O.2     1  LIG1       -0.2726
     21 C          -1.1920   -2.1460    0.0000 C.3     1  LIG1        0.1056
     22 C          -1.2040   -3.1790    0.0000 C.3     1  LIG1        0.0483
     23 C          -2.1000   -3.6790    0.0000 C.ar    1  LIG1       -0.0205
     24 C          -2.1000   -4.7040    0.0000 C.ar    1  LIG1       -0.0042
     25 C          -2.9960   -5.2210    0.0000 C.ar    1  LIG1       -0.0003
     26 C          -3.8920   -4.6920    0.0000 C.ar    1  LIG1       -0.0000
     27 C          -3.8790   -3.6630    0.0000 C.ar    1  LIG1       -0.0003
     28 C          -2.9920   -3.1580    0.0000 C.ar    1  LIG1       -0.0042
     29 O          -1.1750   -0.0920    0.0000 O.2     1  LIG1       -0.2726
     30 O           3.2210   -0.6040    0.0000 O.2     1  LIG1       -0.2748
     31 O           0.5830    2.3170    0.0000 O.2     1  LIG1       -0.1686
     32 O           2.5210    2.3170    0.0000 O.2     1  LIG1       -0.1686
@<TRIPOS>BOND
     1     1     2   ar
     2     1     9   ar
     3     1    10    1
     4     2     3   ar
     5     2     6   ar
     6     3     4   ar
     7     3     7   ar
     8     4     5   ar
     9     5     6   ar
    10     7     8   ar
    11     8     9   ar
    12    10    11    1
    13    10    31    2
    14    10    32    2
    15    11    12    1
    16    12    13    1
    17    13    14   am
    18    13    30    2
    19    14    15    1
    20    14    19    1
    21    15    16    1
    22    16    17   am
    23    16    29    2
    24    17    18   am
    25    17    21    1
    26    18    19    1
    27    18    20    2
    28    21    22    1
    29    22    23    1
    30    23    24   ar
    31    23    28   ar
    32    24    25   ar
    33    25    26   ar
    34    26    27   ar
    35    27    28   ar
