@<TRIPOS>MOLECULE
35714_ChemDiv_C105-0399
 36 40 0 0 0
SMALL
GASTEIGER
Energy = 0

@<TRIPOS>ATOM
      1 C           1.4670    3.8330    0.0000 C.ar    1  LIG1        0.1281
      2 C           2.2960    4.3130    0.0000 C.ar    1  LIG1        0.1601
      3 C           2.2960    5.2790    0.0000 C.ar    1  LIG1        0.1444
      4 N           3.2210    5.5830    0.0000 N.ar    1  LIG1       -0.0482
      5 O           3.7920    4.7960    0.0000 O.2     1  LIG1       -0.2415
      6 N           3.2210    4.0210    0.0000 N.ar    1  LIG1       -0.0469
      7 C           1.4670    5.7580    0.0000 C.ar    1  LIG1        0.0242
      8 C           0.6330    5.2790    0.0000 C.ar    1  LIG1        0.0031
      9 C           0.6330    4.3130    0.0000 C.ar    1  LIG1        0.0201
     10 S           1.4670    2.8710    0.0000 S.O2    1  LIG1        0.0107
     11 C           1.4670    1.9040    0.0000 C.3     1  LIG1        0.1655
     12 C           2.2960    1.4210    0.0000 C.3     1  LIG1        0.1110
     13 C           2.2920    0.4580    0.0000 C.2     1  LIG1        0.2278
     14 N           1.4040   -0.0540    0.0000 N.am    1  LIG1       -0.2681
     15 C           1.4380   -1.0040    0.0000 C.3     1  LIG1        0.1565
     16 C           0.5540   -1.5330    0.0000 C.3     1  LIG1        0.1612
     17 N          -0.3000   -1.0670    0.0000 N.4     1  LIG1        0.3820
     18 C          -1.1960   -1.5830    0.0000 C.3     1  LIG1        0.1331
     19 C          -1.1790   -2.4540    0.0000 C.ar    1  LIG1        0.0328
     20 C          -0.2710   -2.9670    0.0000 C.ar    1  LIG1        0.0024
     21 C          -0.2580   -3.9920    0.0000 C.ar    1  LIG1        0.0113
     22 C          -1.1790   -4.5420    0.0000 C.ar    1  LIG1        0.0577
     23 C          -2.0670   -4.0170    0.0000 C.ar    1  LIG1        0.0113
     24 C          -2.0830   -2.9960    0.0000 C.ar    1  LIG1        0.0024
     25 CL         -1.1500   -5.7580    0.0000 Cl      1  LIG1       -0.0822
     26 C          -1.9630   -1.0920    0.0000 C.ar    1  LIG1        0.0328
     27 C          -1.9630   -0.0830    0.0000 C.ar    1  LIG1        0.0016
     28 C          -2.8710    0.4420    0.0000 C.ar    1  LIG1       -0.0001
     29 C          -3.7960   -0.1080    0.0000 C.ar    1  LIG1       -0.0000
     30 C          -3.7630   -1.1460    0.0000 C.ar    1  LIG1       -0.0001
     31 C          -2.8880   -1.6460    0.0000 C.ar    1  LIG1        0.0016
     32 C          -0.3330   -0.0250    0.0000 C.3     1  LIG1        0.1612
     33 C           0.5460    0.5000    0.0000 C.3     1  LIG1        0.1565
     34 O           3.1290   -0.0330    0.0000 O.2     1  LIG1       -0.2748
     35 O           0.5040    2.8710    0.0000 O.2     1  LIG1       -0.1686
     36 O           2.4290    2.8710    0.0000 O.2     1  LIG1       -0.1686
@<TRIPOS>BOND
     1     1     2   ar
     2     1     9   ar
     3     1    10    1
     4     2     3   ar
     5     2     6   ar
     6     3     4   ar
     7     3     7   ar
     8     4     5   ar
     9     5     6   ar
    10     7     8   ar
    11     8     9   ar
    12    10    11    1
    13    10    35    2
    14    10    36    2
    15    11    12    1
    16    12    13    1
    17    13    14   am
    18    13    34    2
    19    14    15    1
    20    14    33    1
    21    15    16    1
    22    16    17    1
    23    17    18    1
    24    17    32    1
    25    18    19    1
    26    18    26    1
    27    19    20   ar
    28    19    24   ar
    29    20    21   ar
    30    21    22   ar
    31    22    23   ar
    32    22    25    1
    33    23    24   ar
    34    26    27   ar
    35    26    31   ar
    36    27    28   ar
    37    28    29   ar
    38    29    30   ar
    39    30    31   ar
    40    32    33    1
