@<TRIPOS>MOLECULE
35716_ChemDiv_C105-0478
 25 27 0 0 0
SMALL
GASTEIGER
Energy = 0

@<TRIPOS>ATOM
      1 C          -0.6880    3.3420    0.0000 C.ar    1  LIG1        0.1281
      2 C           0.1540    3.8290    0.0000 C.ar    1  LIG1        0.1601
      3 C           0.1540    4.8040    0.0000 C.ar    1  LIG1        0.1444
      4 N           1.0880    5.1170    0.0000 N.ar    1  LIG1       -0.0482
      5 O           1.6630    4.3170    0.0000 O.2     1  LIG1       -0.2415
      6 N           1.0880    3.5330    0.0000 N.ar    1  LIG1       -0.0469
      7 C          -0.6880    5.2920    0.0000 C.ar    1  LIG1        0.0242
      8 C          -1.5330    4.8040    0.0000 C.ar    1  LIG1        0.0031
      9 C          -1.5330    3.8290    0.0000 C.ar    1  LIG1        0.0201
     10 S          -0.6880    2.3630    0.0000 S.O2    1  LIG1        0.0107
     11 C          -0.6880    1.3880    0.0000 C.3     1  LIG1        0.1656
     12 C           0.1540    0.9000    0.0000 C.3     1  LIG1        0.1125
     13 C           0.1500   -0.0790    0.0000 C.2     1  LIG1        0.2432
     14 O           0.9960   -0.5750    0.0000 O.2     1  LIG1       -0.2733
     15 N          -0.7540   -0.5960    0.0000 N.am    1  LIG1       -0.2050
     16 C          -0.7630   -1.6330    0.0000 C.3     1  LIG1        0.1198
     17 C           0.1330   -2.1670    0.0000 C.3     1  LIG1        0.0498
     18 C           0.1080   -3.2040    0.0000 C.ar    1  LIG1       -0.0204
     19 C          -0.7790   -3.7040    0.0000 C.ar    1  LIG1       -0.0042
     20 C          -0.8000   -4.7420    0.0000 C.ar    1  LIG1       -0.0003
     21 C           0.0790   -5.2920    0.0000 C.ar    1  LIG1       -0.0000
     22 C           0.9830   -4.7880    0.0000 C.ar    1  LIG1       -0.0003
     23 C           1.0080   -3.7460    0.0000 C.ar    1  LIG1       -0.0042
     24 O           0.2880    2.3630    0.0000 O.2     1  LIG1       -0.1686
     25 O          -1.6670    2.3630    0.0000 O.2     1  LIG1       -0.1686
@<TRIPOS>BOND
     1     1     2   ar
     2     1     9   ar
     3     1    10    1
     4     2     3   ar
     5     2     6   ar
     6     3     4   ar
     7     3     7   ar
     8     4     5   ar
     9     5     6   ar
    10     7     8   ar
    11     8     9   ar
    12    10    11    1
    13    10    24    2
    14    10    25    2
    15    11    12    1
    16    12    13    1
    17    13    14    2
    18    13    15   am
    19    15    16    1
    20    16    17    1
    21    17    18    1
    22    18    19   ar
    23    18    23   ar
    24    19    20   ar
    25    20    21   ar
    26    21    22   ar
    27    22    23   ar
