@<TRIPOS>MOLECULE
35717_ChemDiv_C265-0810
 34 37 0 0 0
SMALL
GASTEIGER
Energy = 0

@<TRIPOS>ATOM
      1 S           0.4080    2.5040    0.0000 S.O2    1  LIG1        0.0647
      2 C           0.4210    1.5040    0.0000 C.ar    1  LIG1        0.1395
      3 C          -0.4380    0.9920    0.0000 C.ar    1  LIG1        0.0987
      4 N          -0.4380    0.0040    0.0000 N.ar    1  LIG1       -0.2840
      5 C           0.4330   -0.4920    0.0000 C.ar    1  LIG1        0.2613
      6 C           1.2880    0.0080    0.0000 C.ar    1  LIG1        0.0575
      7 C           1.2880    1.0040    0.0000 C.ar    1  LIG1        0.0247
      8 C           2.1500    1.5170    0.0000 C.ar    1  LIG1        0.0015
      9 C           3.0250    1.0210    0.0000 C.ar    1  LIG1        0.0000
     10 C           3.0290    0.0210    0.0000 C.ar    1  LIG1        0.0002
     11 C           2.1670   -0.4830    0.0000 C.ar    1  LIG1        0.0048
     12 O           0.4380   -1.4880    0.0000 O.2     1  LIG1       -0.2670
     13 C          -1.3000   -0.5080    0.0000 C.3     1  LIG1        0.1962
     14 C          -1.3000   -1.5000    0.0000 C.2     1  LIG1        0.2687
     15 N          -2.1630   -2.0000    0.0000 N.am    1  LIG1       -0.1776
     16 C          -2.1630   -2.9960    0.0000 C.ar    1  LIG1        0.0734
     17 C          -1.3000   -3.4920    0.0000 C.ar    1  LIG1        0.0163
     18 C          -1.2880   -4.4960    0.0000 C.ar    1  LIG1       -0.0029
     19 C          -2.1630   -5.0040    0.0000 C.ar    1  LIG1       -0.0224
     20 C          -3.0330   -4.4960    0.0000 C.ar    1  LIG1       -0.0029
     21 C          -3.0330   -3.4960    0.0000 C.ar    1  LIG1        0.0163
     22 C          -2.1630   -6.0130    0.0000 C.3     1  LIG1        0.0224
     23 C          -1.2880   -6.5130    0.0000 C.3     1  LIG1        0.0047
     24 C          -3.0250   -6.5130    0.0000 C.3     1  LIG1        0.0047
     25 O          -0.4290   -1.9960    0.0000 O.2     1  LIG1       -0.2709
     26 N           0.4040    3.5040    0.0000 N.3     1  LIG1       -0.1555
     27 C          -0.4540    4.0000    0.0000 C.3     1  LIG1        0.0958
     28 C          -0.4630    5.0000    0.0000 C.3     1  LIG1        0.0192
     29 C           0.3960    5.5000    0.0000 C.3     1  LIG1        0.0029
     30 C           1.2670    5.0130    0.0000 C.3     1  LIG1        0.0192
     31 C           1.2710    4.0000    0.0000 C.3     1  LIG1        0.0958
     32 C           0.3790    6.5130    0.0000 C.3     1  LIG1        0.0001
     33 O           1.4080    2.5040    0.0000 O.2     1  LIG1       -0.1527
     34 O          -0.5790    2.4880    0.0000 O.2     1  LIG1       -0.1527
@<TRIPOS>BOND
     1     1     2    1
     2     1    26    1
     3     1    33    2
     4     1    34    2
     5     2     3   ar
     6     2     7   ar
     7     3     4   ar
     8     4     5   ar
     9     4    13    1
    10     5     6   ar
    11     5    12    2
    12     6     7   ar
    13     6    11   ar
    14     7     8   ar
    15     8     9   ar
    16     9    10   ar
    17    10    11   ar
    18    13    14    1
    19    14    15   am
    20    14    25    2
    21    15    16    1
    22    16    17   ar
    23    16    21   ar
    24    17    18   ar
    25    18    19   ar
    26    19    20   ar
    27    19    22    1
    28    20    21   ar
    29    22    23    1
    30    22    24    1
    31    26    27    1
    32    26    31    1
    33    27    28    1
    34    28    29    1
    35    29    30    1
    36    29    32    1
    37    30    31    1
