@<TRIPOS>MOLECULE
35715_ChemDiv_C265-0778
 35 38 0 0 0
SMALL
GASTEIGER
Energy = 0

@<TRIPOS>ATOM
      1 S           1.7130    2.2500    0.0000 S.O2    1  LIG1        0.0647
      2 C           1.7250    1.2500    0.0000 C.ar    1  LIG1        0.1395
      3 C           0.8630    0.7330    0.0000 C.ar    1  LIG1        0.0987
      4 N           0.8630   -0.2540    0.0000 N.ar    1  LIG1       -0.2840
      5 C           1.7380   -0.7500    0.0000 C.ar    1  LIG1        0.2613
      6 C           2.5920   -0.2500    0.0000 C.ar    1  LIG1        0.0575
      7 C           2.5920    0.7500    0.0000 C.ar    1  LIG1        0.0247
      8 C           3.4540    1.2630    0.0000 C.ar    1  LIG1        0.0015
      9 C           4.3290    0.7670    0.0000 C.ar    1  LIG1        0.0000
     10 C           4.3330   -0.2380    0.0000 C.ar    1  LIG1        0.0002
     11 C           3.4710   -0.7420    0.0000 C.ar    1  LIG1        0.0048
     12 O           1.7420   -1.7460    0.0000 O.2     1  LIG1       -0.2670
     13 C           0.0040   -0.7670    0.0000 C.3     1  LIG1        0.1943
     14 C           0.0040   -1.7630    0.0000 C.2     1  LIG1        0.2489
     15 N          -0.8630   -2.2630    0.0000 N.am    1  LIG1       -0.2744
     16 C          -1.7290   -1.7630    0.0000 C.3     1  LIG1        0.1151
     17 C          -2.6040   -2.2630    0.0000 C.3     1  LIG1        0.1182
     18 N          -2.6040   -3.2580    0.0000 N.am    1  LIG1       -0.2425
     19 C          -3.4630   -3.7580    0.0000 C.2     1  LIG1        0.4050
     20 O          -4.3380   -3.2580    0.0000 O.2     1  LIG1       -0.2262
     21 O          -3.4630   -4.7580    0.0000 O.3     1  LIG1       -0.4345
     22 C          -4.3250   -5.2580    0.0000 C.3     1  LIG1        0.2102
     23 C          -4.3250   -6.2580    0.0000 C.3     1  LIG1        0.0513
     24 C          -1.7290   -3.7580    0.0000 C.3     1  LIG1        0.1182
     25 C          -0.8790   -3.2580    0.0000 C.3     1  LIG1        0.1151
     26 O           0.8750   -2.2540    0.0000 O.2     1  LIG1       -0.2728
     27 N           1.7080    3.2500    0.0000 N.3     1  LIG1       -0.1555
     28 C           0.8500    3.7460    0.0000 C.3     1  LIG1        0.0958
     29 C           0.8420    4.7460    0.0000 C.3     1  LIG1        0.0192
     30 C           1.7000    5.2460    0.0000 C.3     1  LIG1        0.0029
     31 C           2.5710    4.7580    0.0000 C.3     1  LIG1        0.0192
     32 C           2.5750    3.7500    0.0000 C.3     1  LIG1        0.0958
     33 C           1.6830    6.2580    0.0000 C.3     1  LIG1        0.0001
     34 O           0.7250    2.2330    0.0000 O.2     1  LIG1       -0.1527
     35 O           2.7130    2.2500    0.0000 O.2     1  LIG1       -0.1527
@<TRIPOS>BOND
     1     1     2    1
     2     1    27    1
     3     1    34    2
     4     1    35    2
     5     2     3   ar
     6     2     7   ar
     7     3     4   ar
     8     4     5   ar
     9     4    13    1
    10     5     6   ar
    11     5    12    2
    12     6     7   ar
    13     6    11   ar
    14     7     8   ar
    15     8     9   ar
    16     9    10   ar
    17    10    11   ar
    18    13    14    1
    19    14    15   am
    20    14    26    2
    21    15    16    1
    22    15    25    1
    23    16    17    1
    24    17    18    1
    25    18    19   am
    26    18    24    1
    27    19    20    2
    28    19    21    1
    29    21    22    1
    30    22    23    1
    31    24    25    1
    32    27    28    1
    33    27    32    1
    34    28    29    1
    35    29    30    1
    36    30    31    1
    37    30    33    1
    38    31    32    1
