@<TRIPOS>MOLECULE
35726_ChemDiv_C105-2577
 27 29 0 0 0
SMALL
GASTEIGER
Energy = 0

@<TRIPOS>ATOM
      1 C           1.8250    3.0040    0.0000 C.ar    1  LIG1        0.1432
      2 S           1.8250    2.0040    0.0000 S.O2    1  LIG1        0.0784
      3 O           0.8290    2.0040    0.0000 O.2     1  LIG1       -0.1515
      4 O           2.8250    2.0040    0.0000 O.2     1  LIG1       -0.1515
      5 N           1.8250    1.0040    0.0000 N.3     1  LIG1       -0.0772
      6 C           0.9750    0.5040    0.0000 C.3     1  LIG1        0.1251
      7 C           0.9750   -0.5000    0.0000 C.3     1  LIG1        0.1079
      8 C           0.1130   -0.9960    0.0000 C.2     1  LIG1        0.2471
      9 N           0.1130   -2.0000    0.0000 N.am    1  LIG1       -0.1792
     10 C          -0.7580   -2.5000    0.0000 C.ar    1  LIG1        0.0733
     11 C          -0.7580   -3.5000    0.0000 C.ar    1  LIG1        0.0163
     12 C          -1.6130   -4.0000    0.0000 C.ar    1  LIG1       -0.0029
     13 C          -2.4920   -3.5000    0.0000 C.ar    1  LIG1       -0.0224
     14 C          -2.4920   -2.5000    0.0000 C.ar    1  LIG1       -0.0029
     15 C          -1.6250   -2.0000    0.0000 C.ar    1  LIG1        0.0163
     16 C          -3.3670   -4.0000    0.0000 C.3     1  LIG1        0.0224
     17 C          -3.3710   -5.0000    0.0000 C.3     1  LIG1        0.0047
     18 C          -4.2330   -3.4960    0.0000 C.3     1  LIG1        0.0047
     19 O          -0.7580   -0.5000    0.0000 O.2     1  LIG1       -0.2729
     20 C           2.6960    3.5040    0.0000 C.ar    1  LIG1        0.1274
     21 N           3.6460    3.2040    0.0000 N.ar    1  LIG1       -0.1888
     22 S           4.2290    4.0000    0.0000 S.2     1  LIG1        0.1165
     23 N           3.6460    4.8080    0.0000 N.ar    1  LIG1       -0.1901
     24 C           2.6960    4.5000    0.0000 C.ar    1  LIG1        0.1102
     25 C           1.8250    5.0000    0.0000 C.ar    1  LIG1        0.0214
     26 C           0.9630    4.5000    0.0000 C.ar    1  LIG1        0.0030
     27 C           0.9630    3.5040    0.0000 C.ar    1  LIG1        0.0216
@<TRIPOS>BOND
     1     1     2    1
     2     1    20   ar
     3     1    27   ar
     4     2     3    2
     5     2     4    2
     6     2     5    1
     7     5     6    1
     8     6     7    1
     9     7     8    1
    10     8     9   am
    11     8    19    2
    12     9    10    1
    13    10    11   ar
    14    10    15   ar
    15    11    12   ar
    16    12    13   ar
    17    13    14   ar
    18    13    16    1
    19    14    15   ar
    20    16    17    1
    21    16    18    1
    22    20    21   ar
    23    20    24   ar
    24    21    22   ar
    25    22    23   ar
    26    23    24   ar
    27    24    25   ar
    28    25    26   ar
    29    26    27   ar
