@<TRIPOS>MOLECULE
35720_ChemDiv_C105-0681
 26 28 0 0 0
SMALL
GASTEIGER
Energy = 0

@<TRIPOS>ATOM
      1 C          -0.6830    3.3210    0.0000 C.ar    1  LIG1        0.1281
      2 C           0.1630    3.8080    0.0000 C.ar    1  LIG1        0.1601
      3 C           0.1630    4.7790    0.0000 C.ar    1  LIG1        0.1444
      4 N           1.0920    5.0920    0.0000 N.ar    1  LIG1       -0.0482
      5 O           1.6670    4.2920    0.0000 O.2     1  LIG1       -0.2415
      6 N           1.0920    3.5130    0.0000 N.ar    1  LIG1       -0.0469
      7 C          -0.6830    5.2710    0.0000 C.ar    1  LIG1        0.0242
      8 C          -1.5250    4.7790    0.0000 C.ar    1  LIG1        0.0031
      9 C          -1.5250    3.8080    0.0000 C.ar    1  LIG1        0.0201
     10 S          -0.6830    2.3460    0.0000 S.O2    1  LIG1        0.0107
     11 C          -0.6830    1.3710    0.0000 C.3     1  LIG1        0.1655
     12 C           0.1630    0.8830    0.0000 C.3     1  LIG1        0.1113
     13 C           0.1540   -0.0920    0.0000 C.2     1  LIG1        0.2312
     14 N          -0.7460   -0.6130    0.0000 N.am    1  LIG1       -0.2568
     15 C          -0.7540   -1.6460    0.0000 C.ar    1  LIG1        0.0541
     16 C          -1.6580   -2.1580    0.0000 C.ar    1  LIG1        0.0180
     17 C          -1.6630   -3.2000    0.0000 C.ar    1  LIG1        0.0382
     18 C          -0.7580   -3.7170    0.0000 C.ar    1  LIG1        0.1388
     19 C           0.1330   -3.2080    0.0000 C.ar    1  LIG1        0.0382
     20 C           0.1330   -2.1630    0.0000 C.ar    1  LIG1        0.0180
     21 O          -0.7710   -4.7500    0.0000 O.3     1  LIG1       -0.4714
     22 C          -1.6710   -5.2710    0.0000 C.3     1  LIG1        0.2525
     23 C          -1.6420   -0.0880    0.0000 C.3     1  LIG1        0.1200
     24 O           1.0000   -0.5920    0.0000 O.2     1  LIG1       -0.2745
     25 O          -1.6580    2.3460    0.0000 O.2     1  LIG1       -0.1686
     26 O           0.2960    2.3460    0.0000 O.2     1  LIG1       -0.1686
@<TRIPOS>BOND
     1     1     2   ar
     2     1     9   ar
     3     1    10    1
     4     2     3   ar
     5     2     6   ar
     6     3     4   ar
     7     3     7   ar
     8     4     5   ar
     9     5     6   ar
    10     7     8   ar
    11     8     9   ar
    12    10    11    1
    13    10    25    2
    14    10    26    2
    15    11    12    1
    16    12    13    1
    17    13    14   am
    18    13    24    2
    19    14    15    1
    20    14    23    1
    21    15    16   ar
    22    15    20   ar
    23    16    17   ar
    24    17    18   ar
    25    18    19   ar
    26    18    21    1
    27    19    20   ar
    28    21    22    1
