@<TRIPOS>MOLECULE
35724_ChemDiv_C105-0875
 32 36 0 0 0
SMALL
GASTEIGER
Energy = 0

@<TRIPOS>ATOM
      1 C           2.3330    1.7540    0.0000 C.ar    1  LIG1        0.1254
      2 C           3.1670    2.2330    0.0000 C.ar    1  LIG1        0.1258
      3 N           4.0920    1.9460    0.0000 N.ar    1  LIG1       -0.1888
      4 S           4.6630    2.7210    0.0000 S.2     1  LIG1        0.1165
      5 N           4.0920    3.5130    0.0000 N.ar    1  LIG1       -0.1901
      6 C           3.1670    3.2040    0.0000 C.ar    1  LIG1        0.1101
      7 C           2.3330    3.6880    0.0000 C.ar    1  LIG1        0.0214
      8 C           1.5000    3.2040    0.0000 C.ar    1  LIG1        0.0030
      9 C           1.5000    2.2330    0.0000 C.ar    1  LIG1        0.0200
     10 S           2.3330    0.7880    0.0000 S.O2    1  LIG1        0.0107
     11 C           2.3330   -0.1790    0.0000 C.3     1  LIG1        0.1655
     12 C           3.1670   -0.6670    0.0000 C.3     1  LIG1        0.1110
     13 C           3.1630   -1.6330    0.0000 C.2     1  LIG1        0.2278
     14 N           2.2710   -2.1460    0.0000 N.am    1  LIG1       -0.2681
     15 C           1.3670   -1.6170    0.0000 C.3     1  LIG1        0.1565
     16 C           0.4830   -2.1290    0.0000 C.3     1  LIG1        0.1610
     17 N           0.4750   -3.1580    0.0000 N.4     1  LIG1        0.3834
     18 C          -0.4130   -3.6670    0.0000 C.3     1  LIG1        0.1664
     19 C          -1.3080   -3.1420    0.0000 C.ar    1  LIG1        0.0376
     20 C          -2.2040   -3.6500    0.0000 C.ar    1  LIG1        0.0416
     21 C          -3.0920   -3.1290    0.0000 C.ar    1  LIG1        0.1763
     22 C          -3.0830   -2.0960    0.0000 C.ar    1  LIG1        0.1764
     23 O          -4.0500   -1.7790    0.0000 O.3     1  LIG1       -0.4346
     24 C          -4.6670   -2.5960    0.0000 C.3     1  LIG1        0.4294
     25 O          -4.0750   -3.4380    0.0000 O.3     1  LIG1       -0.4346
     26 C          -2.1880   -1.5880    0.0000 C.ar    1  LIG1        0.0401
     27 C          -1.3040   -2.1130    0.0000 C.ar    1  LIG1        0.0048
     28 C           1.3670   -3.6830    0.0000 C.3     1  LIG1        0.1610
     29 C           2.2630   -3.1750    0.0000 C.3     1  LIG1        0.1565
     30 O           4.0000   -2.1250    0.0000 O.2     1  LIG1       -0.2748
     31 O           1.3670    0.7880    0.0000 O.2     1  LIG1       -0.1686
     32 O           3.3000    0.7880    0.0000 O.2     1  LIG1       -0.1686
@<TRIPOS>BOND
     1     1     2   ar
     2     1     9   ar
     3     1    10    1
     4     2     3   ar
     5     2     6   ar
     6     3     4   ar
     7     4     5   ar
     8     5     6   ar
     9     6     7   ar
    10     7     8   ar
    11     8     9   ar
    12    10    11    1
    13    10    31    2
    14    10    32    2
    15    11    12    1
    16    12    13    1
    17    13    14   am
    18    13    30    2
    19    14    15    1
    20    14    29    1
    21    15    16    1
    22    16    17    1
    23    17    18    1
    24    17    28    1
    25    18    19    1
    26    19    20   ar
    27    19    27   ar
    28    20    21   ar
    29    21    22   ar
    30    21    25    1
    31    22    23    1
    32    22    26   ar
    33    23    24    1
    34    24    25    1
    35    26    27   ar
    36    28    29    1
