@<TRIPOS>MOLECULE
35733_ChemDiv_C593-0506
 33 36 0 0 0
SMALL
GASTEIGER
Energy = 0

@<TRIPOS>ATOM
      1 C          -1.3000    4.1330    0.0000 C.ar    1  LIG1        0.0735
      2 C          -0.3380    4.1790    0.0000 C.ar    1  LIG1        0.0660
      3 N          -0.0170    3.2920    0.0000 N.ar    1  LIG1       -0.3214
      4 C          -0.6500    2.5500    0.0000 C.ar    1  LIG1        0.1159
      5 C          -1.5420    3.2170    0.0000 C.ar    1  LIG1        0.0281
      6 C          -0.7250    0.8040    0.0000 C.2     1  LIG1        0.2807
      7 O           0.1130    0.3710    0.0000 O.2     1  LIG1       -0.2668
      8 N          -1.5880    0.3080    0.0000 N.am    1  LIG1       -0.2001
      9 C          -1.5880   -0.6920    0.0000 C.3     1  LIG1        0.1202
     10 C          -0.7250   -1.1880    0.0000 C.3     1  LIG1        0.0499
     11 C          -0.7250   -2.1960    0.0000 C.ar    1  LIG1       -0.0172
     12 C           0.1460   -2.7000    0.0000 C.ar    1  LIG1        0.0358
     13 C           0.1460   -3.6960    0.0000 C.ar    1  LIG1        0.1719
     14 C          -0.7250   -4.1920    0.0000 C.ar    1  LIG1        0.1722
     15 C          -1.5880   -3.6960    0.0000 C.ar    1  LIG1        0.0397
     16 C          -1.5880   -2.7000    0.0000 C.ar    1  LIG1       -0.0009
     17 O          -0.7250   -5.2040    0.0000 O.3     1  LIG1       -0.4724
     18 C          -1.5880   -5.7040    0.0000 C.3     1  LIG1        0.2057
     19 C          -1.5880   -6.7000    0.0000 C.3     1  LIG1        0.0512
     20 O           1.0080   -4.2080    0.0000 O.3     1  LIG1       -0.4724
     21 C           1.8830   -3.7040    0.0000 C.3     1  LIG1        0.2057
     22 C           2.7460   -4.2080    0.0000 C.3     1  LIG1        0.0512
     23 C           0.9000    3.0210    0.0000 C.3     1  LIG1        0.1306
     24 C           0.1040    5.0250    0.0000 C.ar    1  LIG1        0.0318
     25 C          -0.4080    5.8250    0.0000 C.ar    1  LIG1        0.0639
     26 N          -1.3630    5.7790    0.0000 N.ar    1  LIG1       -0.2934
     27 C          -1.8000    4.9460    0.0000 C.ar    1  LIG1        0.2623
     28 O          -2.7500    4.9170    0.0000 O.2     1  LIG1       -0.2669
     29 C          -1.8580    6.5920    0.0000 C.3     1  LIG1        0.1335
     30 C           0.0380    6.6540    0.0000 C.ar    1  LIG1        0.0173
     31 C           0.9880    6.7000    0.0000 C.ar    1  LIG1        0.0015
     32 C           1.4920    5.9000    0.0000 C.ar    1  LIG1        0.0001
     33 C           1.0500    5.0540    0.0000 C.ar    1  LIG1        0.0029
@<TRIPOS>BOND
     1     1     2   ar
     2     1     5   ar
     3     1    27   ar
     4     2     3   ar
     5     2    24   ar
     6     3     4   ar
     7     3    23    1
     8     4     5   ar
     9     4     6    1
    10     6     7    2
    11     6     8   am
    12     8     9    1
    13     9    10    1
    14    10    11    1
    15    11    12   ar
    16    11    16   ar
    17    12    13   ar
    18    13    14   ar
    19    13    20    1
    20    14    15   ar
    21    14    17    1
    22    15    16   ar
    23    17    18    1
    24    18    19    1
    25    20    21    1
    26    21    22    1
    27    24    25   ar
    28    24    33   ar
    29    25    26   ar
    30    25    30   ar
    31    26    27   ar
    32    26    29    1
    33    27    28    2
    34    30    31   ar
    35    31    32   ar
    36    32    33   ar
