@<TRIPOS>MOLECULE
35735_ChemDiv_C066-3075
 26 29 0 0 0
SMALL
GASTEIGER
Energy = 0

@<TRIPOS>ATOM
      1 N           1.6170    1.1790    0.0000 N.ar    1  LIG1       -0.1786
      2 C           0.6630    1.4790    0.0000 C.ar    1  LIG1        0.1694
      3 C           0.6540    2.4830    0.0000 C.ar    1  LIG1        0.0724
      4 C           1.6040    2.8000    0.0000 C.ar    1  LIG1        0.1924
      5 N           2.2000    1.9960    0.0000 N.ar    1  LIG1       -0.1429
      6 N           1.9040    3.7580    0.0000 N.pl3   1  LIG1       -0.1053
      7 C          -0.2170    2.9750    0.0000 C.ar    1  LIG1        0.0075
      8 C          -1.0790    2.4750    0.0000 C.ar    1  LIG1        0.0181
      9 C          -1.0710    1.4710    0.0000 C.ar    1  LIG1        0.0860
     10 N          -0.2080    0.9750    0.0000 N.ar    1  LIG1       -0.2263
     11 C          -1.9380    0.9670    0.0000 C.ar    1  LIG1        0.0560
     12 C          -2.8040    1.4670    0.0000 C.ar    1  LIG1        0.1402
     13 C          -2.8040    2.4670    0.0000 C.ar    1  LIG1        0.0370
     14 C          -1.9420    2.9710    0.0000 C.ar    1  LIG1        0.0046
     15 O          -3.6710    0.9670    0.0000 O.3     1  LIG1       -0.4714
     16 C          -4.5330    0.4710    0.0000 C.3     1  LIG1        0.2525
     17 C           1.9330    0.2330    0.0000 C.2     1  LIG1        0.2626
     18 C           2.9170    0.0330    0.0000 C.3     1  LIG1        0.1163
     19 C           3.2290   -0.9170    0.0000 C.ar    1  LIG1       -0.0127
     20 C           2.5670   -1.6540    0.0000 C.ar    1  LIG1       -0.0029
     21 C           2.8790   -2.6080    0.0000 C.ar    1  LIG1        0.0111
     22 C           3.8670   -2.8040    0.0000 C.ar    1  LIG1        0.0577
     23 CL          4.1830   -3.7540    0.0000 Cl      1  LIG1       -0.0822
     24 C           4.5290   -2.0500    0.0000 C.ar    1  LIG1        0.0111
     25 C           4.2040   -1.1080    0.0000 C.ar    1  LIG1       -0.0029
     26 O           1.2750   -0.5170    0.0000 O.2     1  LIG1       -0.2697
@<TRIPOS>BOND
     1     1     2   ar
     2     1     5   ar
     3     1    17   am
     4     2     3   ar
     5     2    10   ar
     6     3     4   ar
     7     3     7   ar
     8     4     5   ar
     9     4     6    1
    10     7     8   ar
    11     8     9   ar
    12     8    14   ar
    13     9    10   ar
    14     9    11   ar
    15    11    12   ar
    16    12    13   ar
    17    12    15    1
    18    13    14   ar
    19    15    16    1
    20    17    18    1
    21    17    26    2
    22    18    19    1
    23    19    20   ar
    24    19    25   ar
    25    20    21   ar
    26    21    22   ar
    27    22    23    1
    28    22    24   ar
    29    24    25   ar
