@<TRIPOS>MOLECULE
35739_ChemDiv_C594-0052
 27 30 0 0 0
SMALL
GASTEIGER
Energy = 0

@<TRIPOS>ATOM
      1 N          -0.2170   -1.2880    0.0000 N.ar    1  LIG1       -0.1786
      2 C           0.6630   -0.8330    0.0000 C.ar    1  LIG1        0.1694
      3 C           1.3500   -1.5250    0.0000 C.ar    1  LIG1        0.0724
      4 C           0.9000   -2.4000    0.0000 C.ar    1  LIG1        0.1924
      5 N          -0.0580   -2.2880    0.0000 N.ar    1  LIG1       -0.1429
      6 N           1.3630   -3.3080    0.0000 N.pl3   1  LIG1       -0.1053
      7 C           2.3250   -1.2670    0.0000 C.ar    1  LIG1        0.0075
      8 C           2.5830   -0.3080    0.0000 C.ar    1  LIG1        0.0181
      9 C           1.8790    0.3960    0.0000 C.ar    1  LIG1        0.0860
     10 N           0.9210    0.1380    0.0000 N.ar    1  LIG1       -0.2263
     11 C           2.1380    1.3540    0.0000 C.ar    1  LIG1        0.0560
     12 C           3.1080    1.6130    0.0000 C.ar    1  LIG1        0.1402
     13 C           3.8000    0.9250    0.0000 C.ar    1  LIG1        0.0370
     14 C           3.5420   -0.0500    0.0000 C.ar    1  LIG1        0.0046
     15 O           3.4000    2.5830    0.0000 O.3     1  LIG1       -0.4714
     16 C           2.7040    3.3130    0.0000 C.3     1  LIG1        0.2525
     17 C          -1.1130   -0.8170    0.0000 C.2     1  LIG1        0.2627
     18 C          -1.1540    0.1960    0.0000 C.3     1  LIG1        0.1193
     19 C          -2.0380    0.6670    0.0000 C.ar    1  LIG1        0.0212
     20 C          -2.8920    0.1330    0.0000 C.ar    1  LIG1        0.1352
     21 O          -2.8750   -0.8710    0.0000 O.3     1  LIG1       -0.4717
     22 C          -3.7290   -1.3880    0.0000 C.3     1  LIG1        0.2525
     23 C          -3.7750    0.6130    0.0000 C.ar    1  LIG1        0.0366
     24 C          -3.8040    1.6170    0.0000 C.ar    1  LIG1        0.0031
     25 C          -2.9500    2.1460    0.0000 C.ar    1  LIG1       -0.0001
     26 C          -2.0670    1.6710    0.0000 C.ar    1  LIG1       -0.0008
     27 O          -1.9670   -1.3500    0.0000 O.2     1  LIG1       -0.2697
@<TRIPOS>BOND
     1     1     2   ar
     2     1     5   ar
     3     1    17   am
     4     2     3   ar
     5     2    10   ar
     6     3     4   ar
     7     3     7   ar
     8     4     5   ar
     9     4     6    1
    10     7     8   ar
    11     8     9   ar
    12     8    14   ar
    13     9    10   ar
    14     9    11   ar
    15    11    12   ar
    16    12    13   ar
    17    12    15    1
    18    13    14   ar
    19    15    16    1
    20    17    18    1
    21    17    27    2
    22    18    19    1
    23    19    20   ar
    24    19    26   ar
    25    20    21    1
    26    20    23   ar
    27    21    22    1
    28    23    24   ar
    29    24    25   ar
    30    25    26   ar
