@<TRIPOS>MOLECULE
35731_ChemDiv_C593-0473
 30 34 0 0 0
SMALL
GASTEIGER
Energy = 0

@<TRIPOS>ATOM
      1 C           0.9000    2.1380    0.0000 C.ar    1  LIG1        0.0735
      2 C           1.8630    2.1830    0.0000 C.ar    1  LIG1        0.0660
      3 N           2.1880    1.2920    0.0000 N.ar    1  LIG1       -0.3215
      4 C           1.5500    0.5500    0.0000 C.ar    1  LIG1        0.1144
      5 C           0.6580    1.2170    0.0000 C.ar    1  LIG1        0.0280
      6 C           1.4750   -1.1960    0.0000 C.2     1  LIG1        0.2650
      7 N           0.6170   -1.6960    0.0000 N.am    1  LIG1       -0.2714
      8 C           0.6170   -2.6920    0.0000 C.3     1  LIG1        0.1153
      9 C          -0.2460   -3.1920    0.0000 C.3     1  LIG1        0.1151
     10 N          -1.1210   -2.6920    0.0000 N.pl3   1  LIG1       -0.2747
     11 C          -1.9630   -3.1920    0.0000 C.ar    1  LIG1        0.2203
     12 N          -2.8330   -2.6920    0.0000 N.ar    1  LIG1       -0.2121
     13 C          -3.7000   -3.1920    0.0000 C.ar    1  LIG1        0.1034
     14 C          -3.7000   -4.1960    0.0000 C.ar    1  LIG1        0.0414
     15 C          -2.8330   -4.7000    0.0000 C.ar    1  LIG1        0.1034
     16 N          -1.9630   -4.1960    0.0000 N.ar    1  LIG1       -0.2121
     17 C          -1.1210   -1.6960    0.0000 C.3     1  LIG1        0.1151
     18 C          -0.2500   -1.1960    0.0000 C.3     1  LIG1        0.1153
     19 O           2.3170   -1.6290    0.0000 O.2     1  LIG1       -0.2683
     20 C           3.1000    1.0210    0.0000 C.3     1  LIG1        0.1306
     21 C           2.3080    3.0290    0.0000 C.ar    1  LIG1        0.0318
     22 C           1.7920    3.8290    0.0000 C.ar    1  LIG1        0.0639
     23 N           0.8420    3.7830    0.0000 N.ar    1  LIG1       -0.2934
     24 C           0.4040    2.9540    0.0000 C.ar    1  LIG1        0.2623
     25 O          -0.5500    2.9210    0.0000 O.2     1  LIG1       -0.2669
     26 C           0.3420    4.5960    0.0000 C.3     1  LIG1        0.1335
     27 C           2.2420    4.6540    0.0000 C.ar    1  LIG1        0.0173
     28 C           3.1920    4.7000    0.0000 C.ar    1  LIG1        0.0015
     29 C           3.6960    3.9040    0.0000 C.ar    1  LIG1        0.0001
     30 C           3.2540    3.0580    0.0000 C.ar    1  LIG1        0.0029
@<TRIPOS>BOND
     1     1     2   ar
     2     1     5   ar
     3     1    24   ar
     4     2     3   ar
     5     2    21   ar
     6     3     4   ar
     7     3    20    1
     8     4     5   ar
     9     4     6    1
    10     6     7   am
    11     6    19    2
    12     7     8    1
    13     7    18    1
    14     8     9    1
    15     9    10    1
    16    10    11    1
    17    10    17    1
    18    11    12   ar
    19    11    16   ar
    20    12    13   ar
    21    13    14   ar
    22    14    15   ar
    23    15    16   ar
    24    17    18    1
    25    21    22   ar
    26    21    30   ar
    27    22    23   ar
    28    22    27   ar
    29    23    24   ar
    30    23    26    1
    31    24    25    2
    32    27    28   ar
    33    28    29   ar
    34    29    30   ar
