@<TRIPOS>MOLECULE
35743_ChemDiv_C594-0069
 27 30 0 0 0
SMALL
GASTEIGER
Energy = 0

@<TRIPOS>ATOM
      1 N           0.2420   -1.2830    0.0000 N.ar    1  LIG1       -0.1786
      2 C           1.1210   -0.8330    0.0000 C.ar    1  LIG1        0.1694
      3 C           1.8080   -1.5250    0.0000 C.ar    1  LIG1        0.0724
      4 C           1.3580   -2.4000    0.0000 C.ar    1  LIG1        0.1924
      5 N           0.4000   -2.2830    0.0000 N.ar    1  LIG1       -0.1429
      6 N           1.8170   -3.3040    0.0000 N.pl3   1  LIG1       -0.1053
      7 C           2.7790   -1.2670    0.0000 C.ar    1  LIG1        0.0075
      8 C           3.0380   -0.3080    0.0000 C.ar    1  LIG1        0.0181
      9 C           2.3330    0.3960    0.0000 C.ar    1  LIG1        0.0860
     10 N           1.3790    0.1380    0.0000 N.ar    1  LIG1       -0.2263
     11 C           2.5920    1.3540    0.0000 C.ar    1  LIG1        0.0560
     12 C           3.5670    1.6130    0.0000 C.ar    1  LIG1        0.1402
     13 C           4.2540    0.9250    0.0000 C.ar    1  LIG1        0.0370
     14 C           3.9960   -0.0500    0.0000 C.ar    1  LIG1        0.0046
     15 O           3.8540    2.5790    0.0000 O.3     1  LIG1       -0.4714
     16 C           3.1630    3.3080    0.0000 C.3     1  LIG1        0.2525
     17 C          -0.6540   -0.8130    0.0000 C.2     1  LIG1        0.2626
     18 C          -0.6920    0.1960    0.0000 C.3     1  LIG1        0.1163
     19 C          -1.5750    0.6670    0.0000 C.ar    1  LIG1       -0.0126
     20 C          -1.6040    1.6670    0.0000 C.ar    1  LIG1       -0.0007
     21 C          -2.4880    2.1460    0.0000 C.ar    1  LIG1        0.0366
     22 C          -3.3460    1.6170    0.0000 C.ar    1  LIG1        0.1387
     23 C          -3.3130    0.6080    0.0000 C.ar    1  LIG1        0.0366
     24 C          -2.4330    0.1330    0.0000 C.ar    1  LIG1       -0.0007
     25 O          -4.2380    2.1040    0.0000 O.3     1  LIG1       -0.4714
     26 C          -4.2580    3.1170    0.0000 C.3     1  LIG1        0.2525
     27 O          -1.5040   -1.3460    0.0000 O.2     1  LIG1       -0.2697
@<TRIPOS>BOND
     1     1     2   ar
     2     1     5   ar
     3     1    17   am
     4     2     3   ar
     5     2    10   ar
     6     3     4   ar
     7     3     7   ar
     8     4     5   ar
     9     4     6    1
    10     7     8   ar
    11     8     9   ar
    12     8    14   ar
    13     9    10   ar
    14     9    11   ar
    15    11    12   ar
    16    12    13   ar
    17    12    15    1
    18    13    14   ar
    19    15    16    1
    20    17    18    1
    21    17    27    2
    22    18    19    1
    23    19    20   ar
    24    19    24   ar
    25    20    21   ar
    26    21    22   ar
    27    22    23   ar
    28    22    25    1
    29    23    24   ar
    30    25    26    1
