@<TRIPOS>MOLECULE
35765_ChemDiv_C066-3140
 28 31 0 0 0
SMALL
GASTEIGER
Energy = 0

@<TRIPOS>ATOM
      1 N           2.4380    1.0420    0.0000 N.ar    1  LIG1       -0.1753
      2 C           1.4920    1.3540    0.0000 C.ar    1  LIG1        0.1697
      3 C           1.4920    2.3540    0.0000 C.ar    1  LIG1        0.0725
      4 C           2.4380    2.6580    0.0000 C.ar    1  LIG1        0.1925
      5 N           3.0290    1.8460    0.0000 N.ar    1  LIG1       -0.1427
      6 N           2.7500    3.6130    0.0000 N.pl3   1  LIG1       -0.1053
      7 C           0.6170    2.8540    0.0000 C.ar    1  LIG1        0.0075
      8 C          -0.2460    2.3460    0.0000 C.ar    1  LIG1        0.0181
      9 C          -0.2460    1.3540    0.0000 C.ar    1  LIG1        0.0860
     10 N           0.6170    0.8540    0.0000 N.ar    1  LIG1       -0.2263
     11 C          -1.1130    0.8540    0.0000 C.ar    1  LIG1        0.0560
     12 C          -1.9750    1.3540    0.0000 C.ar    1  LIG1        0.1402
     13 C          -1.9750    2.3460    0.0000 C.ar    1  LIG1        0.0370
     14 C          -1.1130    2.8540    0.0000 C.ar    1  LIG1        0.0046
     15 O          -2.8540    0.8380    0.0000 O.3     1  LIG1       -0.4714
     16 C          -3.7250    1.3380    0.0000 C.3     1  LIG1        0.2525
     17 C           2.7500    0.0880    0.0000 C.2     1  LIG1        0.2816
     18 C           2.0750   -0.6460    0.0000 C.ar    1  LIG1        0.0579
     19 C           2.3750   -1.6040    0.0000 C.ar    1  LIG1        0.0045
     20 C           1.7080   -2.3290    0.0000 C.ar    1  LIG1       -0.0041
     21 C           0.7380   -2.1170    0.0000 C.ar    1  LIG1       -0.0228
     22 C           0.0710   -2.8630    0.0000 C.3     1  LIG1        0.0189
     23 C          -0.5960   -3.6080    0.0000 C.3     1  LIG1        0.0044
     24 C           0.8250   -3.5290    0.0000 C.3     1  LIG1        0.0044
     25 C          -0.6710   -2.1960    0.0000 C.3     1  LIG1        0.0044
     26 C           0.4290   -1.1750    0.0000 C.ar    1  LIG1       -0.0041
     27 C           1.1040   -0.4330    0.0000 C.ar    1  LIG1        0.0045
     28 O           3.7210   -0.1250    0.0000 O.2     1  LIG1       -0.2651
@<TRIPOS>BOND
     1     1     2   ar
     2     1     5   ar
     3     1    17   am
     4     2     3   ar
     5     2    10   ar
     6     3     4   ar
     7     3     7   ar
     8     4     5   ar
     9     4     6    1
    10     7     8   ar
    11     8     9   ar
    12     8    14   ar
    13     9    10   ar
    14     9    11   ar
    15    11    12   ar
    16    12    13   ar
    17    12    15    1
    18    13    14   ar
    19    15    16    1
    20    17    18    1
    21    17    28    2
    22    18    19   ar
    23    18    27   ar
    24    19    20   ar
    25    20    21   ar
    26    21    22    1
    27    21    26   ar
    28    22    23    1
    29    22    24    1
    30    22    25    1
    31    26    27   ar
