@<TRIPOS>MOLECULE
35761_ChemDiv_C594-0115
 28 32 0 0 0
SMALL
GASTEIGER
Energy = 0

@<TRIPOS>ATOM
      1 N           0.2710   -1.2880    0.0000 N.ar    1  LIG1       -0.1786
      2 C           1.1460   -0.8330    0.0000 C.ar    1  LIG1        0.1694
      3 C           1.8380   -1.5250    0.0000 C.ar    1  LIG1        0.0724
      4 C           1.3830   -2.4000    0.0000 C.ar    1  LIG1        0.1924
      5 N           0.4250   -2.2880    0.0000 N.ar    1  LIG1       -0.1429
      6 N           1.8460   -3.3080    0.0000 N.pl3   1  LIG1       -0.1053
      7 C           2.8080   -1.2670    0.0000 C.ar    1  LIG1        0.0075
      8 C           3.0710   -0.3080    0.0000 C.ar    1  LIG1        0.0181
      9 C           2.3630    0.3960    0.0000 C.ar    1  LIG1        0.0860
     10 N           1.4040    0.1420    0.0000 N.ar    1  LIG1       -0.2263
     11 C           2.6210    1.3580    0.0000 C.ar    1  LIG1        0.0560
     12 C           3.5960    1.6170    0.0000 C.ar    1  LIG1        0.1402
     13 C           4.2880    0.9250    0.0000 C.ar    1  LIG1        0.0370
     14 C           4.0290   -0.0460    0.0000 C.ar    1  LIG1        0.0046
     15 O           3.8880    2.5830    0.0000 O.3     1  LIG1       -0.4714
     16 C           3.1920    3.3130    0.0000 C.3     1  LIG1        0.2525
     17 C          -0.6290   -0.8170    0.0000 C.2     1  LIG1        0.2627
     18 C          -0.6670    0.1960    0.0000 C.3     1  LIG1        0.1179
     19 C          -1.5500    0.6670    0.0000 C.ar    1  LIG1        0.0078
     20 C          -1.7920    1.6420    0.0000 C.ar    1  LIG1        0.0951
     21 N          -2.7880    1.7170    0.0000 N.ar    1  LIG1       -0.2442
     22 C          -3.1750    0.7830    0.0000 C.ar    1  LIG1        0.0811
     23 C          -2.4080    0.1330    0.0000 C.ar    1  LIG1        0.0157
     24 C          -2.5880   -0.8500    0.0000 C.ar    1  LIG1        0.0012
     25 C          -3.5250   -1.1920    0.0000 C.ar    1  LIG1        0.0001
     26 C          -4.2920   -0.5380    0.0000 C.ar    1  LIG1        0.0015
     27 C          -4.1130    0.4500    0.0000 C.ar    1  LIG1        0.0191
     28 O          -1.4830   -1.3460    0.0000 O.2     1  LIG1       -0.2697
@<TRIPOS>BOND
     1     1     2   ar
     2     1     5   ar
     3     1    17   am
     4     2     3   ar
     5     2    10   ar
     6     3     4   ar
     7     3     7   ar
     8     4     5   ar
     9     4     6    1
    10     7     8   ar
    11     8     9   ar
    12     8    14   ar
    13     9    10   ar
    14     9    11   ar
    15    11    12   ar
    16    12    13   ar
    17    12    15    1
    18    13    14   ar
    19    15    16    1
    20    17    18    1
    21    17    28    2
    22    18    19    1
    23    19    20   ar
    24    19    23   ar
    25    20    21   ar
    26    21    22   ar
    27    22    23   ar
    28    22    27   ar
    29    23    24   ar
    30    24    25   ar
    31    25    26   ar
    32    26    27   ar
