@<TRIPOS>MOLECULE
35763_ChemDiv_C066-3119
 30 33 0 0 0
SMALL
GASTEIGER
Energy = 0

@<TRIPOS>ATOM
      1 C           1.5420    1.1460    0.0000 C.ar    1  LIG1        0.1859
      2 N           2.4040    1.6460    0.0000 N.ar    1  LIG1       -0.2225
      3 C           2.1920    2.6290    0.0000 C.ar    1  LIG1        0.0895
      4 C           1.2040    2.7210    0.0000 C.ar    1  LIG1        0.0528
      5 S           0.8000    1.8290    0.0000 S.2     1  LIG1       -0.0496
      6 C           0.7830    3.6290    0.0000 C.ar    1  LIG1        0.0450
      7 C           1.3580    4.4460    0.0000 C.ar    1  LIG1        0.1391
      8 C           2.3580    4.3540    0.0000 C.ar    1  LIG1        0.0385
      9 C           2.7750    3.4500    0.0000 C.ar    1  LIG1        0.0228
     10 O           0.9500    5.3540    0.0000 O.3     1  LIG1       -0.4754
     11 C          -0.0500    5.4580    0.0000 C.3     1  LIG1        0.2055
     12 C          -0.4630    6.3630    0.0000 C.3     1  LIG1        0.0512
     13 N           1.5420    0.1460    0.0000 N.am    1  LIG1       -0.1511
     14 C           0.6790   -0.3540    0.0000 C.2     1  LIG1        0.2918
     15 O          -0.1880    0.1460    0.0000 O.2     1  LIG1       -0.2689
     16 C           0.6790   -1.3630    0.0000 C.3     1  LIG1        0.2916
     17 O          -0.1880   -1.8630    0.0000 O.3     1  LIG1       -0.4653
     18 C          -0.1880   -2.8630    0.0000 C.ar    1  LIG1        0.1453
     19 C           0.6880   -3.3630    0.0000 C.ar    1  LIG1        0.0976
     20 C           0.6880   -4.3630    0.0000 C.ar    1  LIG1        0.2640
     21 N          -0.1880   -4.8630    0.0000 N.ar    1  LIG1       -0.2953
     22 C          -1.0500   -4.3630    0.0000 C.ar    1  LIG1        0.0653
     23 C          -1.0500   -3.3630    0.0000 C.ar    1  LIG1        0.0500
     24 C          -1.9130   -2.8630    0.0000 C.ar    1  LIG1        0.0045
     25 C          -2.7790   -3.3630    0.0000 C.ar    1  LIG1        0.0002
     26 C          -2.7790   -4.3630    0.0000 C.ar    1  LIG1        0.0015
     27 C          -1.9130   -4.8630    0.0000 C.ar    1  LIG1        0.0174
     28 C          -0.1880   -5.8630    0.0000 C.3     1  LIG1        0.1091
     29 C           0.6790   -6.3630    0.0000 C.3     1  LIG1        0.0266
     30 O           1.5540   -4.8710    0.0000 O.2     1  LIG1       -0.2669
@<TRIPOS>BOND
     1     1     2   ar
     2     1     5   ar
     3     1    13    1
     4     2     3   ar
     5     3     4   ar
     6     3     9   ar
     7     4     5   ar
     8     4     6   ar
     9     6     7   ar
    10     7     8   ar
    11     7    10    1
    12     8     9   ar
    13    10    11    1
    14    11    12    1
    15    13    14   am
    16    14    15    2
    17    14    16    1
    18    16    17    1
    19    17    18    1
    20    18    19   ar
    21    18    23   ar
    22    19    20   ar
    23    20    21   ar
    24    20    30    2
    25    21    22   ar
    26    21    28    1
    27    22    23   ar
    28    22    27   ar
    29    23    24   ar
    30    24    25   ar
    31    25    26   ar
    32    26    27   ar
    33    28    29    1
