@<TRIPOS>MOLECULE
35767_ChemDiv_C594-0003
 24 27 0 0 0
SMALL
GASTEIGER
Energy = 0

@<TRIPOS>ATOM
      1 N          -0.2670   -1.2830    0.0000 N.ar    1  LIG1       -0.1753
      2 C           0.6130   -0.8330    0.0000 C.ar    1  LIG1        0.1697
      3 C           1.3000   -1.5250    0.0000 C.ar    1  LIG1        0.0725
      4 C           0.8500   -2.4000    0.0000 C.ar    1  LIG1        0.1925
      5 N          -0.1080   -2.2830    0.0000 N.ar    1  LIG1       -0.1427
      6 N           1.3130   -3.3080    0.0000 N.pl3   1  LIG1       -0.1053
      7 C           2.2750   -1.2630    0.0000 C.ar    1  LIG1        0.0075
      8 C           2.5330   -0.3040    0.0000 C.ar    1  LIG1        0.0181
      9 C           1.8290    0.4000    0.0000 C.ar    1  LIG1        0.0860
     10 N           0.8710    0.1380    0.0000 N.ar    1  LIG1       -0.2263
     11 C           2.0880    1.3580    0.0000 C.ar    1  LIG1        0.0560
     12 C           3.0630    1.6170    0.0000 C.ar    1  LIG1        0.1402
     13 C           3.7540    0.9290    0.0000 C.ar    1  LIG1        0.0370
     14 C           3.4920   -0.0460    0.0000 C.ar    1  LIG1        0.0046
     15 O           3.3500    2.5830    0.0000 O.3     1  LIG1       -0.4714
     16 C           2.6580    3.3130    0.0000 C.3     1  LIG1        0.2525
     17 C          -1.1630   -0.8130    0.0000 C.2     1  LIG1        0.2817
     18 O          -1.2040    0.1960    0.0000 O.2     1  LIG1       -0.2651
     19 C          -2.0170   -1.3460    0.0000 C.ar    1  LIG1        0.0610
     20 C          -1.9750   -2.3500    0.0000 C.ar    1  LIG1        0.0255
     21 C          -2.8210   -2.8830    0.0000 C.ar    1  LIG1        0.0990
     22 N          -3.7130   -2.4210    0.0000 N.ar    1  LIG1       -0.2423
     23 C          -3.7580   -1.4130    0.0000 C.ar    1  LIG1        0.0990
     24 C          -2.9040   -0.8750    0.0000 C.ar    1  LIG1        0.0255
@<TRIPOS>BOND
     1     1     2   ar
     2     1     5   ar
     3     1    17   am
     4     2     3   ar
     5     2    10   ar
     6     3     4   ar
     7     3     7   ar
     8     4     5   ar
     9     4     6    1
    10     7     8   ar
    11     8     9   ar
    12     8    14   ar
    13     9    10   ar
    14     9    11   ar
    15    11    12   ar
    16    12    13   ar
    17    12    15    1
    18    13    14   ar
    19    15    16    1
    20    17    18    2
    21    17    19    1
    22    19    20   ar
    23    19    24   ar
    24    20    21   ar
    25    21    22   ar
    26    22    23   ar
    27    23    24   ar
