@<TRIPOS>MOLECULE
35775_ChemDiv_C594-0010
 25 28 0 0 0
SMALL
GASTEIGER
Energy = 0

@<TRIPOS>ATOM
      1 N           0.1420   -1.2830    0.0000 N.ar    1  LIG1       -0.1753
      2 C           1.0170   -0.8330    0.0000 C.ar    1  LIG1        0.1697
      3 C           1.7080   -1.5210    0.0000 C.ar    1  LIG1        0.0725
      4 C           1.2540   -2.4000    0.0000 C.ar    1  LIG1        0.1925
      5 N           0.3000   -2.2830    0.0000 N.ar    1  LIG1       -0.1427
      6 N           1.7170   -3.3080    0.0000 N.pl3   1  LIG1       -0.1053
      7 C           2.6790   -1.2630    0.0000 C.ar    1  LIG1        0.0075
      8 C           2.9380   -0.3040    0.0000 C.ar    1  LIG1        0.0181
      9 C           2.2330    0.4000    0.0000 C.ar    1  LIG1        0.0860
     10 N           1.2750    0.1380    0.0000 N.ar    1  LIG1       -0.2263
     11 C           2.4960    1.3580    0.0000 C.ar    1  LIG1        0.0560
     12 C           3.4670    1.6170    0.0000 C.ar    1  LIG1        0.1402
     13 C           4.1580    0.9250    0.0000 C.ar    1  LIG1        0.0370
     14 C           3.8960   -0.0460    0.0000 C.ar    1  LIG1        0.0046
     15 O           3.7540    2.5830    0.0000 O.3     1  LIG1       -0.4714
     16 C           3.0630    3.3130    0.0000 C.3     1  LIG1        0.2525
     17 C          -0.7540   -0.8130    0.0000 C.2     1  LIG1        0.2816
     18 C          -1.6080   -1.3460    0.0000 C.ar    1  LIG1        0.0581
     19 C          -1.5670   -2.3500    0.0000 C.ar    1  LIG1        0.0071
     20 C          -2.4130   -2.8830    0.0000 C.ar    1  LIG1        0.0298
     21 C          -3.3040   -2.4210    0.0000 C.ar    1  LIG1        0.1401
     22 C          -3.3460   -1.4130    0.0000 C.ar    1  LIG1        0.0298
     23 C          -2.4960   -0.8750    0.0000 C.ar    1  LIG1        0.0071
     24 F          -4.1630   -2.9710    0.0000 F       1  LIG1       -0.2042
     25 O          -0.7960    0.1960    0.0000 O.2     1  LIG1       -0.2651
@<TRIPOS>BOND
     1     1     2   ar
     2     1     5   ar
     3     1    17   am
     4     2     3   ar
     5     2    10   ar
     6     3     4   ar
     7     3     7   ar
     8     4     5   ar
     9     4     6    1
    10     7     8   ar
    11     8     9   ar
    12     8    14   ar
    13     9    10   ar
    14     9    11   ar
    15    11    12   ar
    16    12    13   ar
    17    12    15    1
    18    13    14   ar
    19    15    16    1
    20    17    18    1
    21    17    25    2
    22    18    19   ar
    23    18    23   ar
    24    19    20   ar
    25    20    21   ar
    26    21    22   ar
    27    21    24    1
    28    22    23   ar
