@<TRIPOS>MOLECULE
35773_ChemDiv_C594-0007
 25 28 0 0 0
SMALL
GASTEIGER
Energy = 0

@<TRIPOS>ATOM
      1 N          -0.2670   -0.9960    0.0000 N.ar    1  LIG1       -0.1753
      2 C           0.6130   -0.5460    0.0000 C.ar    1  LIG1        0.1697
      3 C           1.3000   -1.2380    0.0000 C.ar    1  LIG1        0.0725
      4 C           0.8500   -2.1130    0.0000 C.ar    1  LIG1        0.1925
      5 N          -0.1080   -1.9960    0.0000 N.ar    1  LIG1       -0.1427
      6 N           1.3130   -3.0210    0.0000 N.pl3   1  LIG1       -0.1053
      7 C           2.2750   -0.9750    0.0000 C.ar    1  LIG1        0.0075
      8 C           2.5330   -0.0170    0.0000 C.ar    1  LIG1        0.0181
      9 C           1.8290    0.6880    0.0000 C.ar    1  LIG1        0.0860
     10 N           0.8710    0.4290    0.0000 N.ar    1  LIG1       -0.2263
     11 C           2.0880    1.6460    0.0000 C.ar    1  LIG1        0.0560
     12 C           3.0630    1.9040    0.0000 C.ar    1  LIG1        0.1402
     13 C           3.7540    1.2130    0.0000 C.ar    1  LIG1        0.0370
     14 C           3.4920    0.2420    0.0000 C.ar    1  LIG1        0.0046
     15 O           3.3500    2.8750    0.0000 O.3     1  LIG1       -0.4714
     16 C           2.6580    3.6040    0.0000 C.3     1  LIG1        0.2525
     17 C          -1.1630   -0.5250    0.0000 C.2     1  LIG1        0.2816
     18 C          -2.0170   -1.0580    0.0000 C.ar    1  LIG1        0.0588
     19 C          -1.9750   -2.0630    0.0000 C.ar    1  LIG1        0.0162
     20 C          -2.8210   -2.5960    0.0000 C.ar    1  LIG1        0.0578
     21 CL         -2.7830   -3.6000    0.0000 Cl      1  LIG1       -0.0822
     22 C          -3.7130   -2.1330    0.0000 C.ar    1  LIG1        0.0114
     23 C          -3.7580   -1.1250    0.0000 C.ar    1  LIG1        0.0010
     24 C          -2.9040   -0.5880    0.0000 C.ar    1  LIG1        0.0048
     25 O          -1.2040    0.4830    0.0000 O.2     1  LIG1       -0.2651
@<TRIPOS>BOND
     1     1     2   ar
     2     1     5   ar
     3     1    17   am
     4     2     3   ar
     5     2    10   ar
     6     3     4   ar
     7     3     7   ar
     8     4     5   ar
     9     4     6    1
    10     7     8   ar
    11     8     9   ar
    12     8    14   ar
    13     9    10   ar
    14     9    11   ar
    15    11    12   ar
    16    12    13   ar
    17    12    15    1
    18    13    14   ar
    19    15    16    1
    20    17    18    1
    21    17    25    2
    22    18    19   ar
    23    18    24   ar
    24    19    20   ar
    25    20    21    1
    26    20    22   ar
    27    22    23   ar
    28    23    24   ar
