@<TRIPOS>MOLECULE
35788_ChemDiv_C114-0028
 34 38 0 0 0
SMALL
GASTEIGER
Energy = 0

@<TRIPOS>ATOM
      1 S          -2.6960   -1.6540    0.0000 S.O2    1  LIG1        0.0795
      2 N          -2.1290   -0.8540    0.0000 N.am    1  LIG1       -0.1469
      3 C          -2.6960   -0.0420    0.0000 C.2     1  LIG1        0.2693
      4 C          -3.6580   -0.3460    0.0000 C.ar    1  LIG1        0.0739
      5 C          -3.6580   -1.3540    0.0000 C.ar    1  LIG1        0.1299
      6 C          -4.5080   -1.8460    0.0000 C.ar    1  LIG1        0.0203
      7 C          -5.3790   -1.3540    0.0000 C.ar    1  LIG1        0.0014
      8 C          -5.3790   -0.3630    0.0000 C.ar    1  LIG1        0.0002
      9 C          -4.5080    0.1460    0.0000 C.ar    1  LIG1        0.0059
     10 O          -2.3670    0.9170    0.0000 O.2     1  LIG1       -0.2683
     11 C          -1.1380   -0.8750    0.0000 C.3     1  LIG1        0.2037
     12 C          -0.6290   -0.0130    0.0000 C.2     1  LIG1        0.2482
     13 N           0.3830   -0.0330    0.0000 N.am    1  LIG1       -0.2667
     14 C           0.8710    0.8580    0.0000 C.3     1  LIG1        0.1565
     15 C           1.8630    0.8580    0.0000 C.3     1  LIG1        0.1612
     16 N           2.3710   -0.0130    0.0000 N.4     1  LIG1        0.3820
     17 C           3.3630   -0.0130    0.0000 C.3     1  LIG1        0.1331
     18 C           3.8750    0.8580    0.0000 C.ar    1  LIG1        0.0328
     19 C           3.3630    1.7290    0.0000 C.ar    1  LIG1        0.0016
     20 C           3.8750    2.6000    0.0000 C.ar    1  LIG1       -0.0001
     21 C           4.8630    2.6000    0.0000 C.ar    1  LIG1       -0.0000
     22 C           5.3750    1.7290    0.0000 C.ar    1  LIG1       -0.0001
     23 C           4.8630    0.8580    0.0000 C.ar    1  LIG1        0.0016
     24 C           3.8750   -0.8750    0.0000 C.ar    1  LIG1        0.0328
     25 C           3.3630   -1.7250    0.0000 C.ar    1  LIG1        0.0016
     26 C           3.8750   -2.5960    0.0000 C.ar    1  LIG1       -0.0001
     27 C           4.8630   -2.5960    0.0000 C.ar    1  LIG1       -0.0000
     28 C           5.3750   -1.7250    0.0000 C.ar    1  LIG1       -0.0001
     29 C           4.8630   -0.8540    0.0000 C.ar    1  LIG1        0.0016
     30 C           1.8630   -0.8750    0.0000 C.3     1  LIG1        0.1612
     31 C           0.8710   -0.8830    0.0000 C.3     1  LIG1        0.1565
     32 O          -1.1380    0.8580    0.0000 O.2     1  LIG1       -0.2729
     33 O          -3.0580   -2.5960    0.0000 O.2     1  LIG1       -0.1496
     34 O          -1.7460   -1.9630    0.0000 O.2     1  LIG1       -0.1496
@<TRIPOS>BOND
     1     1     2    1
     2     1     5    1
     3     1    33    2
     4     1    34    2
     5     2     3   am
     6     2    11    1
     7     3     4    1
     8     3    10    2
     9     4     5   ar
    10     4     9   ar
    11     5     6   ar
    12     6     7   ar
    13     7     8   ar
    14     8     9   ar
    15    11    12    1
    16    12    13   am
    17    12    32    2
    18    13    14    1
    19    13    31    1
    20    14    15    1
    21    15    16    1
    22    16    17    1
    23    16    30    1
    24    17    18    1
    25    17    24    1
    26    18    19   ar
    27    18    23   ar
    28    19    20   ar
    29    20    21   ar
    30    21    22   ar
    31    22    23   ar
    32    24    25   ar
    33    24    29   ar
    34    25    26   ar
    35    26    27   ar
    36    27    28   ar
    37    28    29   ar
    38    30    31    1
