@<TRIPOS>MOLECULE
35786_ChemDiv_C436-2403
 32 35 0 0 0
SMALL
GASTEIGER
Energy = 0

@<TRIPOS>ATOM
      1 S           2.2000    0.8750    0.0000 S.O2    1  LIG1        0.0786
      2 C           2.7080    1.7420    0.0000 C.ar    1  LIG1        0.1478
      3 C           3.7000    1.7420    0.0000 C.ar    1  LIG1        0.1619
      4 C           4.2040    2.6080    0.0000 C.ar    1  LIG1        0.1445
      5 N           5.1750    2.4000    0.0000 N.ar    1  LIG1       -0.0482
      6 O           5.2790    1.4000    0.0000 O.2     1  LIG1       -0.2415
      7 N           4.3670    1.0000    0.0000 N.ar    1  LIG1       -0.0469
      8 C           3.7080    3.4670    0.0000 C.ar    1  LIG1        0.0242
      9 C           2.6960    3.4790    0.0000 C.ar    1  LIG1        0.0031
     10 C           2.2000    2.6080    0.0000 C.ar    1  LIG1        0.0220
     11 N           1.7040    0.0080    0.0000 N.pl3   1  LIG1       -0.1812
     12 C           0.7040    0.0080    0.0000 C.3     1  LIG1        0.2020
     13 C           0.2000   -0.8630    0.0000 C.2     1  LIG1        0.2638
     14 N          -0.8040   -0.8630    0.0000 N.am    1  LIG1       -0.1991
     15 C          -1.3080   -1.7290    0.0000 C.3     1  LIG1        0.1415
     16 C          -2.3000   -1.7290    0.0000 C.ar    1  LIG1       -0.0006
     17 C          -2.7880   -2.5960    0.0000 C.ar    1  LIG1       -0.0029
     18 C          -3.7790   -2.6040    0.0000 C.ar    1  LIG1       -0.0045
     19 C          -4.2830   -1.7580    0.0000 C.ar    1  LIG1       -0.0219
     20 C          -3.7960   -0.8920    0.0000 C.ar    1  LIG1       -0.0045
     21 C          -2.7960   -0.8790    0.0000 C.ar    1  LIG1       -0.0029
     22 C          -5.2830   -1.7670    0.0000 C.3     1  LIG1        0.0310
     23 O           0.7040   -1.7290    0.0000 O.2     1  LIG1       -0.2714
     24 C           2.2130   -0.8630    0.0000 C.ar    1  LIG1        0.0693
     25 C           1.7040   -1.7290    0.0000 C.ar    1  LIG1        0.0158
     26 C           2.2000   -2.5960    0.0000 C.ar    1  LIG1       -0.0029
     27 C           3.2040   -2.5960    0.0000 C.ar    1  LIG1       -0.0218
     28 C           3.7080   -1.7290    0.0000 C.ar    1  LIG1       -0.0029
     29 C           3.2040   -0.8630    0.0000 C.ar    1  LIG1        0.0158
     30 C           3.7170   -3.4750    0.0000 C.3     1  LIG1        0.0310
     31 O           3.0670    0.3710    0.0000 O.2     1  LIG1       -0.1497
     32 O           1.3330    1.3710    0.0000 O.2     1  LIG1       -0.1497
@<TRIPOS>BOND
     1     1     2    1
     2     1    11    1
     3     1    31    2
     4     1    32    2
     5     2     3   ar
     6     2    10   ar
     7     3     4   ar
     8     3     7   ar
     9     4     5   ar
    10     4     8   ar
    11     5     6   ar
    12     6     7   ar
    13     8     9   ar
    14     9    10   ar
    15    11    12    1
    16    11    24    1
    17    12    13    1
    18    13    14   am
    19    13    23    2
    20    14    15    1
    21    15    16    1
    22    16    17   ar
    23    16    21   ar
    24    17    18   ar
    25    18    19   ar
    26    19    20   ar
    27    19    22    1
    28    20    21   ar
    29    24    25   ar
    30    24    29   ar
    31    25    26   ar
    32    26    27   ar
    33    27    28   ar
    34    27    30    1
    35    28    29   ar
