@<TRIPOS>MOLECULE
35797_ChemDiv_C594-0040
 28 31 0 0 0
SMALL
GASTEIGER
Energy = 0

@<TRIPOS>ATOM
      1 N           0.1420   -0.7330    0.0000 N.ar    1  LIG1       -0.1753
      2 C           1.0210   -0.2830    0.0000 C.ar    1  LIG1        0.1697
      3 C           1.7080   -0.9710    0.0000 C.ar    1  LIG1        0.0725
      4 C           1.2580   -1.8500    0.0000 C.ar    1  LIG1        0.1925
      5 N           0.3000   -1.7330    0.0000 N.ar    1  LIG1       -0.1427
      6 N           1.7210   -2.7580    0.0000 N.pl3   1  LIG1       -0.1053
      7 C           2.6830   -0.7130    0.0000 C.ar    1  LIG1        0.0075
      8 C           2.9420    0.2460    0.0000 C.ar    1  LIG1        0.0181
      9 C           2.2380    0.9500    0.0000 C.ar    1  LIG1        0.0860
     10 N           1.2790    0.6920    0.0000 N.ar    1  LIG1       -0.2263
     11 C           2.4960    1.9080    0.0000 C.ar    1  LIG1        0.0560
     12 C           3.4710    2.1670    0.0000 C.ar    1  LIG1        0.1402
     13 C           4.1630    1.4790    0.0000 C.ar    1  LIG1        0.0370
     14 C           3.9000    0.5040    0.0000 C.ar    1  LIG1        0.0046
     15 O           3.7580    3.1380    0.0000 O.3     1  LIG1       -0.4714
     16 C           3.0670    3.8670    0.0000 C.3     1  LIG1        0.2525
     17 C          -0.7540   -0.2630    0.0000 C.2     1  LIG1        0.2817
     18 C          -1.6080   -0.7960    0.0000 C.ar    1  LIG1        0.0612
     19 C          -1.5670   -1.8000    0.0000 C.ar    1  LIG1        0.0448
     20 C          -2.4170   -2.3290    0.0000 C.ar    1  LIG1        0.1725
     21 C          -3.3080   -1.8710    0.0000 C.ar    1  LIG1        0.1724
     22 C          -3.3500   -0.8580    0.0000 C.ar    1  LIG1        0.0402
     23 C          -2.4960   -0.3210    0.0000 C.ar    1  LIG1        0.0081
     24 O          -4.1670   -2.4210    0.0000 O.3     1  LIG1       -0.4684
     25 C          -4.1210   -3.4330    0.0000 C.3     1  LIG1        0.2526
     26 O          -2.3750   -3.3380    0.0000 O.3     1  LIG1       -0.4684
     27 C          -1.5830   -3.8630    0.0000 C.3     1  LIG1        0.2526
     28 O          -0.7960    0.7500    0.0000 O.2     1  LIG1       -0.2651
@<TRIPOS>BOND
     1     1     2   ar
     2     1     5   ar
     3     1    17   am
     4     2     3   ar
     5     2    10   ar
     6     3     4   ar
     7     3     7   ar
     8     4     5   ar
     9     4     6    1
    10     7     8   ar
    11     8     9   ar
    12     8    14   ar
    13     9    10   ar
    14     9    11   ar
    15    11    12   ar
    16    12    13   ar
    17    12    15    1
    18    13    14   ar
    19    15    16    1
    20    17    18    1
    21    17    28    2
    22    18    19   ar
    23    18    23   ar
    24    19    20   ar
    25    20    21   ar
    26    20    26    1
    27    21    22   ar
    28    21    24    1
    29    22    23   ar
    30    24    25    1
    31    26    27    1
