@<TRIPOS>MOLECULE
35793_ChemDiv_C594-0014
 25 28 0 0 0
SMALL
GASTEIGER
Energy = 0

@<TRIPOS>ATOM
      1 N          -0.2670   -1.2880    0.0000 N.ar    1  LIG1       -0.1753
      2 C           0.6130   -0.8330    0.0000 C.ar    1  LIG1        0.1697
      3 C           1.3040   -1.5250    0.0000 C.ar    1  LIG1        0.0725
      4 C           0.8500   -2.4000    0.0000 C.ar    1  LIG1        0.1925
      5 N          -0.1080   -2.2830    0.0000 N.ar    1  LIG1       -0.1427
      6 N           1.3130   -3.3080    0.0000 N.pl3   1  LIG1       -0.1053
      7 C           2.2750   -1.2670    0.0000 C.ar    1  LIG1        0.0075
      8 C           2.5330   -0.3080    0.0000 C.ar    1  LIG1        0.0181
      9 C           1.8290    0.3960    0.0000 C.ar    1  LIG1        0.0860
     10 N           0.8710    0.1380    0.0000 N.ar    1  LIG1       -0.2263
     11 C           2.0880    1.3540    0.0000 C.ar    1  LIG1        0.0560
     12 C           3.0630    1.6130    0.0000 C.ar    1  LIG1        0.1402
     13 C           3.7500    0.9250    0.0000 C.ar    1  LIG1        0.0370
     14 C           3.4920   -0.0460    0.0000 C.ar    1  LIG1        0.0046
     15 O           3.3500    2.5830    0.0000 O.3     1  LIG1       -0.4714
     16 C           2.6540    3.3130    0.0000 C.3     1  LIG1        0.2525
     17 C          -1.1630   -0.8130    0.0000 C.2     1  LIG1        0.2824
     18 C          -2.0130   -1.3460    0.0000 C.ar    1  LIG1        0.0685
     19 C          -1.9790   -2.3540    0.0000 C.ar    1  LIG1        0.0623
     20 CL         -1.0920   -2.8420    0.0000 Cl      1  LIG1       -0.0821
     21 C          -2.8290   -2.8830    0.0000 C.ar    1  LIG1        0.0115
     22 C          -3.7170   -2.4000    0.0000 C.ar    1  LIG1        0.0009
     23 C          -3.7540   -1.4040    0.0000 C.ar    1  LIG1        0.0002
     24 C          -2.8960   -0.8710    0.0000 C.ar    1  LIG1        0.0056
     25 O          -1.2040    0.1960    0.0000 O.2     1  LIG1       -0.2651
@<TRIPOS>BOND
     1     1     2   ar
     2     1     5   ar
     3     1    17   am
     4     2     3   ar
     5     2    10   ar
     6     3     4   ar
     7     3     7   ar
     8     4     5   ar
     9     4     6    1
    10     7     8   ar
    11     8     9   ar
    12     8    14   ar
    13     9    10   ar
    14     9    11   ar
    15    11    12   ar
    16    12    13   ar
    17    12    15    1
    18    13    14   ar
    19    15    16    1
    20    17    18    1
    21    17    25    2
    22    18    19   ar
    23    18    24   ar
    24    19    20    1
    25    19    21   ar
    26    21    22   ar
    27    22    23   ar
    28    23    24   ar
