@<TRIPOS>MOLECULE
35799_ChemDiv_C594-0076
 27 30 0 0 0
SMALL
GASTEIGER
Energy = 0

@<TRIPOS>ATOM
      1 N          -0.2670   -1.2830    0.0000 N.ar    1  LIG1       -0.1752
      2 C           0.6080   -0.8330    0.0000 C.ar    1  LIG1        0.1697
      3 C           1.3000   -1.5210    0.0000 C.ar    1  LIG1        0.0725
      4 C           0.8500   -2.4000    0.0000 C.ar    1  LIG1        0.1925
      5 N          -0.1080   -2.2830    0.0000 N.ar    1  LIG1       -0.1427
      6 N           1.3080   -3.3080    0.0000 N.pl3   1  LIG1       -0.1053
      7 C           2.2710   -1.2630    0.0000 C.ar    1  LIG1        0.0075
      8 C           2.5290   -0.3080    0.0000 C.ar    1  LIG1        0.0181
      9 C           1.8250    0.3960    0.0000 C.ar    1  LIG1        0.0860
     10 N           0.8670    0.1380    0.0000 N.ar    1  LIG1       -0.2263
     11 C           2.0830    1.3540    0.0000 C.ar    1  LIG1        0.0560
     12 C           3.0580    1.6130    0.0000 C.ar    1  LIG1        0.1402
     13 C           3.7460    0.9210    0.0000 C.ar    1  LIG1        0.0370
     14 C           3.4880   -0.0500    0.0000 C.ar    1  LIG1        0.0046
     15 O           3.3460    2.5790    0.0000 O.3     1  LIG1       -0.4714
     16 C           2.6500    3.3130    0.0000 C.3     1  LIG1        0.2525
     17 C          -1.1630   -0.8130    0.0000 C.2     1  LIG1        0.2846
     18 C          -1.2040    0.1960    0.0000 C.ar    1  LIG1        0.0918
     19 C          -2.0880    0.6670    0.0000 C.ar    1  LIG1        0.1431
     20 O          -2.9420    0.1250    0.0000 O.3     1  LIG1       -0.4753
     21 C          -2.9000   -0.8830    0.0000 C.3     1  LIG1        0.2055
     22 C          -3.7500   -1.4170    0.0000 C.3     1  LIG1        0.0512
     23 C          -2.1210    1.6750    0.0000 C.ar    1  LIG1        0.0371
     24 C          -1.2710    2.2000    0.0000 C.ar    1  LIG1        0.0031
     25 C          -0.3790    1.7290    0.0000 C.ar    1  LIG1        0.0004
     26 C          -0.3460    0.7250    0.0000 C.ar    1  LIG1        0.0078
     27 O          -2.0130   -1.3460    0.0000 O.2     1  LIG1       -0.2650
@<TRIPOS>BOND
     1     1     2   ar
     2     1     5   ar
     3     1    17   am
     4     2     3   ar
     5     2    10   ar
     6     3     4   ar
     7     3     7   ar
     8     4     5   ar
     9     4     6    1
    10     7     8   ar
    11     8     9   ar
    12     8    14   ar
    13     9    10   ar
    14     9    11   ar
    15    11    12   ar
    16    12    13   ar
    17    12    15    1
    18    13    14   ar
    19    15    16    1
    20    17    18    1
    21    17    27    2
    22    18    19   ar
    23    18    26   ar
    24    19    20    1
    25    19    23   ar
    26    20    21    1
    27    21    22    1
    28    23    24   ar
    29    24    25   ar
    30    25    26   ar
