@<TRIPOS>MOLECULE
35803_ChemDiv_C619-0074
 27 30 0 0 0
SMALL
GASTEIGER
Energy = 0

@<TRIPOS>ATOM
      1 N           1.6500    2.0130    0.0000 N.ar    1  LIG1       -0.1753
      2 C           0.7670    1.5710    0.0000 C.ar    1  LIG1        0.1697
      3 C           0.0830    2.2500    0.0000 C.ar    1  LIG1        0.0725
      4 C           0.5380    3.1330    0.0000 C.ar    1  LIG1        0.1925
      5 N           1.5250    2.9710    0.0000 N.ar    1  LIG1       -0.1427
      6 N           0.0630    4.0250    0.0000 N.pl3   1  LIG1       -0.1053
      7 C          -0.8880    1.9920    0.0000 C.ar    1  LIG1        0.0076
      8 C          -1.1460    1.0330    0.0000 C.ar    1  LIG1        0.0209
      9 C          -0.4500    0.3330    0.0000 C.ar    1  LIG1        0.0832
     10 N           0.5130    0.5920    0.0000 N.ar    1  LIG1       -0.2264
     11 C          -0.7040   -0.6210    0.0000 C.ar    1  LIG1        0.0223
     12 C          -1.6750   -0.8830    0.0000 C.ar    1  LIG1        0.0384
     13 C          -2.3630   -0.1960    0.0000 C.ar    1  LIG1        0.1388
     14 C          -2.1040    0.7750    0.0000 C.ar    1  LIG1        0.0384
     15 O          -3.3380   -0.4880    0.0000 O.3     1  LIG1       -0.4714
     16 C          -3.5670   -1.4580    0.0000 C.3     1  LIG1        0.2525
     17 C           2.5580    1.5500    0.0000 C.2     1  LIG1        0.2816
     18 C           2.6040    0.5380    0.0000 C.ar    1  LIG1        0.0581
     19 C           3.5000    0.0790    0.0000 C.ar    1  LIG1        0.0079
     20 C           3.5630   -0.9290    0.0000 C.ar    1  LIG1        0.0371
     21 C           2.6960   -1.4830    0.0000 C.ar    1  LIG1        0.1386
     22 C           1.8210   -1.0080    0.0000 C.ar    1  LIG1        0.0371
     23 C           1.7750    0.0000    0.0000 C.ar    1  LIG1        0.0079
     24 O           2.7290   -2.4880    0.0000 O.3     1  LIG1       -0.4755
     25 C           1.8750   -3.0080    0.0000 C.3     1  LIG1        0.2055
     26 C           1.8920   -4.0250    0.0000 C.3     1  LIG1        0.0512
     27 O           3.4000    2.1000    0.0000 O.2     1  LIG1       -0.2651
@<TRIPOS>BOND
     1     1     2   ar
     2     1     5   ar
     3     1    17   am
     4     2     3   ar
     5     2    10   ar
     6     3     4   ar
     7     3     7   ar
     8     4     5   ar
     9     4     6    1
    10     7     8   ar
    11     8     9   ar
    12     8    14   ar
    13     9    10   ar
    14     9    11   ar
    15    11    12   ar
    16    12    13   ar
    17    13    14   ar
    18    13    15    1
    19    15    16    1
    20    17    18    1
    21    17    27    2
    22    18    19   ar
    23    18    23   ar
    24    19    20   ar
    25    20    21   ar
    26    21    22   ar
    27    21    24    1
    28    22    23   ar
    29    24    25    1
    30    25    26    1
