@<TRIPOS>MOLECULE
35805_ChemDiv_C619-0082
 30 33 0 0 0
SMALL
GASTEIGER
Energy = 0

@<TRIPOS>ATOM
      1 N           1.6540    2.0170    0.0000 N.ar    1  LIG1       -0.1753
      2 C           0.7710    1.5630    0.0000 C.ar    1  LIG1        0.1697
      3 C           0.0920    2.2540    0.0000 C.ar    1  LIG1        0.0725
      4 C           0.5380    3.1250    0.0000 C.ar    1  LIG1        0.1925
      5 N           1.5330    2.9750    0.0000 N.ar    1  LIG1       -0.1427
      6 N           0.0710    4.0250    0.0000 N.pl3   1  LIG1       -0.1053
      7 C          -0.8830    1.9920    0.0000 C.ar    1  LIG1        0.0076
      8 C          -1.1420    1.0330    0.0000 C.ar    1  LIG1        0.0209
      9 C          -0.4420    0.3290    0.0000 C.ar    1  LIG1        0.0832
     10 N           0.5170    0.5880    0.0000 N.ar    1  LIG1       -0.2264
     11 C          -0.7040   -0.6290    0.0000 C.ar    1  LIG1        0.0223
     12 C          -1.6750   -0.8880    0.0000 C.ar    1  LIG1        0.0384
     13 C          -2.3580   -0.2000    0.0000 C.ar    1  LIG1        0.1388
     14 C          -2.1000    0.7750    0.0000 C.ar    1  LIG1        0.0384
     15 O          -3.3330   -0.4880    0.0000 O.3     1  LIG1       -0.4714
     16 C          -3.5580   -1.4670    0.0000 C.3     1  LIG1        0.2525
     17 C           2.5670    1.5500    0.0000 C.2     1  LIG1        0.2817
     18 C           2.6170    0.5380    0.0000 C.ar    1  LIG1        0.0612
     19 C           1.7790   -0.0040    0.0000 C.ar    1  LIG1        0.0448
     20 C           1.8330   -1.0080    0.0000 C.ar    1  LIG1        0.1724
     21 C           2.7210   -1.4670    0.0000 C.ar    1  LIG1        0.1722
     22 C           3.5540   -0.9290    0.0000 C.ar    1  LIG1        0.0402
     23 C           3.5080    0.0750    0.0000 C.ar    1  LIG1        0.0081
     24 O           2.7670   -2.4710    0.0000 O.3     1  LIG1       -0.4724
     25 C           1.9290   -3.0170    0.0000 C.3     1  LIG1        0.2057
     26 C           1.9790   -4.0250    0.0000 C.3     1  LIG1        0.0512
     27 O           0.9830   -1.5710    0.0000 O.3     1  LIG1       -0.4724
     28 C           1.0500   -2.5750    0.0000 C.3     1  LIG1        0.2057
     29 C           0.2080   -3.1250    0.0000 C.3     1  LIG1        0.0512
     30 O           3.4040    2.0920    0.0000 O.2     1  LIG1       -0.2651
@<TRIPOS>BOND
     1     1     2   ar
     2     1     5   ar
     3     1    17   am
     4     2     3   ar
     5     2    10   ar
     6     3     4   ar
     7     3     7   ar
     8     4     5   ar
     9     4     6    1
    10     7     8   ar
    11     8     9   ar
    12     8    14   ar
    13     9    10   ar
    14     9    11   ar
    15    11    12   ar
    16    12    13   ar
    17    13    14   ar
    18    13    15    1
    19    15    16    1
    20    17    18    1
    21    17    30    2
    22    18    19   ar
    23    18    23   ar
    24    19    20   ar
    25    20    21   ar
    26    20    27    1
    27    21    22   ar
    28    21    24    1
    29    22    23   ar
    30    24    25    1
    31    25    26    1
    32    27    28    1
    33    28    29    1
