@<TRIPOS>MOLECULE
35807_ChemDiv_C619-0129
 23 26 0 0 0
SMALL
GASTEIGER
Energy = 0

@<TRIPOS>ATOM
      1 N           0.8380    1.1290    0.0000 N.ar    1  LIG1       -0.1753
      2 C           0.0000    0.6000    0.0000 C.ar    1  LIG1        0.1697
      3 C          -0.7710    1.2500    0.0000 C.ar    1  LIG1        0.0725
      4 C          -0.3920    2.1750    0.0000 C.ar    1  LIG1        0.1925
      5 N           0.5960    2.1000    0.0000 N.ar    1  LIG1       -0.1427
      6 N          -0.9210    3.0380    0.0000 N.pl3   1  LIG1       -0.1053
      7 C          -1.7080    0.9130    0.0000 C.ar    1  LIG1        0.0075
      8 C          -1.8750   -0.0710    0.0000 C.ar    1  LIG1        0.0179
      9 C          -1.1130   -0.7170    0.0000 C.ar    1  LIG1        0.0826
     10 N          -0.1790   -0.3710    0.0000 N.ar    1  LIG1       -0.2264
     11 C          -1.2830   -1.7000    0.0000 C.ar    1  LIG1        0.0149
     12 C          -2.2210   -2.0420    0.0000 C.ar    1  LIG1       -0.0204
     13 C          -2.9920   -1.3880    0.0000 C.ar    1  LIG1       -0.0042
     14 C          -2.8130   -0.4130    0.0000 C.ar    1  LIG1        0.0012
     15 C          -2.3750   -3.0330    0.0000 C.3     1  LIG1        0.0311
     16 C           1.7790    0.7630    0.0000 C.2     1  LIG1        0.2817
     17 O           2.5670    1.3750    0.0000 O.2     1  LIG1       -0.2651
     18 C           1.9130   -0.2380    0.0000 C.ar    1  LIG1        0.0610
     19 C           2.8380   -0.6080    0.0000 C.ar    1  LIG1        0.0255
     20 C           2.9880   -1.6000    0.0000 C.ar    1  LIG1        0.0990
     21 N           2.1880   -2.2210    0.0000 N.ar    1  LIG1       -0.2423
     22 C           1.2630   -1.8420    0.0000 C.ar    1  LIG1        0.0990
     23 C           1.1290   -0.8500    0.0000 C.ar    1  LIG1        0.0255
@<TRIPOS>BOND
     1     1     2   ar
     2     1     5   ar
     3     1    16   am
     4     2     3   ar
     5     2    10   ar
     6     3     4   ar
     7     3     7   ar
     8     4     5   ar
     9     4     6    1
    10     7     8   ar
    11     8     9   ar
    12     8    14   ar
    13     9    10   ar
    14     9    11   ar
    15    11    12   ar
    16    12    13   ar
    17    12    15    1
    18    13    14   ar
    19    16    17    2
    20    16    18    1
    21    18    19   ar
    22    18    23   ar
    23    19    20   ar
    24    20    21   ar
    25    21    22   ar
    26    22    23   ar
