@<TRIPOS>MOLECULE
35827_ChemDiv_C619-0138
 29 32 0 0 0
SMALL
GASTEIGER
Energy = 0

@<TRIPOS>ATOM
      1 N           0.5920    1.4880    0.0000 N.ar    1  LIG1       -0.1753
      2 C          -0.2750    1.0380    0.0000 C.ar    1  LIG1        0.1697
      3 C          -0.9710    1.7210    0.0000 C.ar    1  LIG1        0.0725
      4 C          -0.5170    2.5960    0.0000 C.ar    1  LIG1        0.1925
      5 N           0.4380    2.4790    0.0000 N.ar    1  LIG1       -0.1427
      6 N          -0.9750    3.5040    0.0000 N.pl3   1  LIG1       -0.1053
      7 C          -1.9420    1.4670    0.0000 C.ar    1  LIG1        0.0075
      8 C          -2.2000    0.5080    0.0000 C.ar    1  LIG1        0.0179
      9 C          -1.4920   -0.1920    0.0000 C.ar    1  LIG1        0.0826
     10 N          -0.5380    0.0630    0.0000 N.ar    1  LIG1       -0.2264
     11 C          -1.7500   -1.1500    0.0000 C.ar    1  LIG1        0.0149
     12 C          -2.7250   -1.4130    0.0000 C.ar    1  LIG1       -0.0204
     13 C          -3.4170   -0.7210    0.0000 C.ar    1  LIG1       -0.0042
     14 C          -3.1540    0.2500    0.0000 C.ar    1  LIG1        0.0012
     15 C          -3.0080   -2.3790    0.0000 C.3     1  LIG1        0.0311
     16 C           1.4880    1.0170    0.0000 C.2     1  LIG1        0.2818
     17 C           1.5330    0.0040    0.0000 C.ar    1  LIG1        0.0642
     18 C           2.4080   -0.4670    0.0000 C.ar    1  LIG1        0.0450
     19 C           2.4580   -1.4670    0.0000 C.ar    1  LIG1        0.1756
     20 C           1.5920   -2.0040    0.0000 C.ar    1  LIG1        0.2061
     21 C           0.7130   -1.5290    0.0000 C.ar    1  LIG1        0.1756
     22 C           0.6830   -0.5250    0.0000 C.ar    1  LIG1        0.0450
     23 O          -0.1380   -2.0750    0.0000 O.3     1  LIG1       -0.4683
     24 C          -1.0330   -1.6080    0.0000 C.3     1  LIG1        0.2526
     25 O           1.6080   -3.0040    0.0000 O.3     1  LIG1       -0.4654
     26 C           2.4830   -3.5000    0.0000 C.3     1  LIG1        0.2528
     27 O           3.3540   -1.9250    0.0000 O.3     1  LIG1       -0.4683
     28 C           3.4130   -2.9460    0.0000 C.3     1  LIG1        0.2526
     29 O           2.3380    1.5460    0.0000 O.2     1  LIG1       -0.2651
@<TRIPOS>BOND
     1     1     2   ar
     2     1     5   ar
     3     1    16   am
     4     2     3   ar
     5     2    10   ar
     6     3     4   ar
     7     3     7   ar
     8     4     5   ar
     9     4     6    1
    10     7     8   ar
    11     8     9   ar
    12     8    14   ar
    13     9    10   ar
    14     9    11   ar
    15    11    12   ar
    16    12    13   ar
    17    12    15    1
    18    13    14   ar
    19    16    17    1
    20    16    29    2
    21    17    18   ar
    22    17    22   ar
    23    18    19   ar
    24    19    20   ar
    25    19    27    1
    26    20    21   ar
    27    20    25    1
    28    21    22   ar
    29    21    23    1
    30    23    24    1
    31    25    26    1
    32    27    28    1
