@<TRIPOS>MOLECULE
35825_ChemDiv_C619-0133
 24 27 0 0 0
SMALL
GASTEIGER
Energy = 0

@<TRIPOS>ATOM
      1 N          -0.1920    0.9210    0.0000 N.ar    1  LIG1       -0.1753
      2 C          -1.0750    0.4710    0.0000 C.ar    1  LIG1        0.1697
      3 C          -1.7580    1.1630    0.0000 C.ar    1  LIG1        0.0725
      4 C          -1.3130    2.0380    0.0000 C.ar    1  LIG1        0.1925
      5 N          -0.3580    1.9250    0.0000 N.ar    1  LIG1       -0.1427
      6 N          -1.7710    2.9460    0.0000 N.pl3   1  LIG1       -0.1053
      7 C          -2.7290    0.9080    0.0000 C.ar    1  LIG1        0.0075
      8 C          -2.9960   -0.0540    0.0000 C.ar    1  LIG1        0.0179
      9 C          -2.2920   -0.7670    0.0000 C.ar    1  LIG1        0.0826
     10 N          -1.3290   -0.5000    0.0000 N.ar    1  LIG1       -0.2264
     11 C          -2.5460   -1.7170    0.0000 C.ar    1  LIG1        0.0149
     12 C          -3.5170   -1.9830    0.0000 C.ar    1  LIG1       -0.0204
     13 C          -4.2130   -1.2790    0.0000 C.ar    1  LIG1       -0.0042
     14 C          -3.9460   -0.3080    0.0000 C.ar    1  LIG1        0.0012
     15 C          -3.8080   -2.9420    0.0000 C.3     1  LIG1        0.0311
     16 C           0.7040    0.4500    0.0000 C.2     1  LIG1        0.2816
     17 C           1.5580    0.9830    0.0000 C.ar    1  LIG1        0.0588
     18 C           2.4380    0.5130    0.0000 C.ar    1  LIG1        0.0162
     19 C           3.2920    1.0460    0.0000 C.ar    1  LIG1        0.0578
     20 CL          4.2080    0.5710    0.0000 Cl      1  LIG1       -0.0822
     21 C           3.2580    2.0380    0.0000 C.ar    1  LIG1        0.0114
     22 C           2.3710    2.5210    0.0000 C.ar    1  LIG1        0.0010
     23 C           1.5170    1.9880    0.0000 C.ar    1  LIG1        0.0048
     24 O           0.7420   -0.5540    0.0000 O.2     1  LIG1       -0.2651
@<TRIPOS>BOND
     1     1     2   ar
     2     1     5   ar
     3     1    16   am
     4     2     3   ar
     5     2    10   ar
     6     3     4   ar
     7     3     7   ar
     8     4     5   ar
     9     4     6    1
    10     7     8   ar
    11     8     9   ar
    12     8    14   ar
    13     9    10   ar
    14     9    11   ar
    15    11    12   ar
    16    12    13   ar
    17    12    15    1
    18    13    14   ar
    19    16    17    1
    20    16    24    2
    21    17    18   ar
    22    17    23   ar
    23    18    19   ar
    24    19    20    1
    25    19    21   ar
    26    21    22   ar
    27    22    23   ar
