@<TRIPOS>MOLECULE
35829_ChemDiv_C619-0166
 27 30 0 0 0
SMALL
GASTEIGER
Energy = 0

@<TRIPOS>ATOM
      1 N           1.0380    1.4750    0.0000 N.ar    1  LIG1       -0.1753
      2 C           0.1540    1.0170    0.0000 C.ar    1  LIG1        0.1697
      3 C          -0.5290    1.7080    0.0000 C.ar    1  LIG1        0.0725
      4 C          -0.0790    2.5790    0.0000 C.ar    1  LIG1        0.1925
      5 N           0.8830    2.4670    0.0000 N.ar    1  LIG1       -0.1427
      6 N          -0.5460    3.4920    0.0000 N.pl3   1  LIG1       -0.1053
      7 C          -1.5000    1.4500    0.0000 C.ar    1  LIG1        0.0075
      8 C          -1.7580    0.4920    0.0000 C.ar    1  LIG1        0.0179
      9 C          -1.0630   -0.2130    0.0000 C.ar    1  LIG1        0.0826
     10 N          -0.1000    0.0460    0.0000 N.ar    1  LIG1       -0.2264
     11 C          -1.3170   -1.1710    0.0000 C.ar    1  LIG1        0.0149
     12 C          -2.2880   -1.4290    0.0000 C.ar    1  LIG1       -0.0204
     13 C          -2.9750   -0.7420    0.0000 C.ar    1  LIG1       -0.0042
     14 C          -2.7170    0.2330    0.0000 C.ar    1  LIG1        0.0012
     15 C          -2.5790   -2.3960    0.0000 C.3     1  LIG1        0.0311
     16 C           1.9330    1.0040    0.0000 C.2     1  LIG1        0.2817
     17 C           1.9750   -0.0080    0.0000 C.ar    1  LIG1        0.0612
     18 C           1.1130   -0.5420    0.0000 C.ar    1  LIG1        0.0448
     19 C           1.1420   -1.5420    0.0000 C.ar    1  LIG1        0.1725
     20 C           2.0380   -2.0130    0.0000 C.ar    1  LIG1        0.1724
     21 C           2.8920   -1.4920    0.0000 C.ar    1  LIG1        0.0402
     22 C           2.8580   -0.4830    0.0000 C.ar    1  LIG1        0.0081
     23 O           2.0790   -3.0170    0.0000 O.3     1  LIG1       -0.4684
     24 C           2.9710   -3.4880    0.0000 C.3     1  LIG1        0.2526
     25 O           0.2880   -2.0830    0.0000 O.3     1  LIG1       -0.4684
     26 C          -0.6000   -1.6040    0.0000 C.3     1  LIG1        0.2526
     27 O           2.7880    1.5330    0.0000 O.2     1  LIG1       -0.2651
@<TRIPOS>BOND
     1     1     2   ar
     2     1     5   ar
     3     1    16   am
     4     2     3   ar
     5     2    10   ar
     6     3     4   ar
     7     3     7   ar
     8     4     5   ar
     9     4     6    1
    10     7     8   ar
    11     8     9   ar
    12     8    14   ar
    13     9    10   ar
    14     9    11   ar
    15    11    12   ar
    16    12    13   ar
    17    12    15    1
    18    13    14   ar
    19    16    17    1
    20    16    27    2
    21    17    18   ar
    22    17    22   ar
    23    18    19   ar
    24    19    20   ar
    25    19    25    1
    26    20    21   ar
    27    20    23    1
    28    21    22   ar
    29    23    24    1
    30    25    26    1
