@<TRIPOS>MOLECULE
35837_ChemDiv_C660-0117
 26 29 0 0 0
SMALL
GASTEIGER
Energy = 0

@<TRIPOS>ATOM
      1 N           2.4330    1.1420    0.0000 N.ar    1  LIG1       -0.1753
      2 C           1.4880    1.4500    0.0000 C.ar    1  LIG1        0.1697
      3 C           1.4880    2.4500    0.0000 C.ar    1  LIG1        0.0725
      4 C           2.4330    2.7630    0.0000 C.ar    1  LIG1        0.1925
      5 N           3.0210    1.9460    0.0000 N.ar    1  LIG1       -0.1427
      6 N           2.7500    3.7170    0.0000 N.pl3   1  LIG1       -0.1053
      7 C           0.6250    2.9460    0.0000 C.ar    1  LIG1        0.0076
      8 C          -0.2380    2.4500    0.0000 C.ar    1  LIG1        0.0209
      9 C          -0.2380    1.4500    0.0000 C.ar    1  LIG1        0.0832
     10 N           0.6250    0.9460    0.0000 N.ar    1  LIG1       -0.2264
     11 C          -1.1040    0.9460    0.0000 C.ar    1  LIG1        0.0223
     12 C          -1.9750    1.4500    0.0000 C.ar    1  LIG1        0.0384
     13 C          -1.9750    2.4500    0.0000 C.ar    1  LIG1        0.1388
     14 C          -1.1040    2.9460    0.0000 C.ar    1  LIG1        0.0384
     15 O          -2.8460    2.9460    0.0000 O.3     1  LIG1       -0.4714
     16 C          -3.7170    2.4460    0.0000 C.3     1  LIG1        0.2525
     17 C           2.7330    0.1960    0.0000 C.2     1  LIG1        0.2816
     18 C           2.0670   -0.5500    0.0000 C.ar    1  LIG1        0.0581
     19 C           1.0830   -0.3250    0.0000 C.ar    1  LIG1        0.0079
     20 C           0.4170   -1.0670    0.0000 C.ar    1  LIG1        0.0371
     21 C           0.7210   -2.0210    0.0000 C.ar    1  LIG1        0.1387
     22 C           1.7000   -2.2330    0.0000 C.ar    1  LIG1        0.0371
     23 C           2.3710   -1.4920    0.0000 C.ar    1  LIG1        0.0079
     24 O           0.0500   -2.7580    0.0000 O.3     1  LIG1       -0.4714
     25 C           0.3500   -3.7130    0.0000 C.3     1  LIG1        0.2525
     26 O           3.7130   -0.0170    0.0000 O.2     1  LIG1       -0.2651
@<TRIPOS>BOND
     1     1     2   ar
     2     1     5   ar
     3     1    17   am
     4     2     3   ar
     5     2    10   ar
     6     3     4   ar
     7     3     7   ar
     8     4     5   ar
     9     4     6    1
    10     7     8   ar
    11     8     9   ar
    12     8    14   ar
    13     9    10   ar
    14     9    11   ar
    15    11    12   ar
    16    12    13   ar
    17    13    14   ar
    18    13    15    1
    19    15    16    1
    20    17    18    1
    21    17    26    2
    22    18    19   ar
    23    18    23   ar
    24    19    20   ar
    25    20    21   ar
    26    21    22   ar
    27    21    24    1
    28    22    23   ar
    29    24    25    1
