@<TRIPOS>MOLECULE
35833_ChemDiv_C619-0202
 26 29 0 0 0
SMALL
GASTEIGER
Energy = 0

@<TRIPOS>ATOM
      1 N           0.2040    0.9250    0.0000 N.ar    1  LIG1       -0.1752
      2 C          -0.6790    0.4830    0.0000 C.ar    1  LIG1        0.1697
      3 C          -1.3670    1.1630    0.0000 C.ar    1  LIG1        0.0725
      4 C          -0.9170    2.0460    0.0000 C.ar    1  LIG1        0.1925
      5 N           0.0460    1.9250    0.0000 N.ar    1  LIG1       -0.1427
      6 N          -1.3830    2.9500    0.0000 N.pl3   1  LIG1       -0.1053
      7 C          -2.3420    0.9040    0.0000 C.ar    1  LIG1        0.0075
      8 C          -2.6000   -0.0540    0.0000 C.ar    1  LIG1        0.0179
      9 C          -1.9000   -0.7540    0.0000 C.ar    1  LIG1        0.0826
     10 N          -0.9380   -0.4960    0.0000 N.ar    1  LIG1       -0.2264
     11 C          -2.1580   -1.7130    0.0000 C.ar    1  LIG1        0.0149
     12 C          -3.1330   -1.9710    0.0000 C.ar    1  LIG1       -0.0204
     13 C          -3.8170   -1.2880    0.0000 C.ar    1  LIG1       -0.0042
     14 C          -3.5580   -0.3130    0.0000 C.ar    1  LIG1        0.0012
     15 C          -3.4250   -2.9460    0.0000 C.3     1  LIG1        0.0311
     16 C           1.0960    0.4500    0.0000 C.2     1  LIG1        0.2846
     17 C           1.9500    0.9830    0.0000 C.ar    1  LIG1        0.0918
     18 C           2.8330    0.5130    0.0000 C.ar    1  LIG1        0.1431
     19 O           2.8830   -0.4920    0.0000 O.3     1  LIG1       -0.4753
     20 C           3.7670   -0.9630    0.0000 C.3     1  LIG1        0.2055
     21 C           3.8130   -1.9710    0.0000 C.3     1  LIG1        0.0512
     22 C           3.6880    1.0630    0.0000 C.ar    1  LIG1        0.0371
     23 C           3.6500    2.0630    0.0000 C.ar    1  LIG1        0.0031
     24 C           2.7630    2.5250    0.0000 C.ar    1  LIG1        0.0004
     25 C           1.9080    1.9920    0.0000 C.ar    1  LIG1        0.0078
     26 O           1.1420   -0.5580    0.0000 O.2     1  LIG1       -0.2650
@<TRIPOS>BOND
     1     1     2   ar
     2     1     5   ar
     3     1    16   am
     4     2     3   ar
     5     2    10   ar
     6     3     4   ar
     7     3     7   ar
     8     4     5   ar
     9     4     6    1
    10     7     8   ar
    11     8     9   ar
    12     8    14   ar
    13     9    10   ar
    14     9    11   ar
    15    11    12   ar
    16    12    13   ar
    17    12    15    1
    18    13    14   ar
    19    16    17    1
    20    16    26    2
    21    17    18   ar
    22    17    25   ar
    23    18    19    1
    24    18    22   ar
    25    19    20    1
    26    20    21    1
    27    22    23   ar
    28    23    24   ar
    29    24    25   ar
