@<TRIPOS>MOLECULE
35835_ChemDiv_C619-0208
 29 32 0 0 0
SMALL
GASTEIGER
Energy = 0

@<TRIPOS>ATOM
      1 N          -0.6670    0.3540    0.0000 N.ar    1  LIG1       -0.1753
      2 C          -1.5460   -0.0920    0.0000 C.ar    1  LIG1        0.1697
      3 C          -2.2290    0.5880    0.0000 C.ar    1  LIG1        0.0725
      4 C          -1.7750    1.4670    0.0000 C.ar    1  LIG1        0.1925
      5 N          -0.8250    1.3460    0.0000 N.ar    1  LIG1       -0.1427
      6 N          -2.2420    2.3710    0.0000 N.pl3   1  LIG1       -0.1053
      7 C          -3.1960    0.3290    0.0000 C.ar    1  LIG1        0.0075
      8 C          -3.4580   -0.6290    0.0000 C.ar    1  LIG1        0.0179
      9 C          -2.7630   -1.3250    0.0000 C.ar    1  LIG1        0.0826
     10 N          -1.8040   -1.0710    0.0000 N.ar    1  LIG1       -0.2264
     11 C          -3.0210   -2.2830    0.0000 C.ar    1  LIG1        0.0149
     12 C          -3.9880   -2.5460    0.0000 C.ar    1  LIG1       -0.0204
     13 C          -4.6710   -1.8630    0.0000 C.ar    1  LIG1       -0.0042
     14 C          -4.4170   -0.8830    0.0000 C.ar    1  LIG1        0.0012
     15 C          -4.2790   -3.5130    0.0000 C.3     1  LIG1        0.0311
     16 C           0.2380   -0.1210    0.0000 C.2     1  LIG1        0.2817
     17 C           1.0830    0.4080    0.0000 C.ar    1  LIG1        0.0612
     18 C           1.9630   -0.0670    0.0000 C.ar    1  LIG1        0.0448
     19 C           2.8290    0.4630    0.0000 C.ar    1  LIG1        0.1724
     20 C           2.7880    1.4670    0.0000 C.ar    1  LIG1        0.1722
     21 C           1.8960    1.9460    0.0000 C.ar    1  LIG1        0.0402
     22 C           1.0500    1.4250    0.0000 C.ar    1  LIG1        0.0081
     23 O           3.6540    1.9920    0.0000 O.3     1  LIG1       -0.4724
     24 C           3.6250    3.0040    0.0000 C.3     1  LIG1        0.2057
     25 C           4.4830    3.5170    0.0000 C.3     1  LIG1        0.0512
     26 O           3.7250    0.0000    0.0000 O.3     1  LIG1       -0.4724
     27 C           3.7750   -1.0080    0.0000 C.3     1  LIG1        0.2057
     28 C           4.6670   -1.4750    0.0000 C.3     1  LIG1        0.0512
     29 O           0.2750   -1.1290    0.0000 O.2     1  LIG1       -0.2651
@<TRIPOS>BOND
     1     1     2   ar
     2     1     5   ar
     3     1    16   am
     4     2     3   ar
     5     2    10   ar
     6     3     4   ar
     7     3     7   ar
     8     4     5   ar
     9     4     6    1
    10     7     8   ar
    11     8     9   ar
    12     8    14   ar
    13     9    10   ar
    14     9    11   ar
    15    11    12   ar
    16    12    13   ar
    17    12    15    1
    18    13    14   ar
    19    16    17    1
    20    16    29    2
    21    17    18   ar
    22    17    22   ar
    23    18    19   ar
    24    19    20   ar
    25    19    26    1
    26    20    21   ar
    27    20    23    1
    28    21    22   ar
    29    23    24    1
    30    24    25    1
    31    26    27    1
    32    27    28    1
