@<TRIPOS>MOLECULE
35831_ChemDiv_C619-0193
 24 27 0 0 0
SMALL
GASTEIGER
Energy = 0

@<TRIPOS>ATOM
      1 N           1.0790    0.9290    0.0000 N.ar    1  LIG1       -0.1753
      2 C           0.2000    0.4790    0.0000 C.ar    1  LIG1        0.1697
      3 C          -0.4880    1.1670    0.0000 C.ar    1  LIG1        0.0725
      4 C          -0.0460    2.0500    0.0000 C.ar    1  LIG1        0.1925
      5 N           0.9170    1.9250    0.0000 N.ar    1  LIG1       -0.1427
      6 N          -0.5000    2.9500    0.0000 N.pl3   1  LIG1       -0.1053
      7 C          -1.4630    0.9040    0.0000 C.ar    1  LIG1        0.0075
      8 C          -1.7210   -0.0540    0.0000 C.ar    1  LIG1        0.0179
      9 C          -1.0170   -0.7540    0.0000 C.ar    1  LIG1        0.0826
     10 N          -0.0580   -0.4960    0.0000 N.ar    1  LIG1       -0.2264
     11 C          -1.2750   -1.7130    0.0000 C.ar    1  LIG1        0.0149
     12 C          -2.2460   -1.9710    0.0000 C.ar    1  LIG1       -0.0204
     13 C          -2.9420   -1.2880    0.0000 C.ar    1  LIG1       -0.0042
     14 C          -2.6790   -0.3130    0.0000 C.ar    1  LIG1        0.0012
     15 C          -2.5380   -2.9460    0.0000 C.3     1  LIG1        0.0311
     16 C           1.9750    0.4580    0.0000 C.2     1  LIG1        0.2817
     17 C           2.0130   -0.5580    0.0000 C.ar    1  LIG1        0.0602
     18 C           1.1540   -1.0880    0.0000 C.ar    1  LIG1        0.0344
     19 C           1.1880   -2.0880    0.0000 C.ar    1  LIG1        0.1403
     20 F           0.3210   -2.6250    0.0000 F       1  LIG1       -0.2042
     21 C           2.0790   -2.5630    0.0000 C.ar    1  LIG1        0.0296
     22 C           2.9380   -2.0290    0.0000 C.ar    1  LIG1        0.0025
     23 C           2.8960   -1.0250    0.0000 C.ar    1  LIG1        0.0049
     24 O           2.8250    0.9960    0.0000 O.2     1  LIG1       -0.2651
@<TRIPOS>BOND
     1     1     2   ar
     2     1     5   ar
     3     1    16   am
     4     2     3   ar
     5     2    10   ar
     6     3     4   ar
     7     3     7   ar
     8     4     5   ar
     9     4     6    1
    10     7     8   ar
    11     8     9   ar
    12     8    14   ar
    13     9    10   ar
    14     9    11   ar
    15    11    12   ar
    16    12    13   ar
    17    12    15    1
    18    13    14   ar
    19    16    17    1
    20    16    24    2
    21    17    18   ar
    22    17    23   ar
    23    18    19   ar
    24    19    20    1
    25    19    21   ar
    26    21    22   ar
    27    22    23   ar
