@<TRIPOS>MOLECULE
35849_ChemDiv_C120-0033
 19 20 0 0 0
SMALL
GASTEIGER
Energy = 0

@<TRIPOS>ATOM
      1 N           0.5250   -1.6250    0.0000 N.ar    1  LIG1       -0.2059
      2 C          -0.3210   -2.1540    0.0000 C.ar    1  LIG1        0.2022
      3 S          -0.0670   -3.1250    0.0000 S.2     1  LIG1        0.0508
      4 N           0.9330   -3.1830    0.0000 N.ar    1  LIG1       -0.1913
      5 C           1.2960   -2.2710    0.0000 C.ar    1  LIG1        0.1564
      6 C           2.2710   -2.0330    0.0000 C.3     1  LIG1        0.1307
      7 C           2.5670   -1.0750    0.0000 C.2     1  LIG1        0.1587
      8 O           1.8920   -0.3380    0.0000 O.2     1  LIG1       -0.2956
      9 C           3.5420   -0.8540    0.0000 C.3     1  LIG1        0.0727
     10 N          -1.2880   -1.9000    0.0000 N.pl3   1  LIG1       -0.1874
     11 C          -1.5460   -0.9290    0.0000 C.ar    1  LIG1        0.0728
     12 C          -2.5040   -0.6710    0.0000 C.ar    1  LIG1        0.0197
     13 C          -2.7710    0.2960    0.0000 C.ar    1  LIG1        0.0382
     14 C          -2.0630    1.0080    0.0000 C.ar    1  LIG1        0.1386
     15 C          -1.0920    0.7420    0.0000 C.ar    1  LIG1        0.0382
     16 C          -0.8380   -0.2290    0.0000 C.ar    1  LIG1        0.0197
     17 O          -2.3210    1.9630    0.0000 O.3     1  LIG1       -0.4755
     18 C          -3.2880    2.2250    0.0000 C.3     1  LIG1        0.2055
     19 C          -3.5460    3.1880    0.0000 C.3     1  LIG1        0.0512
@<TRIPOS>BOND
     1     1     2   ar
     2     1     5   ar
     3     2     3   ar
     4     2    10    1
     5     3     4   ar
     6     4     5   ar
     7     5     6    1
     8     6     7    1
     9     7     8    2
    10     7     9    1
    11    10    11    1
    12    11    12   ar
    13    11    16   ar
    14    12    13   ar
    15    13    14   ar
    16    14    15   ar
    17    14    17    1
    18    15    16   ar
    19    17    18    1
    20    18    19    1
