@<TRIPOS>MOLECULE
35843_ChemDiv_C120-0015
 24 25 0 0 0
SMALL
GASTEIGER
Energy = 0

@<TRIPOS>ATOM
      1 N           1.5830   -2.2460    0.0000 N.ar    1  LIG1       -0.2062
      2 C           2.3580   -2.8960    0.0000 C.ar    1  LIG1        0.1564
      3 N           1.9960   -3.8080    0.0000 N.ar    1  LIG1       -0.1913
      4 S           0.9920   -3.7460    0.0000 S.2     1  LIG1        0.0505
      5 C           0.7380   -2.7880    0.0000 C.ar    1  LIG1        0.1979
      6 N          -0.2290   -2.5210    0.0000 N.pl3   1  LIG1       -0.2132
      7 C          -0.4880   -1.5500    0.0000 C.3     1  LIG1        0.1190
      8 C          -1.4580   -1.2880    0.0000 C.3     1  LIG1        0.0498
      9 C          -1.7040   -0.3080    0.0000 C.ar    1  LIG1       -0.0172
     10 C          -2.6710   -0.0500    0.0000 C.ar    1  LIG1        0.0358
     11 C          -2.9330    0.9080    0.0000 C.ar    1  LIG1        0.1719
     12 C          -2.2290    1.6130    0.0000 C.ar    1  LIG1        0.1722
     13 C          -1.2580    1.3460    0.0000 C.ar    1  LIG1        0.0397
     14 C          -1.0040    0.4040    0.0000 C.ar    1  LIG1       -0.0009
     15 O          -2.4880    2.5830    0.0000 O.3     1  LIG1       -0.4724
     16 C          -3.4500    2.8460    0.0000 C.3     1  LIG1        0.2057
     17 C          -3.7040    3.8130    0.0000 C.3     1  LIG1        0.0512
     18 O          -3.9000    1.1630    0.0000 O.3     1  LIG1       -0.4724
     19 C          -4.6080    0.4540    0.0000 C.3     1  LIG1        0.2057
     20 C          -4.3420   -0.5040    0.0000 C.3     1  LIG1        0.0512
     21 C           3.3330   -2.6580    0.0000 C.3     1  LIG1        0.1307
     22 C           3.6290   -1.6960    0.0000 C.2     1  LIG1        0.1587
     23 O           4.6040   -1.4710    0.0000 O.2     1  LIG1       -0.2956
     24 C           2.9460   -0.9580    0.0000 C.3     1  LIG1        0.0727
@<TRIPOS>BOND
     1     1     2   ar
     2     1     5   ar
     3     2     3   ar
     4     2    21    1
     5     3     4   ar
     6     4     5   ar
     7     5     6    1
     8     6     7    1
     9     7     8    1
    10     8     9    1
    11     9    10   ar
    12     9    14   ar
    13    10    11   ar
    14    11    12   ar
    15    11    18    1
    16    12    13   ar
    17    12    15    1
    18    13    14   ar
    19    15    16    1
    20    16    17    1
    21    18    19    1
    22    19    20    1
    23    21    22    1
    24    22    23    2
    25    22    24    1
