@<TRIPOS>MOLECULE
35845_ChemDiv_C120-0019
 14 14 0 0 0
SMALL
GASTEIGER
Energy = 0

@<TRIPOS>ATOM
      1 N          -0.4750   -0.7540    0.0000 N.ar    1  LIG1       -0.2062
      2 C           0.2960   -1.4000    0.0000 C.ar    1  LIG1        0.1564
      3 N          -0.0670   -2.3130    0.0000 N.ar    1  LIG1       -0.1913
      4 S          -1.0670   -2.2540    0.0000 S.2     1  LIG1        0.0505
      5 C          -1.3210   -1.2960    0.0000 C.ar    1  LIG1        0.1979
      6 N          -2.2880   -1.0250    0.0000 N.pl3   1  LIG1       -0.2136
      7 C          -2.5460   -0.0580    0.0000 C.3     1  LIG1        0.1144
      8 C          -1.8330    0.6420    0.0000 C.3     1  LIG1        0.0234
      9 C          -2.0920    1.6130    0.0000 C.3     1  LIG1        0.0018
     10 C          -1.3830    2.3170    0.0000 C.3     1  LIG1        0.0001
     11 C           1.2710   -1.1630    0.0000 C.3     1  LIG1        0.1307
     12 C           1.5670   -0.2040    0.0000 C.2     1  LIG1        0.1587
     13 O           2.5420    0.0250    0.0000 O.2     1  LIG1       -0.2956
     14 C           0.8880    0.5330    0.0000 C.3     1  LIG1        0.0727
@<TRIPOS>BOND
     1     1     2   ar
     2     1     5   ar
     3     2     3   ar
     4     2    11    1
     5     3     4   ar
     6     4     5   ar
     7     5     6    1
     8     6     7    1
     9     7     8    1
    10     8     9    1
    11     9    10    1
    12    11    12    1
    13    12    13    2
    14    12    14    1
