@<TRIPOS>MOLECULE
35848_ChemDiv_K263-0744
 35 38 0 0 0
SMALL
GASTEIGER
Energy = 0

@<TRIPOS>ATOM
      1 C          -2.4210   -0.4830    0.0000 C.ar    1  LIG1        0.1033
      2 C          -2.4210   -1.4920    0.0000 C.ar    1  LIG1        0.0944
      3 N          -1.5580   -1.9920    0.0000 N.ar    1  LIG1       -0.2218
      4 C          -0.6880   -1.4920    0.0000 C.ar    1  LIG1        0.1739
      5 N          -0.6880   -0.4830    0.0000 N.ar    1  LIG1       -0.2751
      6 C          -1.5580    0.0170    0.0000 C.ar    1  LIG1        0.2697
      7 O          -1.5580    1.0130    0.0000 O.2     1  LIG1       -0.2663
      8 C           0.1750    0.0170    0.0000 C.3     1  LIG1        0.1162
      9 C           0.1750    1.0130    0.0000 C.3     1  LIG1        0.0859
     10 C           1.0380    1.5130    0.0000 C.3     1  LIG1        0.2371
     11 O           1.0380    2.5130    0.0000 O.3     1  LIG1       -0.3305
     12 C           1.9080    3.0130    0.0000 C.3     1  LIG1        0.1449
     13 C           2.7710    2.5130    0.0000 C.3     1  LIG1        0.0347
     14 O           1.9080    1.0130    0.0000 O.3     1  LIG1       -0.3305
     15 C           2.7710    1.5130    0.0000 C.3     1  LIG1        0.1449
     16 C           3.6330    1.0130    0.0000 C.3     1  LIG1        0.0347
     17 S           0.1830   -2.0000    0.0000 S.3     1  LIG1       -0.0689
     18 C           1.0460   -1.5000    0.0000 C.3     1  LIG1        0.1339
     19 C           1.9080   -2.0080    0.0000 C.2     1  LIG1        0.1844
     20 C           2.7710   -1.5080    0.0000 C.ar    1  LIG1        0.0390
     21 C           3.6330   -2.0080    0.0000 C.ar    1  LIG1        0.0483
     22 C           4.4960   -1.5130    0.0000 C.ar    1  LIG1        0.2343
     23 C           4.4960   -0.5170    0.0000 C.ar    1  LIG1        0.2343
     24 C           3.6290   -0.0170    0.0000 C.ar    1  LIG1        0.0455
     25 C           2.7710   -0.5170    0.0000 C.ar    1  LIG1        0.0064
     26 O           5.3580   -0.0170    0.0000 O.3     1  LIG1       -0.2831
     27 O           5.3580   -2.0130    0.0000 O.3     1  LIG1       -0.2831
     28 O           1.9080   -3.0080    0.0000 O.2     1  LIG1       -0.2904
     29 C          -3.3630   -1.8000    0.0000 C.ar    1  LIG1        0.0244
     30 C          -3.9540   -1.0000    0.0000 C.ar    1  LIG1        0.0311
     31 S          -3.3750   -0.1830    0.0000 S.2     1  LIG1       -0.0807
     32 C          -4.9500   -1.1040    0.0000 C.ar    1  LIG1        0.0065
     33 C          -5.3630   -2.0290    0.0000 C.ar    1  LIG1        0.0005
     34 C          -4.7670   -2.8420    0.0000 C.ar    1  LIG1        0.0001
     35 C          -3.7670   -2.7250    0.0000 C.ar    1  LIG1        0.0020
@<TRIPOS>BOND
     1     1     2   ar
     2     1     6   ar
     3     1    31   ar
     4     2     3   ar
     5     2    29   ar
     6     3     4   ar
     7     4     5   ar
     8     4    17    1
     9     5     6   ar
    10     5     8    1
    11     6     7    2
    12     8     9    1
    13     9    10    1
    14    10    11    1
    15    10    14    1
    16    11    12    1
    17    12    13    1
    18    14    15    1
    19    15    16    1
    20    17    18    1
    21    18    19    1
    22    19    20    1
    23    19    28    2
    24    20    21   ar
    25    20    25   ar
    26    21    22   ar
    27    22    23   ar
    28    22    27    1
    29    23    24   ar
    30    23    26    1
    31    24    25   ar
    32    29    30   ar
    33    29    35   ar
    34    30    31   ar
    35    30    32   ar
    36    32    33   ar
    37    33    34   ar
    38    34    35   ar
