@<TRIPOS>MOLECULE
35841_ChemDiv_C120-0008
 18 19 0 0 0
SMALL
GASTEIGER
Energy = 0

@<TRIPOS>ATOM
      1 N           0.3710   -1.0170    0.0000 N.ar    1  LIG1       -0.2059
      2 C          -0.4750   -1.5500    0.0000 C.ar    1  LIG1        0.2022
      3 S          -0.2080   -2.5210    0.0000 S.2     1  LIG1        0.0508
      4 N           0.7830   -2.5830    0.0000 N.ar    1  LIG1       -0.1913
      5 C           1.1460   -1.6500    0.0000 C.ar    1  LIG1        0.1564
      6 C           2.1170   -1.4000    0.0000 C.3     1  LIG1        0.1307
      7 C           2.3880   -0.4460    0.0000 C.2     1  LIG1        0.1587
      8 O           3.3580   -0.1960    0.0000 O.2     1  LIG1       -0.2956
      9 C           1.6920    0.2750    0.0000 C.3     1  LIG1        0.0727
     10 N          -1.4500   -1.2880    0.0000 N.pl3   1  LIG1       -0.1877
     11 C          -1.6960   -0.3080    0.0000 C.ar    1  LIG1        0.0686
     12 C          -2.6630   -0.0500    0.0000 C.ar    1  LIG1       -0.0068
     13 C          -2.9250    0.9080    0.0000 C.ar    1  LIG1       -0.0072
     14 C          -2.2210    1.6170    0.0000 C.ar    1  LIG1       -0.0221
     15 C          -1.2500    1.3500    0.0000 C.ar    1  LIG1       -0.0029
     16 C          -0.9920    0.4040    0.0000 C.ar    1  LIG1        0.0159
     17 C          -2.4790    2.5880    0.0000 C.3     1  LIG1        0.0310
     18 C          -3.3630   -0.7630    0.0000 C.3     1  LIG1        0.0324
@<TRIPOS>BOND
     1     1     2   ar
     2     1     5   ar
     3     2     3   ar
     4     2    10    1
     5     3     4   ar
     6     4     5   ar
     7     5     6    1
     8     6     7    1
     9     7     8    2
    10     7     9    1
    11    10    11    1
    12    11    12   ar
    13    11    16   ar
    14    12    13   ar
    15    12    18    1
    16    13    14   ar
    17    14    15   ar
    18    14    17    1
    19    15    16   ar
