@<TRIPOS>MOLECULE
35847_ChemDiv_C120-0032
 20 21 0 0 0
SMALL
GASTEIGER
Energy = 0

@<TRIPOS>ATOM
      1 N           0.1380   -2.2080    0.0000 N.ar    1  LIG1       -0.2059
      2 C          -0.7040   -2.7380    0.0000 C.ar    1  LIG1        0.2022
      3 S          -0.4540   -3.7040    0.0000 S.2     1  LIG1        0.0508
      4 N           0.5460   -3.7670    0.0000 N.ar    1  LIG1       -0.1913
      5 C           0.9080   -2.8500    0.0000 C.ar    1  LIG1        0.1564
      6 C           1.8830   -2.6170    0.0000 C.3     1  LIG1        0.1307
      7 C           2.1790   -1.6580    0.0000 C.2     1  LIG1        0.1587
      8 O           1.5040   -0.9210    0.0000 O.2     1  LIG1       -0.2956
      9 C           3.1540   -1.4330    0.0000 C.3     1  LIG1        0.0727
     10 N          -1.6750   -2.4790    0.0000 N.pl3   1  LIG1       -0.1874
     11 C          -1.9330   -1.5130    0.0000 C.ar    1  LIG1        0.0726
     12 C          -2.8920   -1.2540    0.0000 C.ar    1  LIG1        0.0163
     13 C          -3.1580   -0.2830    0.0000 C.ar    1  LIG1       -0.0029
     14 C          -2.4460    0.4250    0.0000 C.ar    1  LIG1       -0.0221
     15 C          -1.4790    0.1580    0.0000 C.ar    1  LIG1       -0.0029
     16 C          -1.2210   -0.8080    0.0000 C.ar    1  LIG1        0.0163
     17 C          -2.7040    1.3830    0.0000 C.3     1  LIG1        0.0264
     18 C          -1.9920    2.0920    0.0000 C.3     1  LIG1        0.0047
     19 C          -2.2500    3.0580    0.0000 C.3     1  LIG1        0.0003
     20 C          -1.5460    3.7710    0.0000 C.3     1  LIG1        0.0000
@<TRIPOS>BOND
     1     1     2   ar
     2     1     5   ar
     3     2     3   ar
     4     2    10    1
     5     3     4   ar
     6     4     5   ar
     7     5     6    1
     8     6     7    1
     9     7     8    2
    10     7     9    1
    11    10    11    1
    12    11    12   ar
    13    11    16   ar
    14    12    13   ar
    15    13    14   ar
    16    14    15   ar
    17    14    17    1
    18    15    16   ar
    19    17    18    1
    20    18    19    1
    21    19    20    1
