@<TRIPOS>MOLECULE
35846_ChemDiv_K263-0738
 30 32 0 0 0
SMALL
GASTEIGER
Energy = 0

@<TRIPOS>ATOM
      1 C          -1.9880   -0.4830    0.0000 C.ar    1  LIG1        0.1033
      2 C          -1.9920   -1.4920    0.0000 C.ar    1  LIG1        0.0944
      3 N          -1.1250   -1.9920    0.0000 N.ar    1  LIG1       -0.2218
      4 C          -0.2630   -1.4920    0.0000 C.ar    1  LIG1        0.1740
      5 N          -0.2630   -0.4830    0.0000 N.ar    1  LIG1       -0.2751
      6 C          -1.1250    0.0170    0.0000 C.ar    1  LIG1        0.2697
      7 O          -1.1250    1.0130    0.0000 O.2     1  LIG1       -0.2663
      8 C           0.5960    0.0170    0.0000 C.3     1  LIG1        0.1162
      9 C           0.5960    1.0130    0.0000 C.3     1  LIG1        0.0859
     10 C           1.4580    1.5130    0.0000 C.3     1  LIG1        0.2371
     11 O           1.4580    2.5080    0.0000 O.3     1  LIG1       -0.3305
     12 C           2.3290    3.0080    0.0000 C.3     1  LIG1        0.1449
     13 C           3.1920    2.5080    0.0000 C.3     1  LIG1        0.0347
     14 O           2.3290    1.0130    0.0000 O.3     1  LIG1       -0.3305
     15 C           3.1920    1.5130    0.0000 C.3     1  LIG1        0.1449
     16 C           4.0580    1.0130    0.0000 C.3     1  LIG1        0.0347
     17 S           0.6080   -1.9960    0.0000 S.3     1  LIG1       -0.0653
     18 C           1.4750   -1.4960    0.0000 C.3     1  LIG1        0.1742
     19 C           2.3380   -2.0040    0.0000 C.2     1  LIG1        0.3286
     20 O           2.3290   -3.0040    0.0000 O.2     1  LIG1       -0.2491
     21 O           3.1960   -1.5130    0.0000 O.3     1  LIG1       -0.4479
     22 C           4.0580   -2.0080    0.0000 C.3     1  LIG1        0.2086
     23 C           4.9290   -1.5130    0.0000 C.3     1  LIG1        0.0513
     24 C          -2.9380   -1.8000    0.0000 C.ar    1  LIG1        0.0244
     25 C          -3.5290   -1.0000    0.0000 C.ar    1  LIG1        0.0311
     26 S          -2.9380   -0.1830    0.0000 S.2     1  LIG1       -0.0807
     27 C          -4.5170   -1.1040    0.0000 C.ar    1  LIG1        0.0065
     28 C          -4.9330   -2.0250    0.0000 C.ar    1  LIG1        0.0005
     29 C          -4.3330   -2.8380    0.0000 C.ar    1  LIG1        0.0001
     30 C          -3.3330   -2.7210    0.0000 C.ar    1  LIG1        0.0020
@<TRIPOS>BOND
     1     1     2   ar
     2     1     6   ar
     3     1    26   ar
     4     2     3   ar
     5     2    24   ar
     6     3     4   ar
     7     4     5   ar
     8     4    17    1
     9     5     6   ar
    10     5     8    1
    11     6     7    2
    12     8     9    1
    13     9    10    1
    14    10    11    1
    15    10    14    1
    16    11    12    1
    17    12    13    1
    18    14    15    1
    19    15    16    1
    20    17    18    1
    21    18    19    1
    22    19    20    2
    23    19    21    1
    24    21    22    1
    25    22    23    1
    26    24    25   ar
    27    24    30   ar
    28    25    26   ar
    29    25    27   ar
    30    27    28   ar
    31    28    29   ar
    32    29    30   ar
