@<TRIPOS>MOLECULE
35857_ChemDiv_C169-0017
 26 29 0 0 0
SMALL
GASTEIGER
Energy = 0

@<TRIPOS>ATOM
      1 C           1.0580   -0.1630    0.0000 C.ar    1  LIG1        0.1559
      2 N           0.8580    0.8290    0.0000 N.ar    1  LIG1       -0.2737
      3 C           1.7040    1.3290    0.0000 C.ar    1  LIG1        0.1585
      4 N           2.4580    0.6540    0.0000 N.ar    1  LIG1       -0.2242
      5 C           2.0540   -0.2500    0.0000 C.ar    1  LIG1        0.1148
      6 C           2.5960   -1.0960    0.0000 C.ar    1  LIG1        0.0205
      7 C           3.5960   -1.0380    0.0000 C.ar    1  LIG1        0.0016
      8 C           4.1500   -1.8710    0.0000 C.ar    1  LIG1        0.0000
      9 C           3.6960   -2.7710    0.0000 C.ar    1  LIG1        0.0000
     10 C           2.6960   -2.8330    0.0000 C.ar    1  LIG1        0.0000
     11 C           2.1460   -1.9710    0.0000 C.ar    1  LIG1        0.0016
     12 C           1.7040    2.3330    0.0000 C.ar    1  LIG1        0.0712
     13 N           0.8580    2.8330    0.0000 N.ar    1  LIG1       -0.2476
     14 C          -0.0130    2.3330    0.0000 C.ar    1  LIG1        0.1172
     15 C          -0.0130    1.3290    0.0000 C.ar    1  LIG1        0.1033
     16 N           0.3960   -0.9040    0.0000 N.pl3   1  LIG1       -0.1939
     17 C          -0.5750   -0.7040    0.0000 C.ar    1  LIG1        0.0721
     18 C          -0.8790    0.2290    0.0000 C.ar    1  LIG1        0.0162
     19 C          -1.8750    0.4290    0.0000 C.ar    1  LIG1       -0.0029
     20 C          -2.5250   -0.3380    0.0000 C.ar    1  LIG1       -0.0224
     21 C          -2.2080   -1.2710    0.0000 C.ar    1  LIG1       -0.0029
     22 C          -1.2420   -1.4710    0.0000 C.ar    1  LIG1        0.0162
     23 C          -3.5080   -0.1460    0.0000 C.3     1  LIG1        0.0224
     24 C          -3.8420    0.7830    0.0000 C.3     1  LIG1        0.0047
     25 C          -4.1540   -0.9040    0.0000 C.3     1  LIG1        0.0047
     26 H           2.5920    2.8380    0.0000 H       1  LIG1        0.0867
@<TRIPOS>BOND
     1     1     2   ar
     2     1     5   ar
     3     1    16    1
     4     2     3   ar
     5     2    15   ar
     6     3     4   ar
     7     3    12   ar
     8     4     5   ar
     9     5     6    1
    10     6     7   ar
    11     6    11   ar
    12     7     8   ar
    13     8     9   ar
    14     9    10   ar
    15    10    11   ar
    16    12    13   ar
    17    12    26    1
    18    13    14   ar
    19    14    15   ar
    20    16    17    1
    21    17    18   ar
    22    17    22   ar
    23    18    19   ar
    24    19    20   ar
    25    20    21   ar
    26    20    23    1
    27    21    22   ar
    28    23    24    1
    29    23    25    1
