@<TRIPOS>MOLECULE
35854_ChemDiv_K292-1389
 40 42 0 0 0
SMALL
GASTEIGER
Energy = 0

@<TRIPOS>ATOM
      1 N          -4.3750    2.7630    0.0000 N.ar    1  LIG1       -0.2753
      2 C          -4.3750    1.7710    0.0000 C.ar    1  LIG1        0.1739
      3 N          -5.2670    1.2710    0.0000 N.ar    1  LIG1       -0.2218
      4 C          -6.1380    1.7710    0.0000 C.ar    1  LIG1        0.0945
      5 C          -6.1380    2.7630    0.0000 C.ar    1  LIG1        0.1033
      6 C          -5.2670    3.2460    0.0000 C.ar    1  LIG1        0.2697
      7 O          -5.2670    4.2420    0.0000 O.2     1  LIG1       -0.2663
      8 S          -7.1130    3.0710    0.0000 S.2     1  LIG1       -0.0802
      9 C          -7.7130    2.2630    0.0000 C.ar    1  LIG1        0.0372
     10 C          -7.1130    1.4750    0.0000 C.ar    1  LIG1        0.0268
     11 S          -3.5170    1.2670    0.0000 S.3     1  LIG1       -0.0693
     12 C          -3.5250    0.2670    0.0000 C.3     1  LIG1        0.1299
     13 C          -2.6630   -0.2330    0.0000 C.2     1  LIG1        0.1731
     14 C          -2.6790   -1.2290    0.0000 C.3     1  LIG1        0.1746
     15 C          -1.8170   -1.7460    0.0000 C.2     1  LIG1        0.3246
     16 O          -0.9420   -1.2460    0.0000 O.2     1  LIG1       -0.2496
     17 O          -1.8210   -2.7420    0.0000 O.3     1  LIG1       -0.4482
     18 C          -0.9710   -3.2420    0.0000 C.3     1  LIG1        0.2086
     19 C          -0.9750   -4.2420    0.0000 C.3     1  LIG1        0.0513
     20 O          -1.7920    0.2500    0.0000 O.2     1  LIG1       -0.2945
     21 C          -3.5170    3.2630    0.0000 C.3     1  LIG1        0.1110
     22 C          -2.6500    2.7670    0.0000 C.3     1  LIG1        0.0247
     23 C          -1.7880    3.2750    0.0000 C.3     1  LIG1        0.0025
     24 C          -0.9250    2.7790    0.0000 C.3     1  LIG1        0.0097
     25 C          -0.0630    3.2830    0.0000 C.3     1  LIG1        0.0868
     26 C           0.8080    2.7920    0.0000 C.2     1  LIG1        0.2414
     27 O           0.8170    1.7960    0.0000 O.2     1  LIG1       -0.2733
     28 N           1.6710    3.3080    0.0000 N.am    1  LIG1       -0.2051
     29 C           2.5380    2.8080    0.0000 C.3     1  LIG1        0.1198
     30 C           3.4000    3.3080    0.0000 C.3     1  LIG1        0.0499
     31 C           4.2630    2.8130    0.0000 C.ar    1  LIG1       -0.0172
     32 C           5.1210    3.3210    0.0000 C.ar    1  LIG1        0.0358
     33 C           5.9880    2.8380    0.0000 C.ar    1  LIG1        0.1721
     34 C           6.0000    1.8290    0.0000 C.ar    1  LIG1        0.1724
     35 C           5.1380    1.3250    0.0000 C.ar    1  LIG1        0.0397
     36 C           4.2630    1.8250    0.0000 C.ar    1  LIG1       -0.0009
     37 O           6.8670    1.3420    0.0000 O.3     1  LIG1       -0.4684
     38 C           6.8750    0.3420    0.0000 C.3     1  LIG1        0.2526
     39 O           6.8500    3.3380    0.0000 O.3     1  LIG1       -0.4684
     40 C           7.7130    2.8540    0.0000 C.3     1  LIG1        0.2526
@<TRIPOS>BOND
     1     1     2   ar
     2     1     6   ar
     3     1    21    1
     4     2     3   ar
     5     2    11    1
     6     3     4   ar
     7     4     5   ar
     8     4    10   ar
     9     5     6   ar
    10     5     8   ar
    11     6     7    2
    12     8     9   ar
    13     9    10   ar
    14    11    12    1
    15    12    13    1
    16    13    14    1
    17    13    20    2
    18    14    15    1
    19    15    16    2
    20    15    17    1
    21    17    18    1
    22    18    19    1
    23    21    22    1
    24    22    23    1
    25    23    24    1
    26    24    25    1
    27    25    26    1
    28    26    27    2
    29    26    28   am
    30    28    29    1
    31    29    30    1
    32    30    31    1
    33    31    32   ar
    34    31    36   ar
    35    32    33   ar
    36    33    34   ar
    37    33    39    1
    38    34    35   ar
    39    34    37    1
    40    35    36   ar
    41    37    38    1
    42    39    40    1
