@<TRIPOS>MOLECULE
35856_ChemDiv_K292-1482
 27 30 0 0 0
SMALL
GASTEIGER
Energy = 0

@<TRIPOS>ATOM
      1 N          -2.9880   -0.2710    0.0000 N.ar    1  LIG1       -0.2746
      2 C          -3.8710    0.2130    0.0000 C.ar    1  LIG1        0.2698
      3 C          -4.7460   -0.2710    0.0000 C.ar    1  LIG1        0.1033
      4 C          -4.7460   -1.2630    0.0000 C.ar    1  LIG1        0.0945
      5 N          -3.8710   -1.7630    0.0000 N.ar    1  LIG1       -0.2212
      6 C          -2.9880   -1.2630    0.0000 C.ar    1  LIG1        0.1838
      7 S          -2.0960   -1.7670    0.0000 S.2     1  LIG1       -0.0109
      8 C          -5.7250   -1.5540    0.0000 C.ar    1  LIG1        0.0268
      9 C          -6.3130   -0.7710    0.0000 C.ar    1  LIG1        0.0372
     10 S          -5.7250    0.0380    0.0000 S.2     1  LIG1       -0.0802
     11 O          -3.8710    1.2130    0.0000 O.2     1  LIG1       -0.2663
     12 C          -2.1250    0.2290    0.0000 C.3     1  LIG1        0.1110
     13 C          -1.2540   -0.2540    0.0000 C.3     1  LIG1        0.0252
     14 C          -0.4040    0.2500    0.0000 C.3     1  LIG1        0.0116
     15 C           0.4580   -0.2380    0.0000 C.3     1  LIG1        0.0872
     16 C           1.3210    0.2580    0.0000 C.2     1  LIG1        0.2456
     17 N           2.1920   -0.2330    0.0000 N.am    1  LIG1       -0.1792
     18 C           3.0540    0.2750    0.0000 C.ar    1  LIG1        0.0730
     19 C           3.9170   -0.2250    0.0000 C.ar    1  LIG1        0.0120
     20 C           4.7830    0.2790    0.0000 C.ar    1  LIG1       -0.0248
     21 C           4.7670    1.2790    0.0000 C.ar    1  LIG1       -0.0260
     22 C           3.9000    1.7710    0.0000 C.ar    1  LIG1       -0.0032
     23 C           3.0460    1.2630    0.0000 C.ar    1  LIG1        0.0163
     24 C           5.7170    1.5960    0.0000 C.3     1  LIG1        0.0264
     25 C           6.3130    0.7920    0.0000 C.3     1  LIG1        0.0093
     26 C           5.7380   -0.0130    0.0000 C.3     1  LIG1        0.0264
     27 O           1.3210    1.2580    0.0000 O.2     1  LIG1       -0.2730
@<TRIPOS>BOND
     1     1     2   ar
     2     1     6   ar
     3     1    12    1
     4     2     3   ar
     5     2    11    2
     6     3     4   ar
     7     3    10   ar
     8     4     5   ar
     9     4     8   ar
    10     5     6   ar
    11     6     7    2
    12     8     9   ar
    13     9    10   ar
    14    12    13    1
    15    13    14    1
    16    14    15    1
    17    15    16    1
    18    16    17   am
    19    16    27    2
    20    17    18    1
    21    18    19   ar
    22    18    23   ar
    23    19    20   ar
    24    20    21   ar
    25    20    26    1
    26    21    22   ar
    27    21    24    1
    28    22    23   ar
    29    24    25    1
    30    25    26    1
