@<TRIPOS>MOLECULE
35867_ChemDiv_C169-0193
 24 27 0 0 0
SMALL
GASTEIGER
Energy = 0

@<TRIPOS>ATOM
      1 C          -0.2460   -0.1540    0.0000 C.ar    1  LIG1        0.1559
      2 N          -0.4540    0.8330    0.0000 N.ar    1  LIG1       -0.2732
      3 C           0.4040    1.3290    0.0000 C.ar    1  LIG1        0.1681
      4 N           1.1540    0.6580    0.0000 N.ar    1  LIG1       -0.2235
      5 C           0.7500   -0.2540    0.0000 C.ar    1  LIG1        0.1148
      6 C           1.3000   -1.0920    0.0000 C.ar    1  LIG1        0.0210
      7 C           2.2920   -1.0420    0.0000 C.ar    1  LIG1        0.0083
      8 C           2.8380   -1.8790    0.0000 C.ar    1  LIG1        0.0346
      9 BR          3.8330   -1.8750    0.0000 Br      1  LIG1       -0.0490
     10 C           2.3830   -2.7790    0.0000 C.ar    1  LIG1        0.0067
     11 C           1.3790   -2.8290    0.0000 C.ar    1  LIG1        0.0006
     12 C           0.8380   -1.9880    0.0000 C.ar    1  LIG1        0.0016
     13 C           0.4040    2.3330    0.0000 C.ar    1  LIG1        0.1362
     14 N          -0.4540    2.8330    0.0000 N.ar    1  LIG1       -0.2376
     15 C          -1.3250    2.3330    0.0000 C.ar    1  LIG1        0.1180
     16 C          -1.3250    1.3290    0.0000 C.ar    1  LIG1        0.1033
     17 N          -0.9080   -0.9040    0.0000 N.pl3   1  LIG1       -0.1943
     18 C          -1.8830   -0.7080    0.0000 C.ar    1  LIG1        0.0681
     19 C          -2.5380   -1.4540    0.0000 C.ar    1  LIG1       -0.0065
     20 C          -2.2170   -2.4000    0.0000 C.3     1  LIG1        0.0324
     21 C          -3.5130   -1.2630    0.0000 C.ar    1  LIG1       -0.0030
     22 C          -3.8380   -0.3170    0.0000 C.ar    1  LIG1       -0.0002
     23 C          -3.1790    0.4380    0.0000 C.ar    1  LIG1        0.0013
     24 C          -2.2040    0.2420    0.0000 C.ar    1  LIG1        0.0162
@<TRIPOS>BOND
     1     1     2   ar
     2     1     5   ar
     3     1    17    1
     4     2     3   ar
     5     2    16   ar
     6     3     4   ar
     7     3    13   ar
     8     4     5   ar
     9     5     6    1
    10     6     7   ar
    11     6    12   ar
    12     7     8   ar
    13     8     9    1
    14     8    10   ar
    15    10    11   ar
    16    11    12   ar
    17    13    14   ar
    18    14    15   ar
    19    15    16   ar
    20    17    18    1
    21    18    19   ar
    22    18    24   ar
    23    19    20    1
    24    19    21   ar
    25    21    22   ar
    26    22    23   ar
    27    23    24   ar
