@<TRIPOS>MOLECULE
35863_ChemDiv_C169-0140
 28 31 0 0 0
SMALL
GASTEIGER
Energy = 0

@<TRIPOS>ATOM
      1 C          -0.6130    0.6880    0.0000 C.ar    1  LIG1        0.1559
      2 N          -0.8290    1.6540    0.0000 N.ar    1  LIG1       -0.2737
      3 C           0.0290    2.1580    0.0000 C.ar    1  LIG1        0.1585
      4 N           0.7830    1.4880    0.0000 N.ar    1  LIG1       -0.2242
      5 C           0.3630    0.5790    0.0000 C.ar    1  LIG1        0.1148
      6 C           0.9040   -0.2630    0.0000 C.ar    1  LIG1        0.0206
      7 C           0.4630   -1.1420    0.0000 C.ar    1  LIG1        0.0029
      8 C           1.0080   -1.9880    0.0000 C.ar    1  LIG1        0.0146
      9 C           1.9960   -1.9290    0.0000 C.ar    1  LIG1        0.0479
     10 N           2.5540   -2.7750    0.0000 N.pl3   1  LIG1       -0.3041
     11 C           3.5630   -2.7170    0.0000 C.3     1  LIG1        0.1122
     12 C           2.0960   -3.6670    0.0000 C.3     1  LIG1        0.1122
     13 C           2.4580   -1.0380    0.0000 C.ar    1  LIG1        0.0146
     14 C           1.9130   -0.2000    0.0000 C.ar    1  LIG1        0.0029
     15 C           0.0290    3.1670    0.0000 C.ar    1  LIG1        0.0712
     16 N          -0.8290    3.6630    0.0000 N.ar    1  LIG1       -0.2476
     17 C          -1.7000    3.1670    0.0000 C.ar    1  LIG1        0.1172
     18 C          -1.7000    2.1580    0.0000 C.ar    1  LIG1        0.1033
     19 N          -1.2750   -0.0630    0.0000 N.pl3   1  LIG1       -0.1946
     20 C          -1.9420   -0.8130    0.0000 C.ar    1  LIG1        0.0642
     21 C          -1.6170   -1.7580    0.0000 C.ar    1  LIG1       -0.0069
     22 C          -2.2670   -2.5000    0.0000 C.ar    1  LIG1       -0.0030
     23 C          -3.2500   -2.3040    0.0000 C.ar    1  LIG1       -0.0006
     24 C          -3.5670   -1.3710    0.0000 C.ar    1  LIG1       -0.0030
     25 C          -2.9080   -0.6250    0.0000 C.ar    1  LIG1       -0.0069
     26 C          -3.2330    0.3380    0.0000 C.3     1  LIG1        0.0324
     27 C          -0.6380   -1.9540    0.0000 C.3     1  LIG1        0.0324
     28 H           0.9040    3.6710    0.0000 H       1  LIG1        0.0867
@<TRIPOS>BOND
     1     1     2   ar
     2     1     5   ar
     3     1    19    1
     4     2     3   ar
     5     2    18   ar
     6     3     4   ar
     7     3    15   ar
     8     4     5   ar
     9     5     6    1
    10     6     7   ar
    11     6    14   ar
    12     7     8   ar
    13     8     9   ar
    14     9    10    1
    15     9    13   ar
    16    10    11    1
    17    10    12    1
    18    13    14   ar
    19    15    16   ar
    20    15    28    1
    21    16    17   ar
    22    17    18   ar
    23    19    20    1
    24    20    21   ar
    25    20    25   ar
    26    21    22   ar
    27    21    27    1
    28    22    23   ar
    29    23    24   ar
    30    24    25   ar
    31    25    26    1
