@<TRIPOS>MOLECULE
35864_ChemDiv_C169-0256
 23 26 0 0 0
SMALL
GASTEIGER
Energy = 0

@<TRIPOS>ATOM
      1 C           1.0250   -0.3670    0.0000 C.ar    1  LIG1        0.1492
      2 C           0.0290   -0.2710    0.0000 C.ar    1  LIG1        0.1590
      3 N          -0.1830    0.7080    0.0000 N.ar    1  LIG1       -0.2731
      4 C           0.6830    1.2040    0.0000 C.ar    1  LIG1        0.1683
      5 N           1.4290    0.5290    0.0000 N.ar    1  LIG1       -0.2204
      6 C           0.6830    2.2130    0.0000 C.ar    1  LIG1        0.1362
      7 N          -0.1830    2.7130    0.0000 N.ar    1  LIG1       -0.2376
      8 C          -1.0500    2.2080    0.0000 C.ar    1  LIG1        0.1180
      9 C          -1.0500    1.2040    0.0000 C.ar    1  LIG1        0.1033
     10 N          -0.6420   -1.0170    0.0000 N.pl3   1  LIG1       -0.1939
     11 C          -1.6250   -0.8130    0.0000 C.ar    1  LIG1        0.0718
     12 C          -2.2790   -1.5670    0.0000 C.ar    1  LIG1        0.0123
     13 C          -3.2540   -1.3710    0.0000 C.ar    1  LIG1       -0.0206
     14 C          -3.5750   -0.4250    0.0000 C.ar    1  LIG1       -0.0042
     15 C          -2.9130    0.3250    0.0000 C.ar    1  LIG1        0.0010
     16 C          -1.9380    0.1250    0.0000 C.ar    1  LIG1        0.0165
     17 C          -3.9170   -2.1130    0.0000 C.3     1  LIG1        0.0311
     18 C           1.6130   -1.1880    0.0000 C.ar    1  LIG1        0.1652
     19 O           2.6080   -1.1460    0.0000 O.2     1  LIG1       -0.4561
     20 C           2.9500   -2.0880    0.0000 C.ar    1  LIG1        0.1234
     21 C           2.1710   -2.7080    0.0000 C.ar    1  LIG1        0.0361
     22 C           1.3330   -2.1500    0.0000 C.ar    1  LIG1        0.0419
     23 C           3.9130   -2.3580    0.0000 C.3     1  LIG1        0.0725
@<TRIPOS>BOND
     1     1     2   ar
     2     1     5   ar
     3     1    18    1
     4     2     3   ar
     5     2    10    1
     6     3     4   ar
     7     3     9   ar
     8     4     5   ar
     9     4     6   ar
    10     6     7   ar
    11     7     8   ar
    12     8     9   ar
    13    10    11    1
    14    11    12   ar
    15    11    16   ar
    16    12    13   ar
    17    13    14   ar
    18    13    17    1
    19    14    15   ar
    20    15    16   ar
    21    18    19   ar
    22    18    22   ar
    23    19    20   ar
    24    20    21   ar
    25    20    23    1
    26    21    22   ar
