@<TRIPOS>MOLECULE
35862_ChemDiv_C169-0253
 25 28 0 0 0
SMALL
GASTEIGER
Energy = 0

@<TRIPOS>ATOM
      1 C           1.6750   -0.3670    0.0000 C.ar    1  LIG1        0.1492
      2 C           0.6830   -0.2710    0.0000 C.ar    1  LIG1        0.1590
      3 N           0.4670    0.7080    0.0000 N.ar    1  LIG1       -0.2731
      4 C           1.3330    1.2040    0.0000 C.ar    1  LIG1        0.1683
      5 N           2.0830    0.5330    0.0000 N.ar    1  LIG1       -0.2204
      6 C           1.3330    2.2130    0.0000 C.ar    1  LIG1        0.1362
      7 N           0.4670    2.7130    0.0000 N.ar    1  LIG1       -0.2376
      8 C          -0.3960    2.2040    0.0000 C.ar    1  LIG1        0.1180
      9 C          -0.3960    1.2040    0.0000 C.ar    1  LIG1        0.1033
     10 N           0.0170   -1.0170    0.0000 N.pl3   1  LIG1       -0.1939
     11 C          -0.9630   -0.8170    0.0000 C.ar    1  LIG1        0.0721
     12 C          -1.6210   -1.5670    0.0000 C.ar    1  LIG1        0.0162
     13 C          -2.6040   -1.3670    0.0000 C.ar    1  LIG1       -0.0029
     14 C          -2.9210   -0.4210    0.0000 C.ar    1  LIG1       -0.0224
     15 C          -2.2540    0.3250    0.0000 C.ar    1  LIG1       -0.0029
     16 C          -1.2830    0.1250    0.0000 C.ar    1  LIG1        0.0162
     17 C          -3.9170   -0.2250    0.0000 C.3     1  LIG1        0.0224
     18 C          -4.5670   -0.9960    0.0000 C.3     1  LIG1        0.0047
     19 C          -4.2420    0.7080    0.0000 C.3     1  LIG1        0.0047
     20 C           2.2630   -1.1920    0.0000 C.ar    1  LIG1        0.1652
     21 O           3.2540   -1.1460    0.0000 O.2     1  LIG1       -0.4561
     22 C           3.6040   -2.0830    0.0000 C.ar    1  LIG1        0.1234
     23 C           2.8210   -2.7080    0.0000 C.ar    1  LIG1        0.0361
     24 C           1.9920   -2.1460    0.0000 C.ar    1  LIG1        0.0419
     25 C           4.5630   -2.3540    0.0000 C.3     1  LIG1        0.0725
@<TRIPOS>BOND
     1     1     2   ar
     2     1     5   ar
     3     1    20    1
     4     2     3   ar
     5     2    10    1
     6     3     4   ar
     7     3     9   ar
     8     4     5   ar
     9     4     6   ar
    10     6     7   ar
    11     7     8   ar
    12     8     9   ar
    13    10    11    1
    14    11    12   ar
    15    11    16   ar
    16    12    13   ar
    17    13    14   ar
    18    14    15   ar
    19    14    17    1
    20    15    16   ar
    21    17    18    1
    22    17    19    1
    23    20    21   ar
    24    20    24   ar
    25    21    22   ar
    26    22    23   ar
    27    22    25    1
    28    23    24   ar
