@<TRIPOS>MOLECULE
35860_ChemDiv_C177-0101
 25 29 0 0 0
SMALL
GASTEIGER
Energy = 0

@<TRIPOS>ATOM
      1 C           0.6580   -0.3040    0.0000 C.ar    1  LIG1        0.1163
      2 C          -0.3460   -0.2130    0.0000 C.ar    1  LIG1        0.1559
      3 N          -0.5630    0.7790    0.0000 N.ar    1  LIG1       -0.2760
      4 C           0.3080    1.2960    0.0000 C.ar    1  LIG1        0.1487
      5 N           1.0580    0.6080    0.0000 N.ar    1  LIG1       -0.2250
      6 C           0.3080    2.3000    0.0000 C.ar    1  LIG1        0.0375
      7 C          -0.5630    2.7880    0.0000 C.ar    1  LIG1        0.0046
      8 C          -1.4330    2.3000    0.0000 C.ar    1  LIG1        0.0192
      9 C          -1.4330    1.2960    0.0000 C.ar    1  LIG1        0.0826
     10 N          -0.9960   -0.9580    0.0000 N.pl3   1  LIG1       -0.1939
     11 C          -1.9710   -0.7580    0.0000 C.ar    1  LIG1        0.0721
     12 C          -2.6420   -1.5080    0.0000 C.ar    1  LIG1        0.0166
     13 C          -3.6080   -1.3080    0.0000 C.ar    1  LIG1        0.0013
     14 C          -3.9420   -0.3790    0.0000 C.ar    1  LIG1        0.0001
     15 C          -3.2880    0.3790    0.0000 C.ar    1  LIG1        0.0013
     16 C          -2.3000    0.1790    0.0000 C.ar    1  LIG1        0.0166
     17 C           1.1250   -1.1960    0.0000 C.ar    1  LIG1        0.0410
     18 C           0.6380   -2.0830    0.0000 C.ar    1  LIG1        0.1004
     19 N           1.3420   -2.7830    0.0000 N.ar    1  LIG1       -0.2438
     20 C           2.2250   -2.3790    0.0000 C.ar    1  LIG1        0.0814
     21 C           2.1080   -1.3830    0.0000 C.ar    1  LIG1        0.0207
     22 C           2.9130   -0.7960    0.0000 C.ar    1  LIG1        0.0016
     23 C           3.8290   -1.1790    0.0000 C.ar    1  LIG1        0.0001
     24 C           3.9380   -2.1790    0.0000 C.ar    1  LIG1        0.0015
     25 C           3.1500   -2.7630    0.0000 C.ar    1  LIG1        0.0191
@<TRIPOS>BOND
     1     1     2   ar
     2     1     5   ar
     3     1    17    1
     4     2     3   ar
     5     2    10    1
     6     3     4   ar
     7     3     9   ar
     8     4     5   ar
     9     4     6   ar
    10     6     7   ar
    11     7     8   ar
    12     8     9   ar
    13    10    11    1
    14    11    12   ar
    15    11    16   ar
    16    12    13   ar
    17    13    14   ar
    18    14    15   ar
    19    15    16   ar
    20    17    18   ar
    21    17    21   ar
    22    18    19   ar
    23    19    20   ar
    24    20    21   ar
    25    20    25   ar
    26    21    22   ar
    27    22    23   ar
    28    23    24   ar
    29    24    25   ar
