@<TRIPOS>MOLECULE
35865_ChemDiv_C169-0145
 25 28 0 0 0
SMALL
GASTEIGER
Energy = 0

@<TRIPOS>ATOM
      1 C          -0.2040    0.6790    0.0000 C.ar    1  LIG1        0.1559
      2 N          -0.4460    1.6500    0.0000 N.ar    1  LIG1       -0.2732
      3 C           0.3960    2.1880    0.0000 C.ar    1  LIG1        0.1681
      4 N           1.1670    1.5420    0.0000 N.ar    1  LIG1       -0.2235
      5 C           0.7920    0.6210    0.0000 C.ar    1  LIG1        0.1148
      6 C           1.3170   -0.2250    0.0000 C.ar    1  LIG1        0.0206
      7 C           0.8500   -1.1130    0.0000 C.ar    1  LIG1        0.0029
      8 C           1.3790   -1.9580    0.0000 C.ar    1  LIG1        0.0146
      9 C           2.3830   -1.9250    0.0000 C.ar    1  LIG1        0.0479
     10 N           2.9170   -2.7580    0.0000 N.pl3   1  LIG1       -0.3041
     11 C           2.4460   -3.6500    0.0000 C.3     1  LIG1        0.1122
     12 C           3.9130   -2.7250    0.0000 C.3     1  LIG1        0.1122
     13 C           2.8500   -1.0330    0.0000 C.ar    1  LIG1        0.0146
     14 C           2.3130   -0.1960    0.0000 C.ar    1  LIG1        0.0029
     15 C           0.3670    3.1750    0.0000 C.ar    1  LIG1        0.1362
     16 N          -0.5210    3.6540    0.0000 N.ar    1  LIG1       -0.2376
     17 C          -1.3670    3.1250    0.0000 C.ar    1  LIG1        0.1180
     18 C          -1.3380    2.1210    0.0000 C.ar    1  LIG1        0.1033
     19 N          -0.9130   -0.0290    0.0000 N.pl3   1  LIG1       -0.1939
     20 C          -1.9170   -0.0130    0.0000 C.ar    1  LIG1        0.0721
     21 C          -2.4130    0.8500    0.0000 C.ar    1  LIG1        0.0166
     22 C          -3.4170    0.8630    0.0000 C.ar    1  LIG1        0.0013
     23 C          -3.9170   -0.0080    0.0000 C.ar    1  LIG1        0.0001
     24 C          -3.4170   -0.8710    0.0000 C.ar    1  LIG1        0.0013
     25 C          -2.4250   -0.8710    0.0000 C.ar    1  LIG1        0.0166
@<TRIPOS>BOND
     1     1     2   ar
     2     1     5   ar
     3     1    19    1
     4     2     3   ar
     5     2    18   ar
     6     3     4   ar
     7     3    15   ar
     8     4     5   ar
     9     5     6    1
    10     6     7   ar
    11     6    14   ar
    12     7     8   ar
    13     8     9   ar
    14     9    10    1
    15     9    13   ar
    16    10    11    1
    17    10    12    1
    18    13    14   ar
    19    15    16   ar
    20    16    17   ar
    21    17    18   ar
    22    19    20    1
    23    20    21   ar
    24    20    25   ar
    25    21    22   ar
    26    22    23   ar
    27    23    24   ar
    28    24    25   ar
