@<TRIPOS>MOLECULE
35868_ChemDiv_C169-0361
 25 28 0 0 0
SMALL
GASTEIGER
Energy = 0

@<TRIPOS>ATOM
      1 C           0.5130    0.2830    0.0000 C.ar    1  LIG1        0.1589
      2 C           1.4960    0.1830    0.0000 C.ar    1  LIG1        0.1492
      3 N           1.8960    1.0880    0.0000 N.ar    1  LIG1       -0.2204
      4 C           1.1630    1.7540    0.0000 C.ar    1  LIG1        0.1683
      5 N           0.3040    1.2540    0.0000 N.ar    1  LIG1       -0.2731
      6 C          -0.5750    1.7540    0.0000 C.ar    1  LIG1        0.1033
      7 C          -0.5750    2.7580    0.0000 C.ar    1  LIG1        0.1180
      8 N           0.2960    3.2580    0.0000 N.ar    1  LIG1       -0.2376
      9 C           1.1630    2.7580    0.0000 C.ar    1  LIG1        0.1362
     10 C           2.0000   -0.6830    0.0000 C.ar    1  LIG1        0.1652
     11 O           1.5880   -1.6000    0.0000 O.2     1  LIG1       -0.4561
     12 C           2.3290   -2.2630    0.0000 C.ar    1  LIG1        0.1234
     13 C           3.2080   -1.7500    0.0000 C.ar    1  LIG1        0.0361
     14 C           2.9880   -0.7830    0.0000 C.ar    1  LIG1        0.0419
     15 C           2.2290   -3.2540    0.0000 C.3     1  LIG1        0.0725
     16 N          -0.2080   -0.4250    0.0000 N.pl3   1  LIG1       -0.1945
     17 C          -1.2130   -0.4170    0.0000 C.ar    1  LIG1        0.0642
     18 C          -1.7080   -1.2790    0.0000 C.ar    1  LIG1       -0.0069
     19 C          -2.7040   -1.2790    0.0000 C.ar    1  LIG1       -0.0030
     20 C          -3.2130   -0.4040    0.0000 C.ar    1  LIG1       -0.0006
     21 C          -2.7040    0.4580    0.0000 C.ar    1  LIG1       -0.0030
     22 C          -1.7040    0.4580    0.0000 C.ar    1  LIG1       -0.0072
     23 C          -1.1960    1.3210    0.0000 C.3     1  LIG1        0.0277
     24 C          -1.6920    2.1880    0.0000 C.3     1  LIG1        0.0051
     25 C          -1.2130   -2.1500    0.0000 C.3     1  LIG1        0.0324
@<TRIPOS>BOND
     1     1     2   ar
     2     1     5   ar
     3     1    16    1
     4     2     3   ar
     5     2    10    1
     6     3     4   ar
     7     4     5   ar
     8     4     9   ar
     9     5     6   ar
    10     6     7   ar
    11     7     8   ar
    12     8     9   ar
    13    10    11   ar
    14    10    14   ar
    15    11    12   ar
    16    12    13   ar
    17    12    15    1
    18    13    14   ar
    19    16    17    1
    20    17    18   ar
    21    17    22   ar
    22    18    19   ar
    23    18    25    1
    24    19    20   ar
    25    20    21   ar
    26    21    22   ar
    27    22    23    1
    28    23    24    1
