@<TRIPOS>MOLECULE
35878_ChemDiv_K292-2043
 37 40 0 0 0
SMALL
GASTEIGER
Energy = 0

@<TRIPOS>ATOM
      1 N          -3.5460    2.0330    0.0000 N.ar    1  LIG1       -0.2752
      2 C          -3.5500    1.0250    0.0000 C.ar    1  LIG1        0.1739
      3 N          -4.4250    0.5250    0.0000 N.ar    1  LIG1       -0.2218
      4 C          -5.2920    1.0420    0.0000 C.ar    1  LIG1        0.0945
      5 C          -5.2880    2.0380    0.0000 C.ar    1  LIG1        0.1033
      6 C          -4.4250    2.5380    0.0000 C.ar    1  LIG1        0.2697
      7 O          -4.4130    3.5380    0.0000 O.2     1  LIG1       -0.2663
      8 S          -6.2330    2.3500    0.0000 S.2     1  LIG1       -0.0802
      9 C          -6.8130    1.5420    0.0000 C.ar    1  LIG1        0.0372
     10 C          -6.2330    0.7330    0.0000 C.ar    1  LIG1        0.0268
     11 S          -2.7000    0.5210    0.0000 S.3     1  LIG1       -0.0674
     12 C          -2.6830   -0.4750    0.0000 C.3     1  LIG1        0.1500
     13 C          -1.8130   -0.9750    0.0000 C.2     1  LIG1        0.2371
     14 N          -1.8080   -1.9750    0.0000 N.am    1  LIG1       -0.2788
     15 C          -2.6080   -2.5790    0.0000 C.3     1  LIG1        0.0935
     16 C          -2.2920   -3.5330    0.0000 C.3     1  LIG1        0.0233
     17 C          -1.2830   -3.5170    0.0000 C.3     1  LIG1        0.0233
     18 C          -0.9790   -2.5580    0.0000 C.3     1  LIG1        0.0935
     19 O          -0.9500   -0.4630    0.0000 O.2     1  LIG1       -0.2739
     20 C          -2.6830    2.5330    0.0000 C.3     1  LIG1        0.1115
     21 C          -1.8210    2.0330    0.0000 C.3     1  LIG1        0.0343
     22 C          -0.9500    2.5210    0.0000 C.3     1  LIG1        0.0888
     23 C          -0.0880    2.0250    0.0000 C.2     1  LIG1        0.2414
     24 O          -0.0960    1.0250    0.0000 O.2     1  LIG1       -0.2733
     25 N           0.7790    2.5170    0.0000 N.am    1  LIG1       -0.2051
     26 C           1.6420    2.0170    0.0000 C.3     1  LIG1        0.1198
     27 C           2.5040    2.5170    0.0000 C.3     1  LIG1        0.0498
     28 C           3.3670    2.0080    0.0000 C.ar    1  LIG1       -0.0203
     29 C           3.3630    1.0080    0.0000 C.ar    1  LIG1       -0.0028
     30 C           4.2250    0.5130    0.0000 C.ar    1  LIG1        0.0197
     31 C           5.0920    1.0040    0.0000 C.ar    1  LIG1        0.1250
     32 S           5.9540    0.5080    0.0000 S.O2    1  LIG1        0.0935
     33 O           5.4540   -0.3540    0.0000 O.2     1  LIG1       -0.1503
     34 O           6.4630    1.3670    0.0000 O.2     1  LIG1       -0.1503
     35 N           6.8130    0.0130    0.0000 N.3     1  LIG1        0.0392
     36 C           5.0920    2.0080    0.0000 C.ar    1  LIG1        0.0197
     37 C           4.2290    2.5080    0.0000 C.ar    1  LIG1       -0.0028
@<TRIPOS>BOND
     1     1     2   ar
     2     1     6   ar
     3     1    20    1
     4     2     3   ar
     5     2    11    1
     6     3     4   ar
     7     4     5   ar
     8     4    10   ar
     9     5     6   ar
    10     5     8   ar
    11     6     7    2
    12     8     9   ar
    13     9    10   ar
    14    11    12    1
    15    12    13    1
    16    13    14   am
    17    13    19    2
    18    14    15    1
    19    14    18    1
    20    15    16    1
    21    16    17    1
    22    17    18    1
    23    20    21    1
    24    21    22    1
    25    22    23    1
    26    23    24    2
    27    23    25   am
    28    25    26    1
    29    26    27    1
    30    27    28    1
    31    28    29   ar
    32    28    37   ar
    33    29    30   ar
    34    30    31   ar
    35    31    32    1
    36    31    36   ar
    37    32    33    2
    38    32    34    2
    39    32    35    1
    40    36    37   ar
