@<TRIPOS>MOLECULE
35871_ChemDiv_C169-0235
 25 28 0 0 0
SMALL
GASTEIGER
Energy = 0

@<TRIPOS>ATOM
      1 C          -0.2790   -0.1920    0.0000 C.ar    1  LIG1        0.1559
      2 N          -0.7380    0.6920    0.0000 N.ar    1  LIG1       -0.2732
      3 C          -0.0380    1.3880    0.0000 C.ar    1  LIG1        0.1681
      4 N           0.8420    0.9380    0.0000 N.ar    1  LIG1       -0.2235
      5 C           0.6880   -0.0540    0.0000 C.ar    1  LIG1        0.1148
      6 C           1.4630   -0.6920    0.0000 C.ar    1  LIG1        0.0205
      7 C           1.2920   -1.6790    0.0000 C.ar    1  LIG1        0.0021
      8 C           2.0670   -2.3170    0.0000 C.ar    1  LIG1        0.0062
      9 C           3.0130   -1.9630    0.0000 C.ar    1  LIG1        0.0252
     10 S           3.7880   -2.6000    0.0000 S.3     1  LIG1       -0.1127
     11 C           4.7290   -2.2420    0.0000 C.3     1  LIG1        0.0742
     12 C           3.1830   -0.9750    0.0000 C.ar    1  LIG1        0.0062
     13 C           2.4040   -0.3380    0.0000 C.ar    1  LIG1        0.0021
     14 C          -0.2960    2.3500    0.0000 C.ar    1  LIG1        0.1362
     15 N          -1.2710    2.6040    0.0000 N.ar    1  LIG1       -0.2376
     16 C          -1.9540    1.9210    0.0000 C.ar    1  LIG1        0.1180
     17 C          -1.6920    0.9500    0.0000 C.ar    1  LIG1        0.1033
     18 N          -0.7380   -1.1000    0.0000 N.pl3   1  LIG1       -0.1939
     19 C          -1.7290   -1.1630    0.0000 C.ar    1  LIG1        0.0721
     20 C          -2.1710   -2.0580    0.0000 C.ar    1  LIG1        0.0162
     21 C          -3.1710   -2.1290    0.0000 C.ar    1  LIG1       -0.0029
     22 C          -3.7290   -1.2960    0.0000 C.ar    1  LIG1       -0.0218
     23 C          -3.2880   -0.3960    0.0000 C.ar    1  LIG1       -0.0029
     24 C          -2.2880   -0.3250    0.0000 C.ar    1  LIG1        0.0162
     25 C          -4.7330   -1.3630    0.0000 C.3     1  LIG1        0.0310
@<TRIPOS>BOND
     1     1     2   ar
     2     1     5   ar
     3     1    18    1
     4     2     3   ar
     5     2    17   ar
     6     3     4   ar
     7     3    14   ar
     8     4     5   ar
     9     5     6    1
    10     6     7   ar
    11     6    13   ar
    12     7     8   ar
    13     8     9   ar
    14     9    10    1
    15     9    12   ar
    16    10    11    1
    17    12    13   ar
    18    14    15   ar
    19    15    16   ar
    20    16    17   ar
    21    18    19    1
    22    19    20   ar
    23    19    24   ar
    24    20    21   ar
    25    21    22   ar
    26    22    23   ar
    27    22    25    1
    28    23    24   ar
