@<TRIPOS>MOLECULE
35872_ChemDiv_C169-0286
 29 32 0 0 0
SMALL
GASTEIGER
Energy = 0

@<TRIPOS>ATOM
      1 C          -0.1170   -0.8750    0.0000 C.ar    1  LIG1        0.1561
      2 N          -0.3290    0.1040    0.0000 N.ar    1  LIG1       -0.2655
      3 C           0.5380    0.6040    0.0000 C.ar    1  LIG1        0.2203
      4 N           1.2790   -0.0710    0.0000 N.ar    1  LIG1       -0.2196
      5 C           0.8670   -0.9710    0.0000 C.ar    1  LIG1        0.1150
      6 C           1.3330   -1.8630    0.0000 C.ar    1  LIG1        0.0207
      7 C           2.3330   -1.9170    0.0000 C.ar    1  LIG1        0.0047
      8 C           2.7920   -2.8000    0.0000 C.ar    1  LIG1        0.0370
      9 C           2.2460   -3.6460    0.0000 C.ar    1  LIG1        0.1387
     10 C           1.2460   -3.6000    0.0000 C.ar    1  LIG1        0.0370
     11 C           0.7920   -2.7040    0.0000 C.ar    1  LIG1        0.0047
     12 O           2.7000   -4.5420    0.0000 O.3     1  LIG1       -0.4714
     13 C           3.7130   -4.6040    0.0000 C.3     1  LIG1        0.2525
     14 C           0.5380    1.6080    0.0000 C.ar    1  LIG1        0.3282
     15 N          -0.3290    2.1080    0.0000 N.ar    1  LIG1       -0.1474
     16 C          -1.1960    1.6080    0.0000 C.ar    1  LIG1        0.3099
     17 C          -1.1960    0.6040    0.0000 C.ar    1  LIG1        0.1591
     18 C          -0.3290    3.1080    0.0000 C.3     1  LIG1        0.4115
     19 C           0.5380    3.6080    0.0000 C.2     1  LIG1        0.3403
     20 O           1.4000    3.1080    0.0000 O.2     1  LIG1       -0.2640
     21 N           0.5380    4.6040    0.0000 N.am    1  LIG1       -0.0817
     22 N          -0.7830   -1.6210    0.0000 N.pl3   1  LIG1       -0.1943
     23 C          -1.7500   -1.4250    0.0000 C.ar    1  LIG1        0.0681
     24 C          -2.4080   -2.1750    0.0000 C.ar    1  LIG1       -0.0065
     25 C          -2.0830   -3.1290    0.0000 C.3     1  LIG1        0.0324
     26 C          -3.3880   -1.9830    0.0000 C.ar    1  LIG1       -0.0030
     27 C          -3.7170   -1.0420    0.0000 C.ar    1  LIG1       -0.0002
     28 C          -3.0540   -0.2880    0.0000 C.ar    1  LIG1        0.0013
     29 C          -2.0750   -0.4830    0.0000 C.ar    1  LIG1        0.0162
@<TRIPOS>BOND
     1     1     2   ar
     2     1     5   ar
     3     1    22    1
     4     2     3   ar
     5     2    17   ar
     6     3     4   ar
     7     3    14   ar
     8     4     5   ar
     9     5     6    1
    10     6     7   ar
    11     6    11   ar
    12     7     8   ar
    13     8     9   ar
    14     9    10   ar
    15     9    12    1
    16    10    11   ar
    17    12    13    1
    18    14    15   ar
    19    15    16   ar
    20    15    18    1
    21    16    17   ar
    22    18    19    1
    23    19    20    2
    24    19    21   am
    25    22    23    1
    26    23    24   ar
    27    23    29   ar
    28    24    25    1
    29    24    26   ar
    30    26    27   ar
    31    27    28   ar
    32    28    29   ar
