@<TRIPOS>MOLECULE
35870_ChemDiv_C169-0277
 23 26 0 0 0
SMALL
GASTEIGER
Energy = 0

@<TRIPOS>ATOM
      1 C           0.5670   -0.1250    0.0000 C.ar    1  LIG1        0.1559
      2 N           0.3630    0.8380    0.0000 N.ar    1  LIG1       -0.2732
      3 C           1.2080    1.3250    0.0000 C.ar    1  LIG1        0.1681
      4 N           1.9330    0.6580    0.0000 N.ar    1  LIG1       -0.2235
      5 C           1.5330   -0.2250    0.0000 C.ar    1  LIG1        0.1153
      6 C           2.3460   -0.7710    0.0000 C.ar    1  LIG1        0.0275
      7 C           1.8000   -1.5880    0.0000 C.ar    1  LIG1        0.0370
      8 S           2.4080   -2.3460    0.0000 S.2     1  LIG1       -0.0859
      9 C           3.3250   -2.0170    0.0000 C.ar    1  LIG1        0.0355
     10 C           3.2920   -1.0460    0.0000 C.ar    1  LIG1        0.0091
     11 C           1.2080    2.3040    0.0000 C.ar    1  LIG1        0.1362
     12 N           0.3630    2.7920    0.0000 N.ar    1  LIG1       -0.2376
     13 C          -0.4880    2.3040    0.0000 C.ar    1  LIG1        0.1180
     14 C          -0.4880    1.3250    0.0000 C.ar    1  LIG1        0.1033
     15 N          -0.4670   -1.3040    0.0000 N.pl3   1  LIG1       -0.1946
     16 C          -1.4130   -1.1130    0.0000 C.ar    1  LIG1        0.0642
     17 C          -2.0500   -1.8540    0.0000 C.ar    1  LIG1       -0.0069
     18 C          -3.0130   -1.6670    0.0000 C.ar    1  LIG1       -0.0030
     19 C          -3.3290   -0.7420    0.0000 C.ar    1  LIG1       -0.0006
     20 C          -2.6880   -0.0080    0.0000 C.ar    1  LIG1       -0.0030
     21 C          -1.7250   -0.2000    0.0000 C.ar    1  LIG1       -0.0069
     22 C          -1.0750    0.5420    0.0000 C.3     1  LIG1        0.0324
     23 C          -1.7380   -2.7880    0.0000 C.3     1  LIG1        0.0324
@<TRIPOS>BOND
     1     1     2   ar
     2     1     5   ar
     3     1    15    1
     4     2     3   ar
     5     2    14   ar
     6     3     4   ar
     7     3    11   ar
     8     4     5   ar
     9     5     6    1
    10     6     7   ar
    11     6    10   ar
    12     7     8   ar
    13     8     9   ar
    14     9    10   ar
    15    11    12   ar
    16    12    13   ar
    17    13    14   ar
    18    15    16    1
    19    16    17   ar
    20    16    21   ar
    21    17    18   ar
    22    17    23    1
    23    18    19   ar
    24    19    20   ar
    25    20    21   ar
    26    21    22    1
