@<TRIPOS>MOLECULE
35887_ChemDiv_C699-0273
 25 28 0 0 0
SMALL
GASTEIGER
Energy = 0

@<TRIPOS>ATOM
      1 N          -0.4330    1.7540    0.0000 N.pl3   1  LIG1       -0.3023
      2 C          -1.3000    1.2540    0.0000 C.ar    1  LIG1        0.0540
      3 C          -1.3000    0.2500    0.0000 C.ar    1  LIG1        0.0195
      4 C          -2.1580   -0.2500    0.0000 C.ar    1  LIG1        0.0548
      5 C          -2.1580   -1.2460    0.0000 C.2     1  LIG1        0.2491
      6 N          -1.2920   -1.7460    0.0000 N.am    1  LIG1       -0.2761
      7 C          -1.2920   -2.7460    0.0000 C.3     1  LIG1        0.0937
      8 C          -0.4330   -3.2460    0.0000 C.3     1  LIG1        0.0216
      9 C           0.4380   -2.7460    0.0000 C.3     1  LIG1        0.0035
     10 C           0.4380   -1.7460    0.0000 C.3     1  LIG1        0.0216
     11 C          -0.4330   -1.2460    0.0000 C.3     1  LIG1        0.0937
     12 O          -3.0210   -1.7460    0.0000 O.2     1  LIG1       -0.2699
     13 C          -3.0290    0.2500    0.0000 C.ar    1  LIG1        0.0051
     14 C          -3.0290    1.2540    0.0000 C.ar    1  LIG1        0.0075
     15 C          -2.1580    1.7540    0.0000 C.ar    1  LIG1        0.0386
     16 S          -2.1580    2.7500    0.0000 S.3     1  LIG1       -0.1106
     17 C          -1.3000    3.2500    0.0000 C.3     1  LIG1        0.0836
     18 C          -0.4330    2.7500    0.0000 C.3     1  LIG1        0.1031
     19 C           0.4380    1.2420    0.0000 C.3     1  LIG1        0.1177
     20 C           1.3000    1.7380    0.0000 C.ar    1  LIG1       -0.0024
     21 C           1.3000    2.7420    0.0000 C.ar    1  LIG1       -0.0026
     22 C           2.1630    3.2500    0.0000 C.ar    1  LIG1       -0.0003
     23 C           3.0250    2.7420    0.0000 C.ar    1  LIG1       -0.0000
     24 C           3.0250    1.7380    0.0000 C.ar    1  LIG1       -0.0003
     25 C           2.1670    1.2420    0.0000 C.ar    1  LIG1       -0.0026
@<TRIPOS>BOND
     1     1     2    1
     2     1    18    1
     3     1    19    1
     4     2     3   ar
     5     2    15   ar
     6     3     4   ar
     7     4     5    1
     8     4    13   ar
     9     5     6   am
    10     5    12    2
    11     6     7    1
    12     6    11    1
    13     7     8    1
    14     8     9    1
    15     9    10    1
    16    10    11    1
    17    13    14   ar
    18    14    15   ar
    19    15    16    1
    20    16    17    1
    21    17    18    1
    22    19    20    1
    23    20    21   ar
    24    20    25   ar
    25    21    22   ar
    26    22    23   ar
    27    23    24   ar
    28    24    25   ar
