@<TRIPOS>MOLECULE
35883_ChemDiv_C531-0681
 27 30 0 0 0
SMALL
GASTEIGER
Energy = 0

@<TRIPOS>ATOM
      1 N           1.7330    0.0000    0.0000 N.am    1  LIG1       -0.2530
      2 C           0.8710    0.5000    0.0000 C.ar    1  LIG1        0.0623
      3 C           0.8710    1.5000    0.0000 C.ar    1  LIG1        0.0703
      4 S           1.7330    2.0000    0.0000 S.O     1  LIG1        0.0754
      5 C           2.6000    1.5000    0.0000 C.3     1  LIG1        0.1815
      6 C           2.6000    0.5000    0.0000 C.2     1  LIG1        0.2436
      7 O           3.4710   -0.0080    0.0000 O.2     1  LIG1       -0.2735
      8 O           1.7330    3.0000    0.0000 O.2     1  LIG1       -0.2509
      9 C           0.0080    2.0000    0.0000 C.ar    1  LIG1        0.0100
     10 C          -0.8580    1.4920    0.0000 C.ar    1  LIG1        0.0052
     11 C          -0.8580    0.5000    0.0000 C.ar    1  LIG1        0.0549
     12 C          -1.7250   -0.0080    0.0000 C.2     1  LIG1        0.2491
     13 N          -2.5920    0.4920    0.0000 N.am    1  LIG1       -0.2761
     14 C          -2.5920    1.4920    0.0000 C.3     1  LIG1        0.0937
     15 C          -3.4580    1.9920    0.0000 C.3     1  LIG1        0.0216
     16 C          -4.3250    1.4920    0.0000 C.3     1  LIG1        0.0035
     17 C          -4.3250    0.4920    0.0000 C.3     1  LIG1        0.0216
     18 C          -3.4580   -0.0080    0.0000 C.3     1  LIG1        0.0937
     19 O          -1.7250   -1.0080    0.0000 O.2     1  LIG1       -0.2699
     20 C           0.0080    0.0000    0.0000 C.ar    1  LIG1        0.0200
     21 C           1.7330   -1.0000    0.0000 C.3     1  LIG1        0.1248
     22 C           2.5880   -1.4960    0.0000 C.ar    1  LIG1       -0.0020
     23 C           2.5880   -2.4960    0.0000 C.ar    1  LIG1       -0.0026
     24 C           3.4540   -2.9960    0.0000 C.ar    1  LIG1       -0.0003
     25 C           4.3210   -2.4960    0.0000 C.ar    1  LIG1       -0.0000
     26 C           4.3210   -1.4960    0.0000 C.ar    1  LIG1       -0.0003
     27 C           3.4540   -1.0000    0.0000 C.ar    1  LIG1       -0.0026
@<TRIPOS>BOND
     1     1     2    1
     2     1     6   am
     3     1    21    1
     4     2     3   ar
     5     2    20   ar
     6     3     4    1
     7     3     9   ar
     8     4     5    1
     9     4     8    2
    10     5     6    1
    11     6     7    2
    12     9    10   ar
    13    10    11   ar
    14    11    12    1
    15    11    20   ar
    16    12    13   am
    17    12    19    2
    18    13    14    1
    19    13    18    1
    20    14    15    1
    21    15    16    1
    22    16    17    1
    23    17    18    1
    24    21    22    1
    25    22    23   ar
    26    22    27   ar
    27    23    24   ar
    28    24    25   ar
    29    25    26   ar
    30    26    27   ar
