@<TRIPOS>MOLECULE
35881_ChemDiv_C531-0643
 28 30 0 0 0
SMALL
GASTEIGER
Energy = 0

@<TRIPOS>ATOM
      1 N           2.1670    0.0000    0.0000 N.am    1  LIG1       -0.2530
      2 C           1.3040    0.5040    0.0000 C.ar    1  LIG1        0.0623
      3 C           1.3040    1.5040    0.0000 C.ar    1  LIG1        0.0703
      4 S           2.1670    2.0040    0.0000 S.O     1  LIG1        0.0754
      5 C           3.0330    1.5040    0.0000 C.3     1  LIG1        0.1815
      6 C           3.0330    0.5040    0.0000 C.2     1  LIG1        0.2436
      7 O           3.9040   -0.0080    0.0000 O.2     1  LIG1       -0.2735
      8 O           2.1670    3.0040    0.0000 O.2     1  LIG1       -0.2509
      9 C           0.4380    2.0040    0.0000 C.ar    1  LIG1        0.0100
     10 C          -0.4290    1.4920    0.0000 C.ar    1  LIG1        0.0052
     11 C          -0.4290    0.5040    0.0000 C.ar    1  LIG1        0.0549
     12 C          -1.2960   -0.0080    0.0000 C.2     1  LIG1        0.2491
     13 N          -2.1630    0.4920    0.0000 N.am    1  LIG1       -0.2761
     14 C          -2.1630    1.4920    0.0000 C.3     1  LIG1        0.0937
     15 C          -1.3040    1.9920    0.0000 C.3     1  LIG1        0.0215
     16 C          -1.3040    2.9920    0.0000 C.3     1  LIG1        0.0018
     17 C          -3.0290   -0.0080    0.0000 C.3     1  LIG1        0.0937
     18 C          -3.8960    0.4920    0.0000 C.3     1  LIG1        0.0215
     19 C          -4.7580   -0.0080    0.0000 C.3     1  LIG1        0.0018
     20 O          -1.2960   -1.0080    0.0000 O.2     1  LIG1       -0.2699
     21 C           0.4380    0.0000    0.0000 C.ar    1  LIG1        0.0200
     22 C           2.1670   -1.0000    0.0000 C.3     1  LIG1        0.1248
     23 C           3.0210   -1.5000    0.0000 C.ar    1  LIG1       -0.0020
     24 C           3.0210   -2.5000    0.0000 C.ar    1  LIG1       -0.0026
     25 C           3.8880   -3.0000    0.0000 C.ar    1  LIG1       -0.0003
     26 C           4.7540   -2.5000    0.0000 C.ar    1  LIG1       -0.0000
     27 C           4.7540   -1.5000    0.0000 C.ar    1  LIG1       -0.0003
     28 C           3.8880   -1.0000    0.0000 C.ar    1  LIG1       -0.0026
@<TRIPOS>BOND
     1     1     2    1
     2     1     6   am
     3     1    22    1
     4     2     3   ar
     5     2    21   ar
     6     3     4    1
     7     3     9   ar
     8     4     5    1
     9     4     8    2
    10     5     6    1
    11     6     7    2
    12     9    10   ar
    13    10    11   ar
    14    11    12    1
    15    11    21   ar
    16    12    13   am
    17    12    20    2
    18    13    14    1
    19    13    17    1
    20    14    15    1
    21    15    16    1
    22    17    18    1
    23    18    19    1
    24    22    23    1
    25    23    24   ar
    26    23    28   ar
    27    24    25   ar
    28    25    26   ar
    29    26    27   ar
    30    27    28   ar
