@<TRIPOS>MOLECULE
35889_ChemDiv_C169-0237
 26 29 0 0 0
SMALL
GASTEIGER
Energy = 0

@<TRIPOS>ATOM
      1 C          -0.2580    0.3290    0.0000 C.ar    1  LIG1        0.1559
      2 N          -0.7170    1.2080    0.0000 N.ar    1  LIG1       -0.2732
      3 C          -0.0210    1.9080    0.0000 C.ar    1  LIG1        0.1681
      4 N           0.8630    1.4500    0.0000 N.ar    1  LIG1       -0.2235
      5 C           0.7080    0.4670    0.0000 C.ar    1  LIG1        0.1148
      6 C           1.4790   -0.1750    0.0000 C.ar    1  LIG1        0.0206
      7 C           2.4170    0.1920    0.0000 C.ar    1  LIG1        0.0029
      8 C           3.1920   -0.4500    0.0000 C.ar    1  LIG1        0.0146
      9 C           3.0380   -1.4380    0.0000 C.ar    1  LIG1        0.0479
     10 N           3.7500   -2.1540    0.0000 N.pl3   1  LIG1       -0.3041
     11 C           3.4920   -3.1210    0.0000 C.3     1  LIG1        0.1122
     12 C           4.7130   -1.8880    0.0000 C.3     1  LIG1        0.1122
     13 C           2.0960   -1.7960    0.0000 C.ar    1  LIG1        0.0146
     14 C           1.3210   -1.1630    0.0000 C.ar    1  LIG1        0.0029
     15 C          -0.2750    2.8670    0.0000 C.ar    1  LIG1        0.1362
     16 N          -1.2500    3.1250    0.0000 N.ar    1  LIG1       -0.2376
     17 C          -1.9330    2.4420    0.0000 C.ar    1  LIG1        0.1180
     18 C          -1.6750    1.4670    0.0000 C.ar    1  LIG1        0.1033
     19 N          -0.7170   -0.5880    0.0000 N.pl3   1  LIG1       -0.1939
     20 C          -1.7130   -0.6460    0.0000 C.ar    1  LIG1        0.0721
     21 C          -2.2710    0.1920    0.0000 C.ar    1  LIG1        0.0162
     22 C          -3.2710    0.1210    0.0000 C.ar    1  LIG1       -0.0029
     23 C          -3.7130   -0.7790    0.0000 C.ar    1  LIG1       -0.0218
     24 C          -3.1500   -1.6170    0.0000 C.ar    1  LIG1       -0.0029
     25 C          -2.1500   -1.5460    0.0000 C.ar    1  LIG1        0.0162
     26 C          -4.7170   -0.8460    0.0000 C.3     1  LIG1        0.0310
@<TRIPOS>BOND
     1     1     2   ar
     2     1     5   ar
     3     1    19    1
     4     2     3   ar
     5     2    18   ar
     6     3     4   ar
     7     3    15   ar
     8     4     5   ar
     9     5     6    1
    10     6     7   ar
    11     6    14   ar
    12     7     8   ar
    13     8     9   ar
    14     9    10    1
    15     9    13   ar
    16    10    11    1
    17    10    12    1
    18    13    14   ar
    19    15    16   ar
    20    16    17   ar
    21    17    18   ar
    22    19    20    1
    23    20    21   ar
    24    20    25   ar
    25    21    22   ar
    26    22    23   ar
    27    23    24   ar
    28    23    26    1
    29    24    25   ar
