@<TRIPOS>MOLECULE
35890_ChemDiv_C169-0301
 30 33 0 0 0
SMALL
GASTEIGER
Energy = 0

@<TRIPOS>ATOM
      1 C           0.6250   -0.3920    0.0000 C.ar    1  LIG1        0.1561
      2 N           0.4130    0.6080    0.0000 N.ar    1  LIG1       -0.2655
      3 C           1.2880    1.1170    0.0000 C.ar    1  LIG1        0.2203
      4 N           2.0420    0.4250    0.0000 N.ar    1  LIG1       -0.2196
      5 C           1.6290   -0.4960    0.0000 C.ar    1  LIG1        0.1150
      6 C           1.8420   -1.4960    0.0000 C.ar    1  LIG1        0.0205
      7 C           1.0750   -2.1750    0.0000 C.ar    1  LIG1        0.0021
      8 C           1.2880   -3.1750    0.0000 C.ar    1  LIG1        0.0062
      9 C           2.2580   -3.4880    0.0000 C.ar    1  LIG1        0.0252
     10 S           2.5210   -4.4750    0.0000 S.3     1  LIG1       -0.1127
     11 C           1.7960   -5.1830    0.0000 C.3     1  LIG1        0.0742
     12 C           3.0250   -2.8040    0.0000 C.ar    1  LIG1        0.0062
     13 C           2.8080   -1.8040    0.0000 C.ar    1  LIG1        0.0021
     14 C           1.2880    2.1330    0.0000 C.ar    1  LIG1        0.3282
     15 N           0.4130    2.6420    0.0000 N.ar    1  LIG1       -0.1474
     16 C          -0.4710    2.1330    0.0000 C.ar    1  LIG1        0.3099
     17 C          -0.4710    1.1170    0.0000 C.ar    1  LIG1        0.1591
     18 C           0.4130    3.6580    0.0000 C.3     1  LIG1        0.4115
     19 C           1.2880    4.1580    0.0000 C.2     1  LIG1        0.3403
     20 O           1.2880    5.1830    0.0000 O.2     1  LIG1       -0.2640
     21 N           2.1670    3.6580    0.0000 N.am    1  LIG1       -0.0817
     22 N          -0.0500   -1.1460    0.0000 N.pl3   1  LIG1       -0.1946
     23 C          -1.0380   -0.9460    0.0000 C.ar    1  LIG1        0.0642
     24 C          -1.7040   -1.7170    0.0000 C.ar    1  LIG1       -0.0069
     25 C          -2.7000   -1.5170    0.0000 C.ar    1  LIG1       -0.0030
     26 C          -3.0290   -0.5580    0.0000 C.ar    1  LIG1       -0.0006
     27 C          -2.3580    0.2080    0.0000 C.ar    1  LIG1       -0.0030
     28 C          -1.3670    0.0080    0.0000 C.ar    1  LIG1       -0.0069
     29 C          -0.7580    0.3630    0.0000 C.3     1  LIG1        0.0324
     30 C          -1.4420   -2.4500    0.0000 C.3     1  LIG1        0.0324
@<TRIPOS>BOND
     1     1     2   ar
     2     1     5   ar
     3     1    22    1
     4     2     3   ar
     5     2    17   ar
     6     3     4   ar
     7     3    14   ar
     8     4     5   ar
     9     5     6    1
    10     6     7   ar
    11     6    13   ar
    12     7     8   ar
    13     8     9   ar
    14     9    10    1
    15     9    12   ar
    16    10    11    1
    17    12    13   ar
    18    14    15   ar
    19    15    16   ar
    20    15    18    1
    21    16    17   ar
    22    18    19    1
    23    19    20    2
    24    19    21   am
    25    22    23    1
    26    23    24   ar
    27    23    28   ar
    28    24    25   ar
    29    24    30    1
    30    25    26   ar
    31    26    27   ar
    32    27    28   ar
    33    28    29    1
