@<TRIPOS>MOLECULE
35892_ChemDiv_C169-0335
 27 30 0 0 0
SMALL
GASTEIGER
Energy = 0

@<TRIPOS>ATOM
      1 C           0.2750   -0.9670    0.0000 C.ar    1  LIG1        0.1562
      2 N           0.3290    0.0250    0.0000 N.ar    1  LIG1       -0.2655
      3 C           1.2880    0.2830    0.0000 C.ar    1  LIG1        0.2203
      4 N           1.8330   -0.5540    0.0000 N.ar    1  LIG1       -0.2195
      5 C           1.2080   -1.3290    0.0000 C.ar    1  LIG1        0.1181
      6 C           1.5630   -2.2630    0.0000 C.ar    1  LIG1        0.0594
      7 C           2.5540   -2.4040    0.0000 C.ar    1  LIG1        0.1972
      8 O           3.2580   -1.6920    0.0000 O.3     1  LIG1       -0.2865
      9 C           2.9170   -3.3380    0.0000 C.ar    1  LIG1        0.0421
     10 C           2.2880   -4.1250    0.0000 C.ar    1  LIG1        0.0033
     11 C           1.2960   -3.9750    0.0000 C.ar    1  LIG1        0.0003
     12 C           0.9420   -3.0420    0.0000 C.ar    1  LIG1        0.0048
     13 C           1.5540    1.2460    0.0000 C.ar    1  LIG1        0.3282
     14 N           0.8500    1.9580    0.0000 N.ar    1  LIG1       -0.1474
     15 C          -0.1210    1.6880    0.0000 C.ar    1  LIG1        0.3099
     16 C          -0.3790    0.7380    0.0000 C.ar    1  LIG1        0.1591
     17 C           1.1210    2.9290    0.0000 C.3     1  LIG1        0.4115
     18 C           2.0920    3.1830    0.0000 C.2     1  LIG1        0.3403
     19 O           2.3500    4.1250    0.0000 O.2     1  LIG1       -0.2640
     20 N           2.7960    2.4750    0.0000 N.am    1  LIG1       -0.0817
     21 N          -0.5750   -1.5080    0.0000 N.pl3   1  LIG1       -0.1939
     22 C          -1.4670   -1.0540    0.0000 C.ar    1  LIG1        0.0721
     23 C          -1.5290   -0.0540    0.0000 C.ar    1  LIG1        0.0166
     24 C          -2.4130    0.4000    0.0000 C.ar    1  LIG1        0.0013
     25 C          -3.2630   -0.1420    0.0000 C.ar    1  LIG1        0.0001
     26 C          -3.2000   -1.1460    0.0000 C.ar    1  LIG1        0.0013
     27 C          -2.3080   -1.6000    0.0000 C.ar    1  LIG1        0.0166
@<TRIPOS>BOND
     1     1     2   ar
     2     1     5   ar
     3     1    21    1
     4     2     3   ar
     5     2    16   ar
     6     3     4   ar
     7     3    13   ar
     8     4     5   ar
     9     5     6    1
    10     6     7   ar
    11     6    12   ar
    12     7     8    1
    13     7     9   ar
    14     9    10   ar
    15    10    11   ar
    16    11    12   ar
    17    13    14   ar
    18    14    15   ar
    19    14    17    1
    20    15    16   ar
    21    17    18    1
    22    18    19    2
    23    18    20   am
    24    21    22    1
    25    22    23   ar
    26    22    27   ar
    27    23    24   ar
    28    24    25   ar
    29    25    26   ar
    30    26    27   ar
