@<TRIPOS>MOLECULE
35897_ChemDiv_C169-0308
 24 27 0 0 0
SMALL
GASTEIGER
Energy = 0

@<TRIPOS>ATOM
      1 C           1.0880    0.5130    0.0000 C.ar    1  LIG1        0.1559
      2 N           0.8710    1.4960    0.0000 N.ar    1  LIG1       -0.2732
      3 C           1.7420    2.0000    0.0000 C.ar    1  LIG1        0.1681
      4 N           2.4920    1.3170    0.0000 N.ar    1  LIG1       -0.2235
      5 C           2.0750    0.4170    0.0000 C.ar    1  LIG1        0.1148
      6 C           2.2830   -0.5710    0.0000 C.ar    1  LIG1        0.0205
      7 C           1.5330   -1.2380    0.0000 C.ar    1  LIG1        0.0013
      8 C           1.7420   -2.2170    0.0000 C.ar    1  LIG1       -0.0042
      9 C           2.7000   -2.5290    0.0000 C.ar    1  LIG1       -0.0218
     10 C           3.4500   -1.8580    0.0000 C.ar    1  LIG1       -0.0042
     11 C           3.2330   -0.8670    0.0000 C.ar    1  LIG1        0.0013
     12 C           2.9040   -3.4960    0.0000 C.3     1  LIG1        0.0310
     13 C           1.7420    3.0000    0.0000 C.ar    1  LIG1        0.1362
     14 N           0.8710    3.5000    0.0000 N.ar    1  LIG1       -0.2376
     15 C           0.0080    3.0000    0.0000 C.ar    1  LIG1        0.1180
     16 C           0.0080    2.0000    0.0000 C.ar    1  LIG1        0.1033
     17 N           0.4250   -0.2290    0.0000 N.pl3   1  LIG1       -0.1939
     18 C          -0.5460   -0.0330    0.0000 C.ar    1  LIG1        0.0722
     19 C          -0.8710    0.9170    0.0000 C.ar    1  LIG1        0.0174
     20 C          -1.8500    1.1080    0.0000 C.ar    1  LIG1        0.0127
     21 C          -2.5040    0.3500    0.0000 C.ar    1  LIG1        0.0578
     22 CL         -3.4540    0.6080    0.0000 Cl      1  LIG1       -0.0822
     23 C          -2.1880   -0.5960    0.0000 C.ar    1  LIG1        0.0127
     24 C          -1.2080   -0.7880    0.0000 C.ar    1  LIG1        0.0174
@<TRIPOS>BOND
     1     1     2   ar
     2     1     5   ar
     3     1    17    1
     4     2     3   ar
     5     2    16   ar
     6     3     4   ar
     7     3    13   ar
     8     4     5   ar
     9     5     6    1
    10     6     7   ar
    11     6    11   ar
    12     7     8   ar
    13     8     9   ar
    14     9    10   ar
    15     9    12    1
    16    10    11   ar
    17    13    14   ar
    18    14    15   ar
    19    15    16   ar
    20    17    18    1
    21    18    19   ar
    22    18    24   ar
    23    19    20   ar
    24    20    21   ar
    25    21    22    1
    26    21    23   ar
    27    23    24   ar
