@<TRIPOS>MOLECULE
35896_ChemDiv_C169-0348
 29 32 0 0 0
SMALL
GASTEIGER
Energy = 0

@<TRIPOS>ATOM
      1 C           0.1250   -0.9080    0.0000 C.ar    1  LIG1        0.1561
      2 N           0.1830    0.0960    0.0000 N.ar    1  LIG1       -0.2655
      3 C           1.1500    0.3540    0.0000 C.ar    1  LIG1        0.2203
      4 N           1.6960   -0.4920    0.0000 N.ar    1  LIG1       -0.2196
      5 C           1.0630   -1.2710    0.0000 C.ar    1  LIG1        0.1151
      6 C           1.2710   -2.2500    0.0000 C.ar    1  LIG1        0.0237
      7 C           2.2380   -2.5580    0.0000 C.ar    1  LIG1        0.0436
      8 C           2.4500   -3.5380    0.0000 C.ar    1  LIG1        0.1958
      9 O           3.4130   -3.7920    0.0000 O.3     1  LIG1       -0.2866
     10 C           1.7040   -4.2170    0.0000 C.ar    1  LIG1        0.0420
     11 C           0.7460   -3.9000    0.0000 C.ar    1  LIG1        0.0033
     12 C           0.5330   -2.9210    0.0000 C.ar    1  LIG1        0.0018
     13 C           1.4170    1.3250    0.0000 C.ar    1  LIG1        0.3282
     14 N           0.7080    2.0330    0.0000 N.ar    1  LIG1       -0.1474
     15 C          -0.2710    1.7710    0.0000 C.ar    1  LIG1        0.3099
     16 C          -0.5290    0.8130    0.0000 C.ar    1  LIG1        0.1591
     17 C           0.9790    3.0080    0.0000 C.3     1  LIG1        0.4115
     18 C           1.9500    3.2710    0.0000 C.2     1  LIG1        0.3403
     19 O           2.2080    4.2170    0.0000 O.2     1  LIG1       -0.2640
     20 N           2.6580    2.5540    0.0000 N.am    1  LIG1       -0.0817
     21 N          -0.7330   -1.4540    0.0000 N.pl3   1  LIG1       -0.1946
     22 C          -1.6250   -0.9880    0.0000 C.ar    1  LIG1        0.0642
     23 C          -2.4670   -1.5330    0.0000 C.ar    1  LIG1       -0.0069
     24 C          -3.3710   -1.0750    0.0000 C.ar    1  LIG1       -0.0030
     25 C          -3.4170   -0.0670    0.0000 C.ar    1  LIG1       -0.0006
     26 C          -2.5750    0.4750    0.0000 C.ar    1  LIG1       -0.0030
     27 C          -1.6830    0.0130    0.0000 C.ar    1  LIG1       -0.0069
     28 C          -0.8380   -0.0040    0.0000 C.3     1  LIG1        0.0324
     29 C          -2.4750   -2.5420    0.0000 C.3     1  LIG1        0.0324
@<TRIPOS>BOND
     1     1     2   ar
     2     1     5   ar
     3     1    21    1
     4     2     3   ar
     5     2    16   ar
     6     3     4   ar
     7     3    13   ar
     8     4     5   ar
     9     5     6    1
    10     6     7   ar
    11     6    12   ar
    12     7     8   ar
    13     8     9    1
    14     8    10   ar
    15    10    11   ar
    16    11    12   ar
    17    13    14   ar
    18    14    15   ar
    19    14    17    1
    20    15    16   ar
    21    17    18    1
    22    18    19    2
    23    18    20   am
    24    21    22    1
    25    22    23   ar
    26    22    27   ar
    27    23    24   ar
    28    23    29    1
    29    24    25   ar
    30    25    26   ar
    31    26    27   ar
    32    27    28    1
