@<TRIPOS>MOLECULE
35895_ChemDiv_C169-0289
 24 27 0 0 0
SMALL
GASTEIGER
Energy = 0

@<TRIPOS>ATOM
      1 C          -0.1210    0.3750    0.0000 C.ar    1  LIG1        0.1559
      2 N          -0.3330    1.3540    0.0000 N.ar    1  LIG1       -0.2732
      3 C           0.5290    1.8540    0.0000 C.ar    1  LIG1        0.1681
      4 N           1.2830    1.1790    0.0000 N.ar    1  LIG1       -0.2235
      5 C           0.8750    0.2790    0.0000 C.ar    1  LIG1        0.1148
      6 C           1.3330   -0.6130    0.0000 C.ar    1  LIG1        0.0205
      7 C           0.7880   -1.4580    0.0000 C.ar    1  LIG1        0.0021
      8 C           1.2540   -2.3500    0.0000 C.ar    1  LIG1        0.0062
      9 C           2.2420   -2.3960    0.0000 C.ar    1  LIG1        0.0252
     10 S           2.7040   -3.2960    0.0000 S.3     1  LIG1       -0.1127
     11 C           3.7080   -3.3540    0.0000 C.3     1  LIG1        0.0742
     12 C           2.7880   -1.5540    0.0000 C.ar    1  LIG1        0.0062
     13 C           2.3330   -0.6710    0.0000 C.ar    1  LIG1        0.0021
     14 C           0.5290    2.8580    0.0000 C.ar    1  LIG1        0.1362
     15 N          -0.3330    3.3580    0.0000 N.ar    1  LIG1       -0.2376
     16 C          -1.1960    2.8580    0.0000 C.ar    1  LIG1        0.1180
     17 C          -1.1960    1.8540    0.0000 C.ar    1  LIG1        0.1033
     18 N          -0.7750   -0.3710    0.0000 N.pl3   1  LIG1       -0.1939
     19 C          -1.7540   -0.1750    0.0000 C.ar    1  LIG1        0.0721
     20 C          -2.4080   -0.9250    0.0000 C.ar    1  LIG1        0.0166
     21 C          -3.3920   -0.7330    0.0000 C.ar    1  LIG1        0.0013
     22 C          -3.7130    0.2080    0.0000 C.ar    1  LIG1        0.0001
     23 C          -3.0580    0.9630    0.0000 C.ar    1  LIG1        0.0013
     24 C          -2.0750    0.7630    0.0000 C.ar    1  LIG1        0.0166
@<TRIPOS>BOND
     1     1     2   ar
     2     1     5   ar
     3     1    18    1
     4     2     3   ar
     5     2    17   ar
     6     3     4   ar
     7     3    14   ar
     8     4     5   ar
     9     5     6    1
    10     6     7   ar
    11     6    13   ar
    12     7     8   ar
    13     8     9   ar
    14     9    10    1
    15     9    12   ar
    16    10    11    1
    17    12    13   ar
    18    14    15   ar
    19    15    16   ar
    20    16    17   ar
    21    18    19    1
    22    19    20   ar
    23    19    24   ar
    24    20    21   ar
    25    21    22   ar
    26    22    23   ar
    27    23    24   ar
