@<TRIPOS>MOLECULE
35894_ChemDiv_C169-0338
 29 32 0 0 0
SMALL
GASTEIGER
Energy = 0

@<TRIPOS>ATOM
      1 C           0.4420   -0.1330    0.0000 C.ar    1  LIG1        0.1561
      2 N           0.4960    0.8580    0.0000 N.ar    1  LIG1       -0.2655
      3 C           1.4580    1.1170    0.0000 C.ar    1  LIG1        0.2203
      4 N           2.0040    0.2790    0.0000 N.ar    1  LIG1       -0.2196
      5 C           1.3750   -0.4960    0.0000 C.ar    1  LIG1        0.1150
      6 C           1.7290   -1.4290    0.0000 C.ar    1  LIG1        0.0205
      7 C           1.1080   -2.2080    0.0000 C.ar    1  LIG1        0.0021
      8 C           1.4670   -3.1420    0.0000 C.ar    1  LIG1        0.0062
      9 C           2.4580   -3.2920    0.0000 C.ar    1  LIG1        0.0252
     10 S           2.7130   -4.2500    0.0000 S.3     1  LIG1       -0.1127
     11 C           2.0040   -4.9580    0.0000 C.3     1  LIG1        0.0742
     12 C           3.0880   -2.5040    0.0000 C.ar    1  LIG1        0.0062
     13 C           2.7250   -1.5710    0.0000 C.ar    1  LIG1        0.0021
     14 C           1.7250    2.0790    0.0000 C.ar    1  LIG1        0.3282
     15 N           1.0170    2.7920    0.0000 N.ar    1  LIG1       -0.1474
     16 C           0.0500    2.5210    0.0000 C.ar    1  LIG1        0.3099
     17 C          -0.2080    1.5710    0.0000 C.ar    1  LIG1        0.1591
     18 C           1.2920    3.7630    0.0000 C.3     1  LIG1        0.4115
     19 C           2.2580    4.0130    0.0000 C.2     1  LIG1        0.3403
     20 O           2.5170    4.9580    0.0000 O.2     1  LIG1       -0.2640
     21 N           2.9670    3.3080    0.0000 N.am    1  LIG1       -0.0817
     22 N          -0.4040   -0.6750    0.0000 N.pl3   1  LIG1       -0.1943
     23 C          -1.3000   -0.2210    0.0000 C.ar    1  LIG1        0.0681
     24 C          -2.1380   -0.7670    0.0000 C.ar    1  LIG1       -0.0065
     25 C          -2.1460   -1.7670    0.0000 C.3     1  LIG1        0.0324
     26 C          -3.0330   -0.3130    0.0000 C.ar    1  LIG1       -0.0030
     27 C          -3.0920    0.6920    0.0000 C.ar    1  LIG1       -0.0002
     28 C          -2.2460    1.2330    0.0000 C.ar    1  LIG1        0.0013
     29 C          -1.3580    0.7750    0.0000 C.ar    1  LIG1        0.0162
@<TRIPOS>BOND
     1     1     2   ar
     2     1     5   ar
     3     1    22    1
     4     2     3   ar
     5     2    17   ar
     6     3     4   ar
     7     3    14   ar
     8     4     5   ar
     9     5     6    1
    10     6     7   ar
    11     6    13   ar
    12     7     8   ar
    13     8     9   ar
    14     9    10    1
    15     9    12   ar
    16    10    11    1
    17    12    13   ar
    18    14    15   ar
    19    15    16   ar
    20    15    18    1
    21    16    17   ar
    22    18    19    1
    23    19    20    2
    24    19    21   am
    25    22    23    1
    26    23    24   ar
    27    23    29   ar
    28    24    25    1
    29    24    26   ar
    30    26    27   ar
    31    27    28   ar
    32    28    29   ar
