@<TRIPOS>MOLECULE
35898_ChemDiv_C169-0315
 26 29 0 0 0
SMALL
GASTEIGER
Energy = 0

@<TRIPOS>ATOM
      1 C           0.5500   -1.4460    0.0000 C.ar    1  LIG1        0.1561
      2 N           0.3290   -0.4580    0.0000 N.ar    1  LIG1       -0.2655
      3 C           1.2080    0.0500    0.0000 C.ar    1  LIG1        0.2203
      4 N           1.9630   -0.6380    0.0000 N.ar    1  LIG1       -0.2196
      5 C           1.5420   -1.5460    0.0000 C.ar    1  LIG1        0.1155
      6 C           1.7500   -2.5380    0.0000 C.ar    1  LIG1        0.0275
      7 C           2.7630   -2.5380    0.0000 C.ar    1  LIG1        0.0370
      8 S           3.0670   -3.4960    0.0000 S.2     1  LIG1       -0.0859
      9 C           2.2540   -4.0880    0.0000 C.ar    1  LIG1        0.0355
     10 C           1.4380   -3.4960    0.0000 C.ar    1  LIG1        0.0091
     11 C           1.2080    1.0580    0.0000 C.ar    1  LIG1        0.3282
     12 N           0.3290    1.5630    0.0000 N.ar    1  LIG1       -0.1474
     13 C          -0.5380    1.0580    0.0000 C.ar    1  LIG1        0.3099
     14 C          -0.5380    0.0500    0.0000 C.ar    1  LIG1        0.1591
     15 C           0.3290    2.5710    0.0000 C.3     1  LIG1        0.4115
     16 C           1.2080    3.0750    0.0000 C.2     1  LIG1        0.3403
     17 O           1.2080    4.0880    0.0000 O.2     1  LIG1       -0.2640
     18 N           2.0790    2.5710    0.0000 N.am    1  LIG1       -0.0817
     19 N          -0.1210   -2.1920    0.0000 N.pl3   1  LIG1       -0.1943
     20 C          -1.0960   -1.9960    0.0000 C.ar    1  LIG1        0.0681
     21 C          -1.7670   -2.7540    0.0000 C.ar    1  LIG1       -0.0065
     22 C          -1.5000   -3.4790    0.0000 C.3     1  LIG1        0.0324
     23 C          -2.7540   -2.5630    0.0000 C.ar    1  LIG1       -0.0030
     24 C          -3.0710   -1.6080    0.0000 C.ar    1  LIG1       -0.0002
     25 C          -2.4130   -0.8460    0.0000 C.ar    1  LIG1        0.0013
     26 C          -1.4250   -1.0420    0.0000 C.ar    1  LIG1        0.0162
@<TRIPOS>BOND
     1     1     2   ar
     2     1     5   ar
     3     1    19    1
     4     2     3   ar
     5     2    14   ar
     6     3     4   ar
     7     3    11   ar
     8     4     5   ar
     9     5     6    1
    10     6     7   ar
    11     6    10   ar
    12     7     8   ar
    13     8     9   ar
    14     9    10   ar
    15    11    12   ar
    16    12    13   ar
    17    12    15    1
    18    13    14   ar
    19    15    16    1
    20    16    17    2
    21    16    18   am
    22    19    20    1
    23    20    21   ar
    24    20    26   ar
    25    21    22    1
    26    21    23   ar
    27    23    24   ar
    28    24    25   ar
    29    25    26   ar
