@<TRIPOS>MOLECULE
35891_ChemDiv_C169-0243
 23 26 0 0 0
SMALL
GASTEIGER
Energy = 0

@<TRIPOS>ATOM
      1 C           0.5080   -0.3420    0.0000 C.ar    1  LIG1        0.1559
      2 N           0.0500    0.5380    0.0000 N.ar    1  LIG1       -0.2732
      3 C           0.7500    1.2500    0.0000 C.ar    1  LIG1        0.1681
      4 N           1.6380    0.7830    0.0000 N.ar    1  LIG1       -0.2235
      5 C           1.4750   -0.2040    0.0000 C.ar    1  LIG1        0.1148
      6 C           2.2460   -0.8420    0.0000 C.ar    1  LIG1        0.0205
      7 C           2.0790   -1.8250    0.0000 C.ar    1  LIG1        0.0016
      8 C           2.8500   -2.4540    0.0000 C.ar    1  LIG1        0.0000
      9 C           3.7880   -2.0960    0.0000 C.ar    1  LIG1        0.0000
     10 C           3.9540   -1.1130    0.0000 C.ar    1  LIG1        0.0000
     11 C           3.1790   -0.4750    0.0000 C.ar    1  LIG1        0.0016
     12 C           0.4920    2.2000    0.0000 C.ar    1  LIG1        0.1362
     13 N          -0.4750    2.4580    0.0000 N.ar    1  LIG1       -0.2376
     14 C          -1.1750    1.7670    0.0000 C.ar    1  LIG1        0.1180
     15 C          -0.9170    0.7960    0.0000 C.ar    1  LIG1        0.1033
     16 N           0.0500   -1.2580    0.0000 N.pl3   1  LIG1       -0.1939
     17 C          -0.9460   -1.3210    0.0000 C.ar    1  LIG1        0.0721
     18 C          -1.5080   -0.4750    0.0000 C.ar    1  LIG1        0.0162
     19 C          -2.5040   -0.5420    0.0000 C.ar    1  LIG1       -0.0029
     20 C          -2.9500   -1.4460    0.0000 C.ar    1  LIG1       -0.0218
     21 C          -2.3830   -2.2750    0.0000 C.ar    1  LIG1       -0.0029
     22 C          -1.3880   -2.2170    0.0000 C.ar    1  LIG1        0.0162
     23 C          -3.9580   -1.5040    0.0000 C.3     1  LIG1        0.0310
@<TRIPOS>BOND
     1     1     2   ar
     2     1     5   ar
     3     1    16    1
     4     2     3   ar
     5     2    15   ar
     6     3     4   ar
     7     3    12   ar
     8     4     5   ar
     9     5     6    1
    10     6     7   ar
    11     6    11   ar
    12     7     8   ar
    13     8     9   ar
    14     9    10   ar
    15    10    11   ar
    16    12    13   ar
    17    13    14   ar
    18    14    15   ar
    19    16    17    1
    20    17    18   ar
    21    17    22   ar
    22    18    19   ar
    23    19    20   ar
    24    20    21   ar
    25    20    23    1
    26    21    22   ar
