@<TRIPOS>MOLECULE
35893_ChemDiv_C169-0281
 25 28 0 0 0
SMALL
GASTEIGER
Energy = 0

@<TRIPOS>ATOM
      1 C           0.3290   -0.1040    0.0000 C.ar    1  LIG1        0.1560
      2 C           1.3210   -0.2040    0.0000 C.ar    1  LIG1        0.1179
      3 N           1.7290    0.7000    0.0000 N.ar    1  LIG1       -0.2234
      4 C           0.9790    1.3790    0.0000 C.ar    1  LIG1        0.1681
      5 N           0.1170    0.8790    0.0000 N.ar    1  LIG1       -0.2732
      6 C          -0.7460    1.3790    0.0000 C.ar    1  LIG1        0.1033
      7 C          -0.7460    2.3790    0.0000 C.ar    1  LIG1        0.1180
      8 N           0.1170    2.8790    0.0000 N.ar    1  LIG1       -0.2376
      9 C           0.9790    2.3790    0.0000 C.ar    1  LIG1        0.1362
     10 C           1.7790   -1.0960    0.0000 C.ar    1  LIG1        0.0594
     11 C           2.7790   -1.1330    0.0000 C.ar    1  LIG1        0.1972
     12 O           3.3210   -0.2960    0.0000 O.3     1  LIG1       -0.2865
     13 C           3.2500   -2.0250    0.0000 C.ar    1  LIG1        0.0421
     14 C           2.7040   -2.8750    0.0000 C.ar    1  LIG1        0.0033
     15 C           1.7000   -2.8290    0.0000 C.ar    1  LIG1        0.0003
     16 C           1.2380   -1.9460    0.0000 C.ar    1  LIG1        0.0048
     17 N          -0.3290   -0.8460    0.0000 N.pl3   1  LIG1       -0.1946
     18 C          -1.3250   -0.8460    0.0000 C.ar    1  LIG1        0.0642
     19 C          -1.8250   -1.7040    0.0000 C.ar    1  LIG1       -0.0069
     20 C          -2.8250   -1.7040    0.0000 C.ar    1  LIG1       -0.0030
     21 C          -3.3250   -0.8290    0.0000 C.ar    1  LIG1       -0.0006
     22 C          -2.8210    0.0330    0.0000 C.ar    1  LIG1       -0.0030
     23 C          -1.8210    0.0330    0.0000 C.ar    1  LIG1       -0.0069
     24 C          -1.8250    1.0290    0.0000 C.3     1  LIG1        0.0324
     25 C          -1.3380   -2.5670    0.0000 C.3     1  LIG1        0.0324
@<TRIPOS>BOND
     1     1     2   ar
     2     1     5   ar
     3     1    17    1
     4     2     3   ar
     5     2    10    1
     6     3     4   ar
     7     4     5   ar
     8     4     9   ar
     9     5     6   ar
    10     6     7   ar
    11     7     8   ar
    12     8     9   ar
    13    10    11   ar
    14    10    16   ar
    15    11    12    1
    16    11    13   ar
    17    13    14   ar
    18    14    15   ar
    19    15    16   ar
    20    17    18    1
    21    18    19   ar
    22    18    23   ar
    23    19    20   ar
    24    19    25    1
    25    20    21   ar
    26    21    22   ar
    27    22    23   ar
    28    23    24    1
