@<TRIPOS>MOLECULE
35899_ChemDiv_C169-0329
 25 28 0 0 0
SMALL
GASTEIGER
Energy = 0

@<TRIPOS>ATOM
      1 C          -0.5580    0.9540    0.0000 C.ar    1  LIG1        0.1559
      2 N          -0.5080    1.9420    0.0000 N.ar    1  LIG1       -0.2732
      3 C           0.4460    2.2000    0.0000 C.ar    1  LIG1        0.1681
      4 N           1.0000    1.3750    0.0000 N.ar    1  LIG1       -0.2235
      5 C           0.3710    0.5920    0.0000 C.ar    1  LIG1        0.1148
      6 C           0.7790   -0.3170    0.0000 C.ar    1  LIG1        0.0205
      7 C           0.2000   -1.1380    0.0000 C.ar    1  LIG1        0.0021
      8 C           0.6130   -2.0420    0.0000 C.ar    1  LIG1        0.0062
      9 C           1.6130   -2.1460    0.0000 C.ar    1  LIG1        0.0252
     10 S           2.1080   -3.0080    0.0000 S.3     1  LIG1       -0.1127
     11 C           1.5960   -3.8710    0.0000 C.3     1  LIG1        0.0742
     12 C           2.1960   -1.3290    0.0000 C.ar    1  LIG1        0.0062
     13 C           1.7790   -0.4130    0.0000 C.ar    1  LIG1        0.0021
     14 C           0.7130    3.1630    0.0000 C.ar    1  LIG1        0.1362
     15 N           0.0080    3.8750    0.0000 N.ar    1  LIG1       -0.2376
     16 C          -0.9630    3.6000    0.0000 C.ar    1  LIG1        0.1180
     17 C          -1.2170    2.6540    0.0000 C.ar    1  LIG1        0.1033
     18 N          -1.4040    0.4080    0.0000 N.pl3   1  LIG1       -0.1939
     19 C          -1.3580   -0.6000    0.0000 C.ar    1  LIG1        0.0722
     20 C          -0.4750   -1.0710    0.0000 C.ar    1  LIG1        0.0174
     21 C          -0.4380   -2.0710    0.0000 C.ar    1  LIG1        0.0127
     22 C          -1.2920   -2.6040    0.0000 C.ar    1  LIG1        0.0578
     23 CL         -1.2920   -3.6040    0.0000 Cl      1  LIG1       -0.0822
     24 C          -2.1710   -2.1330    0.0000 C.ar    1  LIG1        0.0127
     25 C          -2.2000   -1.1290    0.0000 C.ar    1  LIG1        0.0174
@<TRIPOS>BOND
     1     1     2   ar
     2     1     5   ar
     3     1    18    1
     4     2     3   ar
     5     2    17   ar
     6     3     4   ar
     7     3    14   ar
     8     4     5   ar
     9     5     6    1
    10     6     7   ar
    11     6    13   ar
    12     7     8   ar
    13     8     9   ar
    14     9    10    1
    15     9    12   ar
    16    10    11    1
    17    12    13   ar
    18    14    15   ar
    19    15    16   ar
    20    16    17   ar
    21    18    19    1
    22    19    20   ar
    23    19    25   ar
    24    20    21   ar
    25    21    22   ar
    26    22    23    1
    27    22    24   ar
    28    24    25   ar
