@<TRIPOS>MOLECULE
35900_ChemDiv_C169-0372
 29 32 0 0 0
SMALL
GASTEIGER
Energy = 0

@<TRIPOS>ATOM
      1 C           1.1130   -1.3880    0.0000 C.ar    1  LIG1        0.1562
      2 N           0.9040   -0.4170    0.0000 N.ar    1  LIG1       -0.2655
      3 C           1.7630    0.0830    0.0000 C.ar    1  LIG1        0.2203
      4 N           2.5040   -0.5790    0.0000 N.ar    1  LIG1       -0.2195
      5 C           2.1040   -1.4880    0.0000 C.ar    1  LIG1        0.1181
      6 C           2.6000   -2.3540    0.0000 C.ar    1  LIG1        0.0594
      7 C           3.6000   -2.3460    0.0000 C.ar    1  LIG1        0.1972
      8 O           4.0920   -1.4880    0.0000 O.3     1  LIG1       -0.2865
      9 C           4.1040   -3.2130    0.0000 C.ar    1  LIG1        0.0421
     10 C           3.6040   -4.0830    0.0000 C.ar    1  LIG1        0.0033
     11 C           2.6000   -4.0830    0.0000 C.ar    1  LIG1        0.0003
     12 C           2.1040   -3.2130    0.0000 C.ar    1  LIG1        0.0048
     13 C           1.7630    1.0880    0.0000 C.ar    1  LIG1        0.3282
     14 N           0.8960    1.5920    0.0000 N.ar    1  LIG1       -0.1474
     15 C           0.0330    1.0880    0.0000 C.ar    1  LIG1        0.3099
     16 C           0.0330    0.0830    0.0000 C.ar    1  LIG1        0.1591
     17 C           0.8960    2.5960    0.0000 C.3     1  LIG1        0.4115
     18 C           1.7630    3.0920    0.0000 C.2     1  LIG1        0.3403
     19 O           2.6290    2.5880    0.0000 O.2     1  LIG1       -0.2640
     20 N           1.7630    4.0830    0.0000 N.am    1  LIG1       -0.0817
     21 N           0.3960   -2.0920    0.0000 N.pl3   1  LIG1       -0.1939
     22 C          -0.6130   -2.0880    0.0000 C.ar    1  LIG1        0.0723
     23 C          -1.1080   -2.9500    0.0000 C.ar    1  LIG1        0.0197
     24 C          -2.1130   -2.9500    0.0000 C.ar    1  LIG1        0.0382
     25 C          -2.6170   -2.0750    0.0000 C.ar    1  LIG1        0.1388
     26 C          -2.1080   -1.2080    0.0000 C.ar    1  LIG1        0.0382
     27 C          -1.1040   -1.2170    0.0000 C.ar    1  LIG1        0.0197
     28 O          -3.6080   -2.0710    0.0000 O.3     1  LIG1       -0.4714
     29 C          -4.1080   -2.9330    0.0000 C.3     1  LIG1        0.2525
@<TRIPOS>BOND
     1     1     2   ar
     2     1     5   ar
     3     1    21    1
     4     2     3   ar
     5     2    16   ar
     6     3     4   ar
     7     3    13   ar
     8     4     5   ar
     9     5     6    1
    10     6     7   ar
    11     6    12   ar
    12     7     8    1
    13     7     9   ar
    14     9    10   ar
    15    10    11   ar
    16    11    12   ar
    17    13    14   ar
    18    14    15   ar
    19    14    17    1
    20    15    16   ar
    21    17    18    1
    22    18    19    2
    23    18    20   am
    24    21    22    1
    25    22    23   ar
    26    22    27   ar
    27    23    24   ar
    28    24    25   ar
    29    25    26   ar
    30    25    28    1
    31    26    27   ar
    32    28    29    1
