@<TRIPOS>MOLECULE
35903_ChemDiv_C169-0034
 27 31 0 0 0
SMALL
GASTEIGER
Energy = 0

@<TRIPOS>ATOM
      1 C           0.8380    0.2380    0.0000 C.ar    1  LIG1        0.1559
      2 N           0.6330    1.2330    0.0000 N.ar    1  LIG1       -0.2737
      3 C           1.4830    1.7330    0.0000 C.ar    1  LIG1        0.1585
      4 N           2.2380    1.0540    0.0000 N.ar    1  LIG1       -0.2242
      5 C           1.8330    0.1500    0.0000 C.ar    1  LIG1        0.1148
      6 C           2.3750   -0.7000    0.0000 C.ar    1  LIG1        0.0205
      7 C           3.3790   -0.6380    0.0000 C.ar    1  LIG1        0.0013
      8 C           3.9290   -1.4710    0.0000 C.ar    1  LIG1       -0.0042
      9 C           3.4790   -2.3750    0.0000 C.ar    1  LIG1       -0.0218
     10 C           2.4750   -2.4380    0.0000 C.ar    1  LIG1       -0.0042
     11 C           1.9250   -1.5750    0.0000 C.ar    1  LIG1        0.0013
     12 C           4.0370   -3.2380    0.0000 C.3     1  LIG1        0.0310
     13 C           1.4830    2.7330    0.0000 C.ar    1  LIG1        0.0712
     14 N           0.6330    3.2380    0.0000 N.ar    1  LIG1       -0.2476
     15 C          -0.2330    2.7330    0.0000 C.ar    1  LIG1        0.1172
     16 C          -0.2330    1.7330    0.0000 C.ar    1  LIG1        0.1033
     17 N           0.1710   -0.5040    0.0000 N.pl3   1  LIG1       -0.1938
     18 C          -0.7960   -0.3040    0.0000 C.ar    1  LIG1        0.0754
     19 C          -1.4630   -1.0710    0.0000 C.ar    1  LIG1        0.0567
     20 C          -2.4330   -0.8710    0.0000 C.ar    1  LIG1        0.1777
     21 C          -2.7670    0.0670    0.0000 C.ar    1  LIG1        0.1765
     22 O          -3.7460    0.0380    0.0000 O.3     1  LIG1       -0.4346
     23 C          -4.0420   -0.8960    0.0000 C.3     1  LIG1        0.4294
     24 O          -3.2330   -1.4540    0.0000 O.3     1  LIG1       -0.4346
     25 C          -2.1040    0.8290    0.0000 C.ar    1  LIG1        0.0415
     26 C          -1.1290    0.6330    0.0000 C.ar    1  LIG1        0.0199
     27 H           2.3710    3.2420    0.0000 H       1  LIG1        0.0867
@<TRIPOS>BOND
     1     1     2   ar
     2     1     5   ar
     3     1    17    1
     4     2     3   ar
     5     2    16   ar
     6     3     4   ar
     7     3    13   ar
     8     4     5   ar
     9     5     6    1
    10     6     7   ar
    11     6    11   ar
    12     7     8   ar
    13     8     9   ar
    14     9    10   ar
    15     9    12    1
    16    10    11   ar
    17    13    14   ar
    18    13    27    1
    19    14    15   ar
    20    15    16   ar
    21    17    18    1
    22    18    19   ar
    23    18    26   ar
    24    19    20   ar
    25    20    21   ar
    26    20    24    1
    27    21    22    1
    28    21    25   ar
    29    22    23    1
    30    23    24    1
    31    25    26   ar
