@<TRIPOS>MOLECULE
35905_ChemDiv_C699-0382
 29 32 0 0 0
SMALL
GASTEIGER
Energy = 0

@<TRIPOS>ATOM
      1 N          -0.8750    2.5380    0.0000 N.pl3   1  LIG1       -0.3023
      2 C          -1.7460    2.0380    0.0000 C.ar    1  LIG1        0.0540
      3 C          -1.7460    1.0420    0.0000 C.ar    1  LIG1        0.0196
      4 C          -2.6080    0.5420    0.0000 C.ar    1  LIG1        0.0563
      5 C          -2.6080   -0.4540    0.0000 C.2     1  LIG1        0.2650
      6 N          -1.7380   -0.9540    0.0000 N.am    1  LIG1       -0.1955
      7 C          -0.8710   -1.4630    0.0000 C.3     1  LIG1        0.1717
      8 C          -0.8710   -2.4630    0.0000 C.3     1  LIG1        0.1092
      9 N          -0.0080   -2.9630    0.0000 N.4     1  LIG1        0.3743
     10 C          -0.2210   -3.9380    0.0000 C.3     1  LIG1        0.1385
     11 C          -1.2080   -4.0330    0.0000 C.3     1  LIG1        0.0687
     12 C          -1.6130   -3.1380    0.0000 C.3     1  LIG1        0.0647
     13 C           0.9210   -2.5540    0.0000 C.3     1  LIG1        0.1385
     14 C           1.7290   -3.1580    0.0000 C.3     1  LIG1        0.0688
     15 O          -3.4670   -0.9540    0.0000 O.2     1  LIG1       -0.2684
     16 C          -3.4670    1.0420    0.0000 C.ar    1  LIG1        0.0051
     17 C          -3.4670    2.0380    0.0000 C.ar    1  LIG1        0.0075
     18 C          -2.6080    2.5380    0.0000 C.ar    1  LIG1        0.0386
     19 S          -2.6080    3.5380    0.0000 S.3     1  LIG1       -0.1106
     20 C          -1.7460    4.0330    0.0000 C.3     1  LIG1        0.0836
     21 C          -0.8750    3.5380    0.0000 C.3     1  LIG1        0.1031
     22 C          -0.0080    2.0290    0.0000 C.3     1  LIG1        0.1177
     23 C           0.8500    2.5250    0.0000 C.ar    1  LIG1       -0.0024
     24 C           0.8500    3.5330    0.0000 C.ar    1  LIG1       -0.0029
     25 C           1.7130    4.0290    0.0000 C.ar    1  LIG1       -0.0045
     26 C           2.5880    3.5330    0.0000 C.ar    1  LIG1       -0.0219
     27 C           2.5880    2.5250    0.0000 C.ar    1  LIG1       -0.0045
     28 C           1.7210    2.0290    0.0000 C.ar    1  LIG1       -0.0029
     29 C           3.4630    4.0290    0.0000 C.3     1  LIG1        0.0310
@<TRIPOS>BOND
     1     1     2    1
     2     1    21    1
     3     1    22    1
     4     2     3   ar
     5     2    18   ar
     6     3     4   ar
     7     4     5    1
     8     4    16   ar
     9     5     6   am
    10     5    15    2
    11     6     7    1
    12     7     8    1
    13     8     9    1
    14     8    12    1
    15     9    10    1
    16     9    13    1
    17    10    11    1
    18    11    12    1
    19    13    14    1
    20    16    17   ar
    21    17    18   ar
    22    18    19    1
    23    19    20    1
    24    20    21    1
    25    22    23    1
    26    23    24   ar
    27    23    28   ar
    28    24    25   ar
    29    25    26   ar
    30    26    27   ar
    31    26    29    1
    32    27    28   ar
