@<TRIPOS>MOLECULE
35907_ChemDiv_C699-0443
 29 32 0 0 0
SMALL
GASTEIGER
Energy = 0

@<TRIPOS>ATOM
      1 N           0.0580    3.0460    0.0000 N.pl3   1  LIG1       -0.3023
      2 C          -0.8080    2.5460    0.0000 C.ar    1  LIG1        0.0540
      3 C          -0.8080    1.5460    0.0000 C.ar    1  LIG1        0.0196
      4 C          -1.6630    1.0460    0.0000 C.ar    1  LIG1        0.0563
      5 C          -1.6630    0.0460    0.0000 C.2     1  LIG1        0.2648
      6 O          -2.5250   -0.4580    0.0000 O.2     1  LIG1       -0.2684
      7 N          -0.7960   -0.4580    0.0000 N.am    1  LIG1       -0.2014
      8 C          -0.7960   -1.4580    0.0000 C.3     1  LIG1        0.1216
      9 C           0.0580   -1.9580    0.0000 C.3     1  LIG1        0.0861
     10 C           0.0580   -2.9580    0.0000 C.3     1  LIG1        0.1404
     11 N           0.9250   -3.4580    0.0000 N.4     1  LIG1        0.3773
     12 C           1.1380   -4.4420    0.0000 C.3     1  LIG1        0.1388
     13 C           2.1290   -4.5420    0.0000 C.3     1  LIG1        0.0688
     14 C           2.5380   -3.6250    0.0000 C.3     1  LIG1        0.0688
     15 C           1.7920   -2.9580    0.0000 C.3     1  LIG1        0.1388
     16 C          -2.5420    1.5460    0.0000 C.ar    1  LIG1        0.0051
     17 C          -2.5420    2.5460    0.0000 C.ar    1  LIG1        0.0075
     18 C          -1.6630    3.0460    0.0000 C.ar    1  LIG1        0.0386
     19 S          -1.6630    4.0420    0.0000 S.3     1  LIG1       -0.1106
     20 C          -0.8080    4.5420    0.0000 C.3     1  LIG1        0.0836
     21 C           0.0580    4.0420    0.0000 C.3     1  LIG1        0.1031
     22 C           0.9380    2.5460    0.0000 C.3     1  LIG1        0.1177
     23 C           0.9380    1.5460    0.0000 C.ar    1  LIG1       -0.0024
     24 C           0.0710    1.0460    0.0000 C.ar    1  LIG1       -0.0029
     25 C           0.0710    0.0460    0.0000 C.ar    1  LIG1       -0.0045
     26 C           0.9380   -0.4580    0.0000 C.ar    1  LIG1       -0.0219
     27 C           1.7920    0.0460    0.0000 C.ar    1  LIG1       -0.0045
     28 C           1.7920    1.0460    0.0000 C.ar    1  LIG1       -0.0029
     29 C           0.9420   -1.4580    0.0000 C.3     1  LIG1        0.0310
@<TRIPOS>BOND
     1     1     2    1
     2     1    21    1
     3     1    22    1
     4     2     3   ar
     5     2    18   ar
     6     3     4   ar
     7     4     5    1
     8     4    16   ar
     9     5     6    2
    10     5     7   am
    11     7     8    1
    12     8     9    1
    13     9    10    1
    14    10    11    1
    15    11    12    1
    16    11    15    1
    17    12    13    1
    18    13    14    1
    19    14    15    1
    20    16    17   ar
    21    17    18   ar
    22    18    19    1
    23    19    20    1
    24    20    21    1
    25    22    23    1
    26    23    24   ar
    27    23    28   ar
    28    24    25   ar
    29    25    26   ar
    30    26    27   ar
    31    26    29    1
    32    27    28   ar
