@<TRIPOS>MOLECULE
35919_ChemDiv_C791-0792
 30 32 0 0 0
SMALL
GASTEIGER
Energy = 0

@<TRIPOS>ATOM
      1 N           1.3380    2.4580    0.0000 N.am    1  LIG1       -0.2531
      2 C           0.4750    2.9580    0.0000 C.ar    1  LIG1        0.0611
      3 C           0.4750    3.9580    0.0000 C.ar    1  LIG1        0.0394
      4 S           1.3380    4.4580    0.0000 S.3     1  LIG1       -0.1026
      5 C           2.2130    3.9580    0.0000 C.3     1  LIG1        0.1475
      6 C           2.2130    2.9580    0.0000 C.2     1  LIG1        0.2410
      7 O           3.0750    2.4580    0.0000 O.2     1  LIG1       -0.2736
      8 C          -0.3880    4.4540    0.0000 C.ar    1  LIG1        0.0087
      9 C          -1.2500    3.9580    0.0000 C.ar    1  LIG1        0.0172
     10 C          -1.2500    2.9580    0.0000 C.ar    1  LIG1        0.0762
     11 C          -0.3880    2.4580    0.0000 C.ar    1  LIG1        0.0320
     12 N          -2.1210    2.4580    0.0000 N.am    1  LIG1       -0.1609
     13 C          -2.6290    1.5960    0.0000 C.2     1  LIG1        0.3435
     14 O          -2.1330    0.7250    0.0000 O.2     1  LIG1       -0.2488
     15 N          -3.6290    1.6130    0.0000 N.am    1  LIG1       -0.1869
     16 C          -4.1420    0.7380    0.0000 C.3     1  LIG1        0.1177
     17 C          -3.6420   -0.1290    0.0000 C.3     1  LIG1        0.0351
     18 C          -4.1420   -0.9920    0.0000 C.3     1  LIG1        0.0594
     19 S          -3.6420   -1.8540    0.0000 S.3     1  LIG1       -0.1402
     20 C          -4.1580   -2.7170    0.0000 C.3     1  LIG1        0.0576
     21 C          -3.6580   -3.5920    0.0000 C.3     1  LIG1        0.0116
     22 C          -4.1580   -4.4580    0.0000 C.3     1  LIG1        0.0009
     23 C           1.3380    1.4630    0.0000 C.3     1  LIG1        0.1248
     24 C           2.0460    0.7500    0.0000 C.ar    1  LIG1       -0.0020
     25 C           3.0000    1.0130    0.0000 C.ar    1  LIG1       -0.0029
     26 C           3.7000    0.3080    0.0000 C.ar    1  LIG1       -0.0045
     27 C           3.4420   -0.6580    0.0000 C.ar    1  LIG1       -0.0219
     28 C           2.4830   -0.9170    0.0000 C.ar    1  LIG1       -0.0045
     29 C           1.7750   -0.2040    0.0000 C.ar    1  LIG1       -0.0029
     30 C           4.1540   -1.3670    0.0000 C.3     1  LIG1        0.0310
@<TRIPOS>BOND
     1     1     2    1
     2     1     6   am
     3     1    23    1
     4     2     3   ar
     5     2    11   ar
     6     3     4    1
     7     3     8   ar
     8     4     5    1
     9     5     6    1
    10     6     7    2
    11     8     9   ar
    12     9    10   ar
    13    10    11   ar
    14    10    12    1
    15    12    13   am
    16    13    14    2
    17    13    15   am
    18    15    16    1
    19    16    17    1
    20    17    18    1
    21    18    19    1
    22    19    20    1
    23    20    21    1
    24    21    22    1
    25    23    24    1
    26    24    25   ar
    27    24    29   ar
    28    25    26   ar
    29    26    27   ar
    30    27    28   ar
    31    27    30    1
    32    28    29   ar
