@<TRIPOS>MOLECULE
35911_ChemDiv_C699-1362
 20 22 0 0 0
SMALL
GASTEIGER
Energy = 0

@<TRIPOS>ATOM
      1 C          -0.4500   -0.4920    0.0000 C.2     1  LIG1        0.2491
      2 N          -1.3130   -0.0040    0.0000 N.am    1  LIG1       -0.2761
      3 C          -1.3130    0.9960    0.0000 C.3     1  LIG1        0.0937
      4 C          -2.1750    1.5040    0.0000 C.3     1  LIG1        0.0216
      5 C          -3.0330    1.0040    0.0000 C.3     1  LIG1        0.0034
      6 C          -3.0330   -0.0040    0.0000 C.3     1  LIG1        0.0216
      7 C          -2.1790   -0.4920    0.0000 C.3     1  LIG1        0.0937
      8 C          -3.8960    1.5040    0.0000 C.3     1  LIG1        0.0001
      9 C           0.4210   -0.0040    0.0000 C.ar    1  LIG1        0.0548
     10 C           1.2830   -0.4920    0.0000 C.ar    1  LIG1        0.0195
     11 C           2.1460   -0.0080    0.0000 C.ar    1  LIG1        0.0538
     12 N           3.0130   -0.5080    0.0000 N.pl3   1  LIG1       -0.3045
     13 C           3.8920   -0.0080    0.0000 C.3     1  LIG1        0.1028
     14 C           3.8920    1.0040    0.0000 C.3     1  LIG1        0.0836
     15 S           3.0130    1.5080    0.0000 S.3     1  LIG1       -0.1106
     16 C           2.1500    1.0040    0.0000 C.ar    1  LIG1        0.0386
     17 C           1.2830    1.5040    0.0000 C.ar    1  LIG1        0.0075
     18 C           0.4210    0.9960    0.0000 C.ar    1  LIG1        0.0051
     19 C           3.0130   -1.5040    0.0000 C.3     1  LIG1        0.1122
     20 O          -0.4500   -1.5000    0.0000 O.2     1  LIG1       -0.2699
@<TRIPOS>BOND
     1     1     2   am
     2     1     9    1
     3     1    20    2
     4     2     3    1
     5     2     7    1
     6     3     4    1
     7     4     5    1
     8     5     6    1
     9     5     8    1
    10     6     7    1
    11     9    10   ar
    12     9    18   ar
    13    10    11   ar
    14    11    12    1
    15    11    16   ar
    16    12    13    1
    17    12    19    1
    18    13    14    1
    19    14    15    1
    20    15    16    1
    21    16    17   ar
    22    17    18   ar
