@<TRIPOS>MOLECULE
35915_ChemDiv_C699-1816
 25 27 0 0 0
SMALL
GASTEIGER
Energy = 0

@<TRIPOS>ATOM
      1 C           3.0250   -0.5000    0.0000 C.ar    1  LIG1        0.0537
      2 N           3.8920   -1.0000    0.0000 N.pl3   1  LIG1       -0.3062
      3 C           4.7710   -0.5000    0.0000 C.3     1  LIG1        0.1028
      4 C           4.7710    0.5130    0.0000 C.3     1  LIG1        0.0836
      5 S           3.8920    1.0210    0.0000 S.3     1  LIG1       -0.1106
      6 C           3.0290    0.5130    0.0000 C.ar    1  LIG1        0.0386
      7 C           2.1630    1.0130    0.0000 C.ar    1  LIG1        0.0075
      8 C           1.3000    0.5040    0.0000 C.ar    1  LIG1        0.0051
      9 C           1.3000   -0.4960    0.0000 C.ar    1  LIG1        0.0563
     10 C           0.4250   -0.9830    0.0000 C.2     1  LIG1        0.2648
     11 N          -0.4380   -0.4960    0.0000 N.am    1  LIG1       -0.2034
     12 C          -1.3000   -0.9830    0.0000 C.3     1  LIG1        0.0960
     13 C          -2.1670   -0.4830    0.0000 C.3     1  LIG1        0.0263
     14 C          -2.1710    0.5130    0.0000 C.3     1  LIG1        0.0281
     15 C          -3.0330    1.0130    0.0000 C.ar    1  LIG1       -0.0221
     16 C          -3.8960    0.5040    0.0000 C.ar    1  LIG1       -0.0043
     17 C          -4.7580    1.0130    0.0000 C.ar    1  LIG1       -0.0003
     18 C          -4.7750    2.0080    0.0000 C.ar    1  LIG1       -0.0000
     19 C          -3.9290    2.5000    0.0000 C.ar    1  LIG1       -0.0003
     20 C          -3.0580    1.9920    0.0000 C.ar    1  LIG1       -0.0043
     21 C          -1.3000   -1.9920    0.0000 C.3     1  LIG1        0.0234
     22 O           0.4250   -1.9920    0.0000 O.2     1  LIG1       -0.2684
     23 C           2.1630   -0.9830    0.0000 C.ar    1  LIG1        0.0196
     24 C           3.8920   -2.0000    0.0000 C.3     1  LIG1        0.0909
     25 C           3.0250   -2.5000    0.0000 C.3     1  LIG1        0.0232
@<TRIPOS>BOND
     1     1     2    1
     2     1     6   ar
     3     1    23   ar
     4     2     3    1
     5     2    24    1
     6     3     4    1
     7     4     5    1
     8     5     6    1
     9     6     7   ar
    10     7     8   ar
    11     8     9   ar
    12     9    10    1
    13     9    23   ar
    14    10    11   am
    15    10    22    2
    16    11    12    1
    17    12    13    1
    18    12    21    1
    19    13    14    1
    20    14    15    1
    21    15    16   ar
    22    15    20   ar
    23    16    17   ar
    24    17    18   ar
    25    18    19   ar
    26    19    20   ar
    27    24    25    1
