@<TRIPOS>MOLECULE
35913_ChemDiv_C699-1673
 27 30 0 0 0
SMALL
GASTEIGER
Energy = 0

@<TRIPOS>ATOM
      1 C          -0.0130   -1.7330    0.0000 C.2     1  LIG1        0.2491
      2 N          -0.8750   -1.2460    0.0000 N.am    1  LIG1       -0.2761
      3 C          -0.8630   -0.2460    0.0000 C.3     1  LIG1        0.0937
      4 C          -1.7250    0.2460    0.0000 C.3     1  LIG1        0.0219
      5 C          -2.5960   -0.2380    0.0000 C.3     1  LIG1        0.0078
      6 C          -3.4710    0.2630    0.0000 C.3     1  LIG1        0.0265
      7 C          -3.4580    1.2540    0.0000 C.ar    1  LIG1       -0.0222
      8 C          -2.5920    1.7540    0.0000 C.ar    1  LIG1       -0.0043
      9 C          -2.5920    2.7500    0.0000 C.ar    1  LIG1       -0.0003
     10 C          -3.4580    3.2500    0.0000 C.ar    1  LIG1       -0.0000
     11 C          -4.3290    2.7500    0.0000 C.ar    1  LIG1       -0.0003
     12 C          -4.3290    1.7380    0.0000 C.ar    1  LIG1       -0.0043
     13 C          -2.5920   -1.2330    0.0000 C.3     1  LIG1        0.0219
     14 C          -1.7250   -1.7330    0.0000 C.3     1  LIG1        0.0937
     15 C           0.8580   -1.2460    0.0000 C.ar    1  LIG1        0.0548
     16 C           1.7210   -1.7330    0.0000 C.ar    1  LIG1        0.0195
     17 C           2.5790   -1.2500    0.0000 C.ar    1  LIG1        0.0537
     18 N           3.4460   -1.7500    0.0000 N.pl3   1  LIG1       -0.3062
     19 C           4.3250   -1.2500    0.0000 C.3     1  LIG1        0.1028
     20 C           4.3250   -0.2380    0.0000 C.3     1  LIG1        0.0836
     21 S           3.4460    0.2670    0.0000 S.3     1  LIG1       -0.1106
     22 C           2.5880   -0.2380    0.0000 C.ar    1  LIG1        0.0386
     23 C           1.7210    0.2630    0.0000 C.ar    1  LIG1        0.0075
     24 C           0.8580   -0.2460    0.0000 C.ar    1  LIG1        0.0051
     25 C           3.4460   -2.7460    0.0000 C.3     1  LIG1        0.0909
     26 C           2.5790   -3.2460    0.0000 C.3     1  LIG1        0.0232
     27 O          -0.0130   -2.7420    0.0000 O.2     1  LIG1       -0.2699
@<TRIPOS>BOND
     1     1     2   am
     2     1    15    1
     3     1    27    2
     4     2     3    1
     5     2    14    1
     6     3     4    1
     7     4     5    1
     8     5     6    1
     9     5    13    1
    10     6     7    1
    11     7     8   ar
    12     7    12   ar
    13     8     9   ar
    14     9    10   ar
    15    10    11   ar
    16    11    12   ar
    17    13    14    1
    18    15    16   ar
    19    15    24   ar
    20    16    17   ar
    21    17    18    1
    22    17    22   ar
    23    18    19    1
    24    18    25    1
    25    19    20    1
    26    20    21    1
    27    21    22    1
    28    22    23   ar
    29    23    24   ar
    30    25    26    1
