@<TRIPOS>MOLECULE
35917_ChemDiv_C699-1843
 27 31 0 0 0
SMALL
GASTEIGER
Energy = 0

@<TRIPOS>ATOM
      1 C          -2.1540    0.2250    0.0000 C.3     1  LIG1        0.0185
      2 C          -1.2880   -0.2580    0.0000 C.3     1  LIG1        0.0956
      3 N          -0.4210    0.2460    0.0000 N.am    1  LIG1       -0.2034
      4 C           0.4420   -0.2420    0.0000 C.2     1  LIG1        0.2648
      5 C           1.3130    0.2460    0.0000 C.ar    1  LIG1        0.0563
      6 C           2.1750   -0.2420    0.0000 C.ar    1  LIG1        0.0196
      7 C           3.0380    0.2420    0.0000 C.ar    1  LIG1        0.0537
      8 N           3.9040   -0.2580    0.0000 N.pl3   1  LIG1       -0.3062
      9 C           4.7830    0.2420    0.0000 C.3     1  LIG1        0.1028
     10 C           4.7830    1.2540    0.0000 C.3     1  LIG1        0.0836
     11 S           3.9040    1.7580    0.0000 S.3     1  LIG1       -0.1106
     12 C           3.0420    1.2540    0.0000 C.ar    1  LIG1        0.0386
     13 C           2.1750    1.7540    0.0000 C.ar    1  LIG1        0.0075
     14 C           1.3130    1.2460    0.0000 C.ar    1  LIG1        0.0051
     15 C           3.9040   -1.2540    0.0000 C.3     1  LIG1        0.0909
     16 C           3.0380   -1.7540    0.0000 C.3     1  LIG1        0.0232
     17 O           0.4420   -1.2500    0.0000 O.2     1  LIG1       -0.2684
     18 C          -1.2830   -1.2670    0.0000 C.3     1  LIG1        0.0234
     19 C          -1.9790    1.2250    0.0000 C.3     1  LIG1        0.0017
     20 C          -2.8040    1.7290    0.0000 C.3     1  LIG1        0.0001
     21 C          -3.6080    1.0580    0.0000 C.3     1  LIG1        0.0000
     22 C          -3.7750    0.0460    0.0000 C.3     1  LIG1        0.0001
     23 C          -2.9420   -0.4710    0.0000 C.3     1  LIG1        0.0017
     24 C          -4.7880   -0.0540    0.0000 C.3     1  LIG1        0.0000
     25 C          -3.8750    0.6210    0.0000 C.3     1  LIG1        0.0001
     26 C          -3.0920    0.1670    0.0000 C.3     1  LIG1        0.0017
     27 C          -3.7130    1.5790    0.0000 C.3     1  LIG1        0.0000
@<TRIPOS>BOND
     1     1     2    1
     2     1    19    1
     3     1    23    1
     4     1    26    1
     5     2     3    1
     6     2    18    1
     7     3     4   am
     8     4     5    1
     9     4    17    2
    10     5     6   ar
    11     5    14   ar
    12     6     7   ar
    13     7     8    1
    14     7    12   ar
    15     8     9    1
    16     8    15    1
    17     9    10    1
    18    10    11    1
    19    11    12    1
    20    12    13   ar
    21    13    14   ar
    22    15    16    1
    23    19    20    1
    24    20    21    1
    25    20    27    1
    26    21    22    1
    27    22    23    1
    28    22    24    1
    29    24    25    1
    30    25    26    1
    31    25    27    1
