@<TRIPOS>MOLECULE
35925_ChemDiv_C169-0053
 28 31 0 0 0
SMALL
GASTEIGER
Energy = 0

@<TRIPOS>ATOM
      1 C           0.5250    0.2290    0.0000 C.ar    1  LIG1        0.1559
      2 N           0.3250    1.2210    0.0000 N.ar    1  LIG1       -0.2737
      3 C           1.1710    1.7250    0.0000 C.ar    1  LIG1        0.1585
      4 N           1.9250    1.0460    0.0000 N.ar    1  LIG1       -0.2242
      5 C           1.5250    0.1420    0.0000 C.ar    1  LIG1        0.1148
      6 C           2.0630   -0.7040    0.0000 C.ar    1  LIG1        0.0207
      7 C           1.5960   -1.5630    0.0000 C.ar    1  LIG1        0.0047
      8 C           2.1460   -2.4250    0.0000 C.ar    1  LIG1        0.0370
      9 C           3.1500   -2.3790    0.0000 C.ar    1  LIG1        0.1387
     10 C           3.6000   -1.4790    0.0000 C.ar    1  LIG1        0.0370
     11 C           3.0670   -0.6460    0.0000 C.ar    1  LIG1        0.0047
     12 O           3.7000   -3.2290    0.0000 O.3     1  LIG1       -0.4714
     13 C           4.6830   -3.1790    0.0000 C.3     1  LIG1        0.2525
     14 C           1.1710    2.7250    0.0000 C.ar    1  LIG1        0.0712
     15 N           0.3250    3.2290    0.0000 N.ar    1  LIG1       -0.2476
     16 C          -0.5460    2.7250    0.0000 C.ar    1  LIG1        0.1172
     17 C          -0.5460    1.7250    0.0000 C.ar    1  LIG1        0.1033
     18 N          -0.1380   -0.5130    0.0000 N.pl3   1  LIG1       -0.1939
     19 C          -1.1080   -0.3130    0.0000 C.ar    1  LIG1        0.0721
     20 C          -1.4130    0.6250    0.0000 C.ar    1  LIG1        0.0162
     21 C          -2.4130    0.8210    0.0000 C.ar    1  LIG1       -0.0029
     22 C          -3.0630    0.0580    0.0000 C.ar    1  LIG1       -0.0224
     23 C          -2.7460   -0.8790    0.0000 C.ar    1  LIG1       -0.0029
     24 C          -1.7790   -1.0790    0.0000 C.ar    1  LIG1        0.0162
     25 C          -4.0460    0.2460    0.0000 C.3     1  LIG1        0.0224
     26 C          -4.3750    1.1790    0.0000 C.3     1  LIG1        0.0047
     27 C          -4.6880   -0.5130    0.0000 C.3     1  LIG1        0.0047
     28 H           2.0580    3.2330    0.0000 H       1  LIG1        0.0867
@<TRIPOS>BOND
     1     1     2   ar
     2     1     5   ar
     3     1    18    1
     4     2     3   ar
     5     2    17   ar
     6     3     4   ar
     7     3    14   ar
     8     4     5   ar
     9     5     6    1
    10     6     7   ar
    11     6    11   ar
    12     7     8   ar
    13     8     9   ar
    14     9    10   ar
    15     9    12    1
    16    10    11   ar
    17    12    13    1
    18    14    15   ar
    19    14    28    1
    20    15    16   ar
    21    16    17   ar
    22    18    19    1
    23    19    20   ar
    24    19    24   ar
    25    20    21   ar
    26    21    22   ar
    27    22    23   ar
    28    22    25    1
    29    23    24   ar
    30    25    26    1
    31    25    27    1
