@<TRIPOS>MOLECULE
35928_ChemDiv_C325-0225
 28 32 0 0 0
SMALL
GASTEIGER
Energy = 0

@<TRIPOS>ATOM
      1 N           0.5880    0.8500    0.0000 N.ar    1  LIG1       -0.2657
      2 C           1.4500    1.3500    0.0000 C.ar    1  LIG1        0.2373
      3 N           2.1960    0.6750    0.0000 N.ar    1  LIG1       -0.2083
      4 C           1.7960   -0.2250    0.0000 C.ar    1  LIG1        0.1163
      5 C           0.8000   -0.1290    0.0000 C.ar    1  LIG1        0.1567
      6 N           0.1330   -0.8790    0.0000 N.pl3   1  LIG1       -0.1938
      7 C          -0.5380   -1.6290    0.0000 C.ar    1  LIG1        0.0754
      8 C          -1.5210   -1.4130    0.0000 C.ar    1  LIG1        0.0566
      9 C          -2.1790   -2.1750    0.0000 C.ar    1  LIG1        0.1737
     10 C          -1.8710   -3.1130    0.0000 C.ar    1  LIG1        0.1725
     11 O          -2.5210   -3.8580    0.0000 O.3     1  LIG1       -0.4684
     12 C          -3.4920   -3.6540    0.0000 C.3     1  LIG1        0.2526
     13 C          -3.8000   -2.7130    0.0000 C.3     1  LIG1        0.2526
     14 O          -3.1420   -1.9750    0.0000 O.3     1  LIG1       -0.4683
     15 C          -0.8920   -3.3210    0.0000 C.ar    1  LIG1        0.0414
     16 C          -0.2210   -2.5790    0.0000 C.ar    1  LIG1        0.0199
     17 C           2.2920   -1.0830    0.0000 C.ar    1  LIG1        0.0205
     18 C           1.7830   -1.9580    0.0000 C.ar    1  LIG1        0.0016
     19 C           2.2920   -2.8250    0.0000 C.ar    1  LIG1        0.0000
     20 C           3.2960   -2.8250    0.0000 C.ar    1  LIG1        0.0000
     21 C           3.7960   -1.9460    0.0000 C.ar    1  LIG1        0.0000
     22 C           3.2880   -1.0830    0.0000 C.ar    1  LIG1        0.0016
     23 N           1.4500    2.3630    0.0000 N.ar    1  LIG1       -0.2154
     24 C           0.5880    2.8630    0.0000 C.ar    1  LIG1        0.0636
     25 C          -0.2830    2.3630    0.0000 C.ar    1  LIG1        0.0280
     26 C          -0.2830    1.3500    0.0000 C.ar    1  LIG1        0.0469
     27 C          -1.1580    0.8460    0.0000 C.3     1  LIG1        0.0505
     28 C           0.5880    3.8630    0.0000 C.3     1  LIG1        0.0522
@<TRIPOS>BOND
     1     1     2   ar
     2     1     5   ar
     3     1    26   ar
     4     2     3   ar
     5     2    23   ar
     6     3     4   ar
     7     4     5   ar
     8     4    17    1
     9     5     6    1
    10     6     7    1
    11     7     8   ar
    12     7    16   ar
    13     8     9   ar
    14     9    10   ar
    15     9    14    1
    16    10    11    1
    17    10    15   ar
    18    11    12    1
    19    12    13    1
    20    13    14    1
    21    15    16   ar
    22    17    18   ar
    23    17    22   ar
    24    18    19   ar
    25    19    20   ar
    26    20    21   ar
    27    21    22   ar
    28    23    24   ar
    29    24    25   ar
    30    24    28    1
    31    25    26   ar
    32    26    27    1
