@<TRIPOS>MOLECULE
35921_ChemDiv_C169-0036
 26 29 0 0 0
SMALL
GASTEIGER
Energy = 0

@<TRIPOS>ATOM
      1 C           1.0000    0.2380    0.0000 C.ar    1  LIG1        0.1559
      2 N           0.8000    1.2290    0.0000 N.ar    1  LIG1       -0.2737
      3 C           1.6460    1.7290    0.0000 C.ar    1  LIG1        0.1585
      4 N           2.4000    1.0500    0.0000 N.ar    1  LIG1       -0.2242
      5 C           2.0000    0.1500    0.0000 C.ar    1  LIG1        0.1148
      6 C           2.5380   -0.6960    0.0000 C.ar    1  LIG1        0.0205
      7 C           3.5380   -0.6330    0.0000 C.ar    1  LIG1        0.0013
      8 C           4.0880   -1.4670    0.0000 C.ar    1  LIG1       -0.0042
      9 C           3.6380   -2.3670    0.0000 C.ar    1  LIG1       -0.0218
     10 C           2.6380   -2.4290    0.0000 C.ar    1  LIG1       -0.0042
     11 C           2.0880   -1.5670    0.0000 C.ar    1  LIG1        0.0013
     12 C           4.1960   -3.2290    0.0000 C.3     1  LIG1        0.0310
     13 C           1.6460    2.7290    0.0000 C.ar    1  LIG1        0.0712
     14 N           0.8000    3.2290    0.0000 N.ar    1  LIG1       -0.2476
     15 C          -0.0670    2.7290    0.0000 C.ar    1  LIG1        0.1172
     16 C          -0.0670    1.7290    0.0000 C.ar    1  LIG1        0.1033
     17 N           0.3420   -0.5040    0.0000 N.pl3   1  LIG1       -0.1939
     18 C          -0.6290   -0.3040    0.0000 C.ar    1  LIG1        0.0723
     19 C          -0.9330    0.6290    0.0000 C.ar    1  LIG1        0.0197
     20 C          -1.9290    0.8290    0.0000 C.ar    1  LIG1        0.0382
     21 C          -2.5790    0.0670    0.0000 C.ar    1  LIG1        0.1388
     22 C          -2.2630   -0.8670    0.0000 C.ar    1  LIG1        0.0382
     23 C          -1.2960   -1.0670    0.0000 C.ar    1  LIG1        0.0197
     24 O          -3.5580    0.2540    0.0000 O.3     1  LIG1       -0.4714
     25 C          -4.2000   -0.5040    0.0000 C.3     1  LIG1        0.2525
     26 H           2.5330    3.2330    0.0000 H       1  LIG1        0.0867
@<TRIPOS>BOND
     1     1     2   ar
     2     1     5   ar
     3     1    17    1
     4     2     3   ar
     5     2    16   ar
     6     3     4   ar
     7     3    13   ar
     8     4     5   ar
     9     5     6    1
    10     6     7   ar
    11     6    11   ar
    12     7     8   ar
    13     8     9   ar
    14     9    10   ar
    15     9    12    1
    16    10    11   ar
    17    13    14   ar
    18    13    26    1
    19    14    15   ar
    20    15    16   ar
    21    17    18    1
    22    18    19   ar
    23    18    23   ar
    24    19    20   ar
    25    20    21   ar
    26    21    22   ar
    27    21    24    1
    28    22    23   ar
    29    24    25    1
