@<TRIPOS>MOLECULE
35924_ChemDiv_C325-0165
 25 28 0 0 0
SMALL
GASTEIGER
Energy = 0

@<TRIPOS>ATOM
      1 N          -1.0880    0.7830    0.0000 N.ar    1  LIG1       -0.2657
      2 C          -0.8790   -0.1920    0.0000 C.ar    1  LIG1        0.1582
      3 C           0.1210   -0.2880    0.0000 C.ar    1  LIG1        0.1338
      4 N           0.5250    0.6080    0.0000 N.ar    1  LIG1       -0.2067
      5 C          -0.2290    1.2830    0.0000 C.ar    1  LIG1        0.2374
      6 N          -0.2290    2.2880    0.0000 N.ar    1  LIG1       -0.2154
      7 C          -1.0880    2.7830    0.0000 C.ar    1  LIG1        0.0636
      8 C          -1.9500    2.2880    0.0000 C.ar    1  LIG1        0.0280
      9 C          -1.9500    1.2830    0.0000 C.ar    1  LIG1        0.0469
     10 C          -2.8290    0.7750    0.0000 C.3     1  LIG1        0.0505
     11 C          -1.0880    3.7830    0.0000 C.3     1  LIG1        0.0522
     12 C           1.0380   -0.6960    0.0000 C.ar    1  LIG1        0.1018
     13 N           1.8540   -0.1170    0.0000 N.ar    1  LIG1       -0.2422
     14 C           2.7670   -0.5290    0.0000 C.ar    1  LIG1        0.0989
     15 C           2.8670   -1.5250    0.0000 C.ar    1  LIG1        0.0207
     16 C           2.0420   -2.1170    0.0000 C.ar    1  LIG1        0.0032
     17 C           1.1330   -1.6920    0.0000 C.ar    1  LIG1        0.0208
     18 N          -1.5420   -0.9380    0.0000 N.pl3   1  LIG1       -0.1942
     19 C          -1.2250   -1.8830    0.0000 C.ar    1  LIG1        0.0681
     20 C          -1.8920   -2.6250    0.0000 C.ar    1  LIG1       -0.0065
     21 C          -2.8710   -2.4210    0.0000 C.3     1  LIG1        0.0324
     22 C          -1.5880   -3.5670    0.0000 C.ar    1  LIG1       -0.0030
     23 C          -0.6080   -3.7790    0.0000 C.ar    1  LIG1       -0.0002
     24 C           0.0580   -3.0380    0.0000 C.ar    1  LIG1        0.0013
     25 C          -0.2580   -2.0880    0.0000 C.ar    1  LIG1        0.0162
@<TRIPOS>BOND
     1     1     2   ar
     2     1     5   ar
     3     1     9   ar
     4     2     3   ar
     5     2    18    1
     6     3     4   ar
     7     3    12    1
     8     4     5   ar
     9     5     6   ar
    10     6     7   ar
    11     7     8   ar
    12     7    11    1
    13     8     9   ar
    14     9    10    1
    15    12    13   ar
    16    12    17   ar
    17    13    14   ar
    18    14    15   ar
    19    15    16   ar
    20    16    17   ar
    21    18    19    1
    22    19    20   ar
    23    19    25   ar
    24    20    21    1
    25    20    22   ar
    26    22    23   ar
    27    23    24   ar
    28    24    25   ar
