@<TRIPOS>MOLECULE
35926_ChemDiv_C325-0166
 25 28 0 0 0
SMALL
GASTEIGER
Energy = 0

@<TRIPOS>ATOM
      1 N          -0.3170    0.6670    0.0000 N.ar    1  LIG1       -0.2657
      2 C           0.5630    1.1790    0.0000 C.ar    1  LIG1        0.2373
      3 N           1.3290    0.4880    0.0000 N.ar    1  LIG1       -0.2082
      4 C           0.9210   -0.4290    0.0000 C.ar    1  LIG1        0.1178
      5 C          -0.1000   -0.3290    0.0000 C.ar    1  LIG1        0.1567
      6 N          -0.7790   -1.0920    0.0000 N.pl3   1  LIG1       -0.1942
      7 C          -1.2920   -1.9750    0.0000 C.ar    1  LIG1        0.0681
      8 C          -2.3130   -1.9580    0.0000 C.ar    1  LIG1       -0.0065
      9 C          -2.8170   -1.0790    0.0000 C.3     1  LIG1        0.0324
     10 C          -2.8330   -2.8380    0.0000 C.ar    1  LIG1       -0.0030
     11 C          -2.3250   -3.7290    0.0000 C.ar    1  LIG1       -0.0002
     12 C          -1.3080   -3.7290    0.0000 C.ar    1  LIG1        0.0013
     13 C          -0.7960   -2.8460    0.0000 C.ar    1  LIG1        0.0162
     14 C           1.3960   -1.2290    0.0000 C.ar    1  LIG1        0.0397
     15 C           2.3380   -1.2000    0.0000 C.ar    1  LIG1        0.1004
     16 N           2.8290   -2.0040    0.0000 N.ar    1  LIG1       -0.2423
     17 C           2.3710   -2.8380    0.0000 C.ar    1  LIG1        0.0989
     18 C           1.4290   -2.8540    0.0000 C.ar    1  LIG1        0.0207
     19 C           0.9500   -2.0500    0.0000 C.ar    1  LIG1        0.0047
     20 N           0.5630    2.2000    0.0000 N.ar    1  LIG1       -0.2154
     21 C          -0.3170    2.7130    0.0000 C.ar    1  LIG1        0.0636
     22 C          -1.1960    2.2000    0.0000 C.ar    1  LIG1        0.0280
     23 C          -1.1960    1.1790    0.0000 C.ar    1  LIG1        0.0469
     24 C          -2.0920    0.6580    0.0000 C.3     1  LIG1        0.0505
     25 C          -0.3170    3.7330    0.0000 C.3     1  LIG1        0.0522
@<TRIPOS>BOND
     1     1     2   ar
     2     1     5   ar
     3     1    23   ar
     4     2     3   ar
     5     2    20   ar
     6     3     4   ar
     7     4     5   ar
     8     4    14    1
     9     5     6    1
    10     6     7    1
    11     7     8   ar
    12     7    13   ar
    13     8     9    1
    14     8    10   ar
    15    10    11   ar
    16    11    12   ar
    17    12    13   ar
    18    14    15   ar
    19    14    19   ar
    20    15    16   ar
    21    16    17   ar
    22    17    18   ar
    23    18    19   ar
    24    20    21   ar
    25    21    22   ar
    26    21    25    1
    27    22    23   ar
    28    23    24    1
