@<TRIPOS>MOLECULE
35927_ChemDiv_C169-0054
 27 30 0 0 0
SMALL
GASTEIGER
Energy = 0

@<TRIPOS>ATOM
      1 C           0.5080    0.2380    0.0000 C.ar    1  LIG1        0.1559
      2 N           0.3080    1.2290    0.0000 N.ar    1  LIG1       -0.2737
      3 C           1.1540    1.7290    0.0000 C.ar    1  LIG1        0.1585
      4 N           1.9080    1.0500    0.0000 N.ar    1  LIG1       -0.2242
      5 C           1.5080    0.1500    0.0000 C.ar    1  LIG1        0.1148
      6 C           2.0460   -0.6960    0.0000 C.ar    1  LIG1        0.0207
      7 C           3.0460   -0.6380    0.0000 C.ar    1  LIG1        0.0047
      8 C           3.5960   -1.4710    0.0000 C.ar    1  LIG1        0.0370
      9 C           3.1460   -2.3710    0.0000 C.ar    1  LIG1        0.1387
     10 C           2.1460   -2.4290    0.0000 C.ar    1  LIG1        0.0370
     11 C           1.5960   -1.5710    0.0000 C.ar    1  LIG1        0.0047
     12 O           3.7080   -3.2290    0.0000 O.3     1  LIG1       -0.4714
     13 C           4.6920   -3.1710    0.0000 C.3     1  LIG1        0.2525
     14 C           1.1540    2.7290    0.0000 C.ar    1  LIG1        0.0712
     15 N           0.3080    3.2290    0.0000 N.ar    1  LIG1       -0.2476
     16 C          -0.5580    2.7290    0.0000 C.ar    1  LIG1        0.1172
     17 C          -0.5580    1.7290    0.0000 C.ar    1  LIG1        0.1033
     18 N          -0.1500   -0.5040    0.0000 N.pl3   1  LIG1       -0.1939
     19 C          -1.1210   -0.3040    0.0000 C.ar    1  LIG1        0.0723
     20 C          -1.4250    0.6290    0.0000 C.ar    1  LIG1        0.0197
     21 C          -2.4210    0.8290    0.0000 C.ar    1  LIG1        0.0382
     22 C          -3.0710    0.0670    0.0000 C.ar    1  LIG1        0.1388
     23 C          -2.7540   -0.8670    0.0000 C.ar    1  LIG1        0.0382
     24 C          -1.7880   -1.0670    0.0000 C.ar    1  LIG1        0.0197
     25 O          -4.0500    0.2540    0.0000 O.3     1  LIG1       -0.4714
     26 C          -4.6960   -0.5040    0.0000 C.3     1  LIG1        0.2525
     27 H           2.0420    3.2330    0.0000 H       1  LIG1        0.0867
@<TRIPOS>BOND
     1     1     2   ar
     2     1     5   ar
     3     1    18    1
     4     2     3   ar
     5     2    17   ar
     6     3     4   ar
     7     3    14   ar
     8     4     5   ar
     9     5     6    1
    10     6     7   ar
    11     6    11   ar
    12     7     8   ar
    13     8     9   ar
    14     9    10   ar
    15     9    12    1
    16    10    11   ar
    17    12    13    1
    18    14    15   ar
    19    14    27    1
    20    15    16   ar
    21    16    17   ar
    22    18    19    1
    23    19    20   ar
    24    19    24   ar
    25    20    21   ar
    26    21    22   ar
    27    22    23   ar
    28    22    25    1
    29    23    24   ar
    30    25    26    1
