@<TRIPOS>MOLECULE
35922_ChemDiv_C273-0439
 27 31 0 0 0
SMALL
GASTEIGER
Energy = 0

@<TRIPOS>ATOM
      1 N           0.9040    1.2540    0.0000 N.ar    1  LIG1       -0.2605
      2 C           1.1130    0.2880    0.0000 C.ar    1  LIG1        0.1570
      3 C           2.1000    0.1830    0.0000 C.ar    1  LIG1        0.1163
      4 N           2.4960    1.0920    0.0000 N.ar    1  LIG1       -0.2082
      5 C           1.7630    1.7500    0.0000 C.ar    1  LIG1        0.2380
      6 N           1.7630    2.7500    0.0000 N.ar    1  LIG1       -0.2095
      7 C           0.8960    3.2630    0.0000 C.ar    1  LIG1        0.1036
      8 C           0.0330    2.7500    0.0000 C.ar    1  LIG1        0.0399
      9 C           0.0330    1.7500    0.0000 C.ar    1  LIG1        0.0857
     10 C           2.6000   -0.6790    0.0000 C.ar    1  LIG1        0.0207
     11 C           2.1000   -1.5460    0.0000 C.ar    1  LIG1        0.0049
     12 C           2.6000   -2.4000    0.0000 C.ar    1  LIG1        0.0421
     13 C           3.6040   -2.4000    0.0000 C.ar    1  LIG1        0.1957
     14 C           4.0960   -1.5290    0.0000 C.ar    1  LIG1        0.0421
     15 C           3.5960   -0.6710    0.0000 C.ar    1  LIG1        0.0049
     16 O           4.1040   -3.2580    0.0000 O.3     1  LIG1       -0.2866
     17 N           0.3960   -0.4290    0.0000 N.pl3   1  LIG1       -0.1938
     18 C          -0.6080   -0.4210    0.0000 C.ar    1  LIG1        0.0754
     19 C          -1.1000    0.4500    0.0000 C.ar    1  LIG1        0.0566
     20 C          -2.1040    0.4580    0.0000 C.ar    1  LIG1        0.1737
     21 C          -2.6130   -0.4040    0.0000 C.ar    1  LIG1        0.1725
     22 O          -3.6170   -0.3960    0.0000 O.3     1  LIG1       -0.4684
     23 C          -4.1080    0.4790    0.0000 C.3     1  LIG1        0.2526
     24 C          -3.6080    1.3420    0.0000 C.3     1  LIG1        0.2526
     25 O          -2.5960    1.3250    0.0000 O.3     1  LIG1       -0.4683
     26 C          -2.1130   -1.2880    0.0000 C.ar    1  LIG1        0.0414
     27 C          -1.1080   -1.2880    0.0000 C.ar    1  LIG1        0.0199
@<TRIPOS>BOND
     1     1     2   ar
     2     1     5   ar
     3     1     9   ar
     4     2     3   ar
     5     2    17    1
     6     3     4   ar
     7     3    10    1
     8     4     5   ar
     9     5     6   ar
    10     6     7   ar
    11     7     8   ar
    12     8     9   ar
    13    10    11   ar
    14    10    15   ar
    15    11    12   ar
    16    12    13   ar
    17    13    14   ar
    18    13    16    1
    19    14    15   ar
    20    17    18    1
    21    18    19   ar
    22    18    27   ar
    23    19    20   ar
    24    20    21   ar
    25    20    25    1
    26    21    22    1
    27    21    26   ar
    28    22    23    1
    29    23    24    1
    30    24    25    1
    31    26    27   ar
