@<TRIPOS>MOLECULE
35934_ChemDiv_C325-0292
 26 30 0 0 0
SMALL
GASTEIGER
Energy = 0

@<TRIPOS>ATOM
      1 N           0.7960    1.2830    0.0000 N.ar    1  LIG1       -0.2605
      2 C           0.9960    0.3040    0.0000 C.ar    1  LIG1        0.1570
      3 C           1.9920    0.1880    0.0000 C.ar    1  LIG1        0.1163
      4 N           2.3960    1.0920    0.0000 N.ar    1  LIG1       -0.2082
      5 C           1.6750    1.7630    0.0000 C.ar    1  LIG1        0.2380
      6 N           1.6880    2.7630    0.0000 N.ar    1  LIG1       -0.2095
      7 C           0.8460    3.2920    0.0000 C.ar    1  LIG1        0.1036
      8 C          -0.0290    2.8080    0.0000 C.ar    1  LIG1        0.0399
      9 C          -0.0580    1.8000    0.0000 C.ar    1  LIG1        0.0857
     10 C           2.4710   -0.6880    0.0000 C.ar    1  LIG1        0.0207
     11 C           1.9580   -1.5380    0.0000 C.ar    1  LIG1        0.0049
     12 C           2.4420   -2.4080    0.0000 C.ar    1  LIG1        0.0421
     13 C           3.4500   -2.4250    0.0000 C.ar    1  LIG1        0.1957
     14 C           3.9630   -1.5580    0.0000 C.ar    1  LIG1        0.0421
     15 C           3.4670   -0.6920    0.0000 C.ar    1  LIG1        0.0049
     16 O           3.9330   -3.2880    0.0000 O.3     1  LIG1       -0.2866
     17 N           0.1290   -0.1920    0.0000 N.pl3   1  LIG1       -0.1938
     18 C          -0.8750   -0.1920    0.0000 C.ar    1  LIG1        0.0754
     19 C          -1.3710   -1.0540    0.0000 C.ar    1  LIG1        0.0567
     20 C          -2.3710   -1.0630    0.0000 C.ar    1  LIG1        0.1777
     21 C          -2.8710   -0.1920    0.0000 C.ar    1  LIG1        0.1765
     22 O          -3.8580   -0.4000    0.0000 O.3     1  LIG1       -0.4346
     23 C          -3.9670   -1.4000    0.0000 C.3     1  LIG1        0.4294
     24 O          -3.0460   -1.8080    0.0000 O.3     1  LIG1       -0.4346
     25 C          -2.3710    0.6790    0.0000 C.ar    1  LIG1        0.0415
     26 C          -1.3710    0.6790    0.0000 C.ar    1  LIG1        0.0199
@<TRIPOS>BOND
     1     1     2   ar
     2     1     5   ar
     3     1     9   ar
     4     2     3   ar
     5     2    17    1
     6     3     4   ar
     7     3    10    1
     8     4     5   ar
     9     5     6   ar
    10     6     7   ar
    11     7     8   ar
    12     8     9   ar
    13    10    11   ar
    14    10    15   ar
    15    11    12   ar
    16    12    13   ar
    17    13    14   ar
    18    13    16    1
    19    14    15   ar
    20    17    18    1
    21    18    19   ar
    22    18    26   ar
    23    19    20   ar
    24    20    21   ar
    25    20    24    1
    26    21    22    1
    27    21    25   ar
    28    22    23    1
    29    23    24    1
    30    25    26   ar
