@<TRIPOS>MOLECULE
35932_ChemDiv_C325-0282
 26 29 0 0 0
SMALL
GASTEIGER
Energy = 0

@<TRIPOS>ATOM
      1 N          -0.1580    1.4080    0.0000 N.ar    1  LIG1       -0.2605
      2 C           0.2960    0.5250    0.0000 C.ar    1  LIG1        0.1570
      3 C           1.2880    0.6830    0.0000 C.ar    1  LIG1        0.1164
      4 N           1.4250    1.6500    0.0000 N.ar    1  LIG1       -0.2082
      5 C           0.5420    2.1080    0.0000 C.ar    1  LIG1        0.2380
      6 N           0.2830    3.0670    0.0000 N.ar    1  LIG1       -0.2095
      7 C          -0.6920    3.3250    0.0000 C.ar    1  LIG1        0.1036
      8 C          -1.3750    2.6420    0.0000 C.ar    1  LIG1        0.0399
      9 C          -1.1170    1.6670    0.0000 C.ar    1  LIG1        0.0857
     10 C           2.0170   -0.0040    0.0000 C.ar    1  LIG1        0.0237
     11 C           1.7750   -0.9670    0.0000 C.ar    1  LIG1        0.0418
     12 C           2.5040   -1.6630    0.0000 C.ar    1  LIG1        0.1774
     13 C           3.4630   -1.3790    0.0000 C.ar    1  LIG1        0.2293
     14 C           3.6920   -0.4000    0.0000 C.ar    1  LIG1        0.0453
     15 C           2.9630    0.2880    0.0000 C.ar    1  LIG1        0.0051
     16 O           4.1960   -2.0630    0.0000 O.3     1  LIG1       -0.2833
     17 O           2.2710   -2.6250    0.0000 O.3     1  LIG1       -0.4682
     18 C           3.0000   -3.3210    0.0000 C.3     1  LIG1        0.2526
     19 N          -0.1750   -0.3830    0.0000 N.pl3   1  LIG1       -0.1939
     20 C          -1.1830   -0.4330    0.0000 C.ar    1  LIG1        0.0721
     21 C          -1.7250    0.4170    0.0000 C.ar    1  LIG1        0.0162
     22 C          -2.7330    0.3790    0.0000 C.ar    1  LIG1       -0.0029
     23 C          -3.1920   -0.5130    0.0000 C.ar    1  LIG1       -0.0218
     24 C          -2.6630   -1.3630    0.0000 C.ar    1  LIG1       -0.0029
     25 C          -1.6500   -1.3170    0.0000 C.ar    1  LIG1        0.0162
     26 C          -4.2000   -0.5500    0.0000 C.3     1  LIG1        0.0310
@<TRIPOS>BOND
     1     1     2   ar
     2     1     5   ar
     3     1     9   ar
     4     2     3   ar
     5     2    19    1
     6     3     4   ar
     7     3    10    1
     8     4     5   ar
     9     5     6   ar
    10     6     7   ar
    11     7     8   ar
    12     8     9   ar
    13    10    11   ar
    14    10    15   ar
    15    11    12   ar
    16    12    13   ar
    17    12    17    1
    18    13    14   ar
    19    13    16    1
    20    14    15   ar
    21    17    18    1
    22    19    20    1
    23    20    21   ar
    24    20    25   ar
    25    21    22   ar
    26    22    23   ar
    27    23    24   ar
    28    23    26    1
    29    24    25   ar
