@<TRIPOS>MOLECULE
35935_ChemDiv_C169-0159
 27 30 0 0 0
SMALL
GASTEIGER
Energy = 0

@<TRIPOS>ATOM
      1 C           0.3210    0.3210    0.0000 C.ar    1  LIG1        0.1559
      2 N           0.1210    1.3130    0.0000 N.ar    1  LIG1       -0.2737
      3 C           0.9710    1.8170    0.0000 C.ar    1  LIG1        0.1585
      4 N           1.7210    1.1380    0.0000 N.ar    1  LIG1       -0.2242
      5 C           1.3210    0.2330    0.0000 C.ar    1  LIG1        0.1149
      6 C           1.7880   -0.6630    0.0000 C.ar    1  LIG1        0.0237
      7 C           1.2540   -1.4830    0.0000 C.ar    1  LIG1        0.0418
      8 C           1.7210   -2.3830    0.0000 C.ar    1  LIG1        0.1774
      9 C           2.7210   -2.4170    0.0000 C.ar    1  LIG1        0.2293
     10 C           3.2540   -1.5670    0.0000 C.ar    1  LIG1        0.0453
     11 C           2.7880   -0.7000    0.0000 C.ar    1  LIG1        0.0051
     12 O           3.1920   -3.3170    0.0000 O.3     1  LIG1       -0.2833
     13 O           1.1880   -3.2330    0.0000 O.3     1  LIG1       -0.4682
     14 C           0.1710   -3.2130    0.0000 C.3     1  LIG1        0.2526
     15 C           0.9710    2.8130    0.0000 C.ar    1  LIG1        0.0712
     16 N           0.1210    3.3170    0.0000 N.ar    1  LIG1       -0.2476
     17 C          -0.7460    2.8130    0.0000 C.ar    1  LIG1        0.1172
     18 C          -0.7460    1.8170    0.0000 C.ar    1  LIG1        0.1033
     19 N          -0.3420   -0.4170    0.0000 N.pl3   1  LIG1       -0.1943
     20 C          -1.3040   -0.2170    0.0000 C.ar    1  LIG1        0.0681
     21 C          -1.9710   -0.9830    0.0000 C.ar    1  LIG1       -0.0065
     22 C          -1.6380   -1.9290    0.0000 C.3     1  LIG1        0.0324
     23 C          -2.9380   -0.7830    0.0000 C.ar    1  LIG1       -0.0030
     24 C          -3.2580    0.1500    0.0000 C.ar    1  LIG1       -0.0002
     25 C          -2.6040    0.9130    0.0000 C.ar    1  LIG1        0.0013
     26 C          -1.6130    0.7130    0.0000 C.ar    1  LIG1        0.0162
     27 H           1.8540    3.3210    0.0000 H       1  LIG1        0.0867
@<TRIPOS>BOND
     1     1     2   ar
     2     1     5   ar
     3     1    19    1
     4     2     3   ar
     5     2    18   ar
     6     3     4   ar
     7     3    15   ar
     8     4     5   ar
     9     5     6    1
    10     6     7   ar
    11     6    11   ar
    12     7     8   ar
    13     8     9   ar
    14     8    13    1
    15     9    10   ar
    16     9    12    1
    17    10    11   ar
    18    13    14    1
    19    15    16   ar
    20    15    27    1
    21    16    17   ar
    22    17    18   ar
    23    19    20    1
    24    20    21   ar
    25    20    26   ar
    26    21    22    1
    27    21    23   ar
    28    23    24   ar
    29    24    25   ar
    30    25    26   ar
