@<TRIPOS>MOLECULE
35936_ChemDiv_C325-0385
 24 27 0 0 0
SMALL
GASTEIGER
Energy = 0

@<TRIPOS>ATOM
      1 N          -0.2290    0.8380    0.0000 N.ar    1  LIG1       -0.2657
      2 C           0.6130    1.3210    0.0000 C.ar    1  LIG1        0.2373
      3 N           1.3330    0.6710    0.0000 N.ar    1  LIG1       -0.2083
      4 C           0.9330   -0.2040    0.0000 C.ar    1  LIG1        0.1163
      5 C          -0.0170   -0.1080    0.0000 C.ar    1  LIG1        0.1567
      6 N          -1.3960   -0.5960    0.0000 N.pl3   1  LIG1       -0.1939
      7 C          -1.7380   -1.8630    0.0000 C.ar    1  LIG1        0.0721
      8 C          -2.6330   -2.1960    0.0000 C.ar    1  LIG1        0.0166
      9 C          -2.7920   -3.1460    0.0000 C.ar    1  LIG1        0.0013
     10 C          -2.0540   -3.7630    0.0000 C.ar    1  LIG1        0.0001
     11 C          -1.1500   -3.4170    0.0000 C.ar    1  LIG1        0.0013
     12 C          -0.9830   -2.4670    0.0000 C.ar    1  LIG1        0.0166
     13 C           1.3790   -1.0750    0.0000 C.ar    1  LIG1        0.0205
     14 C           2.3500   -1.1250    0.0000 C.ar    1  LIG1        0.0016
     15 C           2.7880   -1.9830    0.0000 C.ar    1  LIG1        0.0000
     16 C           2.2580   -2.8000    0.0000 C.ar    1  LIG1        0.0000
     17 C           1.2960   -2.7460    0.0000 C.ar    1  LIG1        0.0000
     18 C           0.8580   -1.8790    0.0000 C.ar    1  LIG1        0.0016
     19 N           0.6130    2.2920    0.0000 N.ar    1  LIG1       -0.2154
     20 C          -0.2290    2.7830    0.0000 C.ar    1  LIG1        0.0636
     21 C          -1.0630    2.2920    0.0000 C.ar    1  LIG1        0.0280
     22 C          -1.0630    1.3210    0.0000 C.ar    1  LIG1        0.0469
     23 C          -1.9330    0.8210    0.0000 C.3     1  LIG1        0.0505
     24 C          -0.2290    3.7670    0.0000 C.3     1  LIG1        0.0522
@<TRIPOS>BOND
     1     1     2   ar
     2     1     5   ar
     3     1    22   ar
     4     2     3   ar
     5     2    19   ar
     6     3     4   ar
     7     4     5   ar
     8     4    13    1
     9     5     6    1
    10     6     7    1
    11     7     8   ar
    12     7    12   ar
    13     8     9   ar
    14     9    10   ar
    15    10    11   ar
    16    11    12   ar
    17    13    14   ar
    18    13    18   ar
    19    14    15   ar
    20    15    16   ar
    21    16    17   ar
    22    17    18   ar
    23    19    20   ar
    24    20    21   ar
    25    20    24    1
    26    21    22   ar
    27    22    23    1
