@<TRIPOS>MOLECULE
35939_ChemDiv_K784-9296
 30 33 0 0 0
SMALL
GASTEIGER
Energy = 0

@<TRIPOS>ATOM
      1 N          -3.3790   -1.2250    0.0000 N.am    1  LIG1       -0.1780
      2 C          -2.5210   -1.7330    0.0000 C.ar    1  LIG1        0.0792
      3 C          -2.5290   -2.7330    0.0000 C.ar    1  LIG1        0.0410
      4 S          -3.3960   -3.2330    0.0000 S.3     1  LIG1       -0.1025
      5 C          -4.2670   -2.7290    0.0000 C.3     1  LIG1        0.1491
      6 C          -4.2630   -1.7170    0.0000 C.2     1  LIG1        0.2569
      7 O          -5.1250   -1.2080    0.0000 O.2     1  LIG1       -0.2720
      8 C          -1.6630   -3.2500    0.0000 C.ar    1  LIG1        0.0076
      9 C          -0.7880   -2.7580    0.0000 C.ar    1  LIG1        0.0052
     10 C          -0.7830   -1.7460    0.0000 C.ar    1  LIG1        0.0564
     11 C           0.0960   -1.2630    0.0000 C.2     1  LIG1        0.2648
     12 O           0.1080   -0.2580    0.0000 O.2     1  LIG1       -0.2684
     13 N           0.9630   -1.7710    0.0000 N.am    1  LIG1       -0.2016
     14 C           0.9580   -2.7630    0.0000 C.3     1  LIG1        0.1169
     15 C           1.8210   -3.2670    0.0000 C.3     1  LIG1        0.0408
     16 C           2.6710   -2.7500    0.0000 C.3     1  LIG1        0.0743
     17 N           2.6330   -1.7580    0.0000 N.3     1  LIG1       -0.2627
     18 C           1.7630   -1.2880    0.0000 C.3     1  LIG1        0.1359
     19 C           1.7290   -0.2880    0.0000 C.3     1  LIG1        0.1568
     20 N           2.5830    0.2420    0.0000 N.4     1  LIG1        0.3829
     21 C           2.5500    1.2460    0.0000 C.3     1  LIG1        0.1663
     22 C           3.4000    1.7630    0.0000 C.ar    1  LIG1        0.0344
     23 C           4.2710    1.2750    0.0000 C.ar    1  LIG1        0.0014
     24 C           5.1210    1.7960    0.0000 C.ar    1  LIG1       -0.0001
     25 C           5.1000    2.7920    0.0000 C.ar    1  LIG1       -0.0000
     26 C           4.2130    3.2710    0.0000 C.ar    1  LIG1       -0.0001
     27 C           3.3710    2.7460    0.0000 C.ar    1  LIG1        0.0014
     28 C           3.4540   -0.2380    0.0000 C.3     1  LIG1        0.1568
     29 C           3.4830   -1.2290    0.0000 C.3     1  LIG1        0.1359
     30 C          -1.6500   -1.2420    0.0000 C.ar    1  LIG1        0.0217
@<TRIPOS>BOND
     1     1     2    1
     2     1     6   am
     3     2     3   ar
     4     2    30   ar
     5     3     4    1
     6     3     8   ar
     7     4     5    1
     8     5     6    1
     9     6     7    2
    10     8     9   ar
    11     9    10   ar
    12    10    11    1
    13    10    30   ar
    14    11    12    2
    15    11    13   am
    16    13    14    1
    17    14    15    1
    18    15    16    1
    19    16    17    1
    20    17    18    1
    21    17    29    1
    22    18    19    1
    23    19    20    1
    24    20    21    1
    25    20    28    1
    26    21    22    1
    27    22    23   ar
    28    22    27   ar
    29    23    24   ar
    30    24    25   ar
    31    25    26   ar
    32    26    27   ar
    33    28    29    1
