@<TRIPOS>MOLECULE
35937_ChemDiv_C796-0393
 20 22 0 0 0
SMALL
GASTEIGER
Energy = 0

@<TRIPOS>ATOM
      1 C           1.3000    0.5080    0.0000 C.ar    1  LIG1        0.0538
      2 N           2.1630    1.0040    0.0000 N.pl3   1  LIG1       -0.3045
      3 C           2.1630    2.0040    0.0000 C.3     1  LIG1        0.1028
      4 C           1.2960    2.5040    0.0000 C.3     1  LIG1        0.0836
      5 S           0.4210    2.0040    0.0000 S.3     1  LIG1       -0.1106
      6 C           0.4330    1.0040    0.0000 C.ar    1  LIG1        0.0386
      7 C          -0.4290    0.5080    0.0000 C.ar    1  LIG1        0.0075
      8 C          -0.4290   -0.4920    0.0000 C.ar    1  LIG1        0.0051
      9 C           0.4330   -0.9920    0.0000 C.ar    1  LIG1        0.0563
     10 C           0.4380   -2.0000    0.0000 C.2     1  LIG1        0.2648
     11 N          -0.4290   -2.5000    0.0000 N.am    1  LIG1       -0.2034
     12 C          -1.2960   -2.0000    0.0000 C.3     1  LIG1        0.0956
     13 C          -1.2960   -0.9920    0.0000 C.3     1  LIG1        0.0217
     14 C          -2.1500   -0.4920    0.0000 C.3     1  LIG1        0.0018
     15 C          -3.0210   -0.9920    0.0000 C.3     1  LIG1        0.0001
     16 C          -3.0290   -1.9920    0.0000 C.3     1  LIG1        0.0018
     17 C          -2.1580   -2.4920    0.0000 C.3     1  LIG1        0.0217
     18 O           1.3000   -2.5000    0.0000 O.2     1  LIG1       -0.2684
     19 C           1.3000   -0.4920    0.0000 C.ar    1  LIG1        0.0196
     20 C           3.0250    0.5080    0.0000 C.3     1  LIG1        0.1122
@<TRIPOS>BOND
     1     1     2    1
     2     1     6   ar
     3     1    19   ar
     4     2     3    1
     5     2    20    1
     6     3     4    1
     7     4     5    1
     8     5     6    1
     9     6     7   ar
    10     7     8   ar
    11     8     9   ar
    12     9    10    1
    13     9    19   ar
    14    10    11   am
    15    10    18    2
    16    11    12    1
    17    12    13    1
    18    12    17    1
    19    13    14    1
    20    14    15    1
    21    15    16    1
    22    16    17    1
