@<TRIPOS>MOLECULE
35930_ChemDiv_C325-0269
 28 31 0 0 0
SMALL
GASTEIGER
Energy = 0

@<TRIPOS>ATOM
      1 N           0.0000    0.7880    0.0000 N.ar    1  LIG1       -0.2657
      2 C           0.8750    1.2710    0.0000 C.ar    1  LIG1        0.2373
      3 N           1.6080    0.5960    0.0000 N.ar    1  LIG1       -0.2083
      4 C           1.1920   -0.3130    0.0000 C.ar    1  LIG1        0.1164
      5 C           0.2040   -0.1960    0.0000 C.ar    1  LIG1        0.1567
      6 N          -0.6670   -0.6960    0.0000 N.pl3   1  LIG1       -0.1939
      7 C          -1.6670   -0.6960    0.0000 C.ar    1  LIG1        0.0721
      8 C          -2.1750   -1.5540    0.0000 C.ar    1  LIG1        0.0162
      9 C          -3.1710   -1.5540    0.0000 C.ar    1  LIG1       -0.0029
     10 C          -3.6710   -0.6880    0.0000 C.ar    1  LIG1       -0.0218
     11 C          -3.1710    0.1790    0.0000 C.ar    1  LIG1       -0.0029
     12 C          -2.1750    0.1790    0.0000 C.ar    1  LIG1        0.0162
     13 C          -4.6710   -0.6880    0.0000 C.3     1  LIG1        0.0310
     14 C           1.6830   -1.1880    0.0000 C.ar    1  LIG1        0.0237
     15 C           2.6830   -1.1920    0.0000 C.ar    1  LIG1        0.0418
     16 C           3.1710   -2.0670    0.0000 C.ar    1  LIG1        0.1774
     17 C           2.6580   -2.9290    0.0000 C.ar    1  LIG1        0.2293
     18 C           1.6580   -2.9170    0.0000 C.ar    1  LIG1        0.0453
     19 C           1.1630   -2.0420    0.0000 C.ar    1  LIG1        0.0051
     20 O           3.1500   -3.7920    0.0000 O.3     1  LIG1       -0.2833
     21 O           4.1630   -2.0790    0.0000 O.3     1  LIG1       -0.4682
     22 C           4.6670   -1.2170    0.0000 C.3     1  LIG1        0.2526
     23 N           0.9000    2.2670    0.0000 N.ar    1  LIG1       -0.2154
     24 C           0.0460    2.7960    0.0000 C.ar    1  LIG1        0.0636
     25 C          -0.8330    2.3130    0.0000 C.ar    1  LIG1        0.0280
     26 C          -0.8500    1.3040    0.0000 C.ar    1  LIG1        0.0469
     27 C          -1.7250    0.8330    0.0000 C.3     1  LIG1        0.0505
     28 C           0.0750    3.7960    0.0000 C.3     1  LIG1        0.0522
@<TRIPOS>BOND
     1     1     2   ar
     2     1     5   ar
     3     1    26   ar
     4     2     3   ar
     5     2    23   ar
     6     3     4   ar
     7     4     5   ar
     8     4    14    1
     9     5     6    1
    10     6     7    1
    11     7     8   ar
    12     7    12   ar
    13     8     9   ar
    14     9    10   ar
    15    10    11   ar
    16    10    13    1
    17    11    12   ar
    18    14    15   ar
    19    14    19   ar
    20    15    16   ar
    21    16    17   ar
    22    16    21    1
    23    17    18   ar
    24    17    20    1
    25    18    19   ar
    26    21    22    1
    27    23    24   ar
    28    24    25   ar
    29    24    28    1
    30    25    26   ar
    31    26    27    1
