@<TRIPOS>MOLECULE
35933_ChemDiv_C169-0144
 28 31 0 0 0
SMALL
GASTEIGER
Energy = 0

@<TRIPOS>ATOM
      1 C           0.5080    0.6830    0.0000 C.ar    1  LIG1        0.1559
      2 N           0.3080    1.6750    0.0000 N.ar    1  LIG1       -0.2737
      3 C           1.1540    2.1750    0.0000 C.ar    1  LIG1        0.1585
      4 N           1.9080    1.4960    0.0000 N.ar    1  LIG1       -0.2242
      5 C           1.5080    0.5920    0.0000 C.ar    1  LIG1        0.1148
      6 C           2.0460   -0.2500    0.0000 C.ar    1  LIG1        0.0206
      7 C           3.0460   -0.1920    0.0000 C.ar    1  LIG1        0.0029
      8 C           3.5960   -1.0250    0.0000 C.ar    1  LIG1        0.0146
      9 C           3.1460   -1.9250    0.0000 C.ar    1  LIG1        0.0479
     10 N           3.7080   -2.7880    0.0000 N.pl3   1  LIG1       -0.3041
     11 C           3.2420   -3.6750    0.0000 C.3     1  LIG1        0.1122
     12 C           4.6920   -2.7250    0.0000 C.3     1  LIG1        0.1122
     13 C           2.1460   -1.9880    0.0000 C.ar    1  LIG1        0.0146
     14 C           1.5960   -1.1250    0.0000 C.ar    1  LIG1        0.0029
     15 C           1.1540    3.1750    0.0000 C.ar    1  LIG1        0.0712
     16 N           0.3080    3.6750    0.0000 N.ar    1  LIG1       -0.2476
     17 C          -0.5580    3.1750    0.0000 C.ar    1  LIG1        0.1172
     18 C          -0.5580    2.1750    0.0000 C.ar    1  LIG1        0.1033
     19 N          -0.1500   -0.0580    0.0000 N.pl3   1  LIG1       -0.1939
     20 C          -1.1210    0.1420    0.0000 C.ar    1  LIG1        0.0723
     21 C          -1.4250    1.0750    0.0000 C.ar    1  LIG1        0.0197
     22 C          -2.4210    1.2750    0.0000 C.ar    1  LIG1        0.0382
     23 C          -3.0710    0.5080    0.0000 C.ar    1  LIG1        0.1388
     24 C          -2.7540   -0.4250    0.0000 C.ar    1  LIG1        0.0382
     25 C          -1.7880   -0.6250    0.0000 C.ar    1  LIG1        0.0197
     26 O          -4.0500    0.7000    0.0000 O.3     1  LIG1       -0.4714
     27 C          -4.6960   -0.0580    0.0000 C.3     1  LIG1        0.2525
     28 H           2.0420    3.6790    0.0000 H       1  LIG1        0.0867
@<TRIPOS>BOND
     1     1     2   ar
     2     1     5   ar
     3     1    19    1
     4     2     3   ar
     5     2    18   ar
     6     3     4   ar
     7     3    15   ar
     8     4     5   ar
     9     5     6    1
    10     6     7   ar
    11     6    14   ar
    12     7     8   ar
    13     8     9   ar
    14     9    10    1
    15     9    13   ar
    16    10    11    1
    17    10    12    1
    18    13    14   ar
    19    15    16   ar
    20    15    28    1
    21    16    17   ar
    22    17    18   ar
    23    19    20    1
    24    20    21   ar
    25    20    25   ar
    26    21    22   ar
    27    22    23   ar
    28    23    24   ar
    29    23    26    1
    30    24    25   ar
    31    26    27    1
