@<TRIPOS>MOLECULE
35945_ChemDiv_C137-0109
 32 35 0 0 0
SMALL
GASTEIGER
Energy = 0

@<TRIPOS>ATOM
      1 C           1.4670    2.4500    0.0000 C.ar    1  LIG1        0.1194
      2 S           1.4670    1.4420    0.0000 S.O2    1  LIG1        0.0103
      3 C           1.4750    0.4460    0.0000 C.3     1  LIG1        0.1655
      4 C           0.6170   -0.0460    0.0000 C.3     1  LIG1        0.1110
      5 C           0.6170   -1.0290    0.0000 C.2     1  LIG1        0.2277
      6 N          -0.2580   -1.5330    0.0000 N.am    1  LIG1       -0.2751
      7 C          -1.1210   -1.0630    0.0000 C.3     1  LIG1        0.1195
      8 C          -1.9710   -1.4880    0.0000 C.2     1  LIG1       -0.0089
      9 C          -1.9920   -2.5130    0.0000 C.2     1  LIG1       -0.0231
     10 C          -1.1830   -3.0330    0.0000 C.3     1  LIG1        0.0476
     11 C          -0.2790   -2.5580    0.0000 C.3     1  LIG1        0.0984
     12 C          -2.8170   -2.9420    0.0000 C.ar    1  LIG1       -0.0042
     13 C          -3.6830   -2.3710    0.0000 C.ar    1  LIG1       -0.0003
     14 C          -4.5460   -2.8880    0.0000 C.ar    1  LIG1       -0.0000
     15 C          -4.5750   -3.9170    0.0000 C.ar    1  LIG1       -0.0000
     16 C          -3.7420   -4.4460    0.0000 C.ar    1  LIG1       -0.0000
     17 C          -2.8380   -3.9710    0.0000 C.ar    1  LIG1       -0.0003
     18 O           1.4790   -1.5330    0.0000 O.2     1  LIG1       -0.2748
     19 O           0.4710    1.4420    0.0000 O.2     1  LIG1       -0.1686
     20 O           2.4710    1.4500    0.0000 O.2     1  LIG1       -0.1686
     21 C           2.3330    2.9540    0.0000 C.ar    1  LIG1        0.0670
     22 N           3.2750    2.6500    0.0000 N.am    1  LIG1       -0.2574
     23 C           3.5920    1.6830    0.0000 C.2     1  LIG1        0.2299
     24 O           2.9210    0.9580    0.0000 O.2     1  LIG1       -0.2745
     25 C           4.5710    1.4710    0.0000 C.3     1  LIG1        0.0952
     26 C           3.8670    3.4500    0.0000 C.3     1  LIG1        0.1029
     27 C           3.2750    4.2630    0.0000 C.3     1  LIG1        0.0495
     28 C           2.3330    3.9580    0.0000 C.ar    1  LIG1       -0.0050
     29 C           1.4580    4.4460    0.0000 C.ar    1  LIG1        0.0038
     30 C           0.6040    3.9500    0.0000 C.ar    1  LIG1        0.0356
     31 C           0.6040    2.9540    0.0000 C.ar    1  LIG1        0.0263
     32 BR         -0.2880    4.4460    0.0000 Br      1  LIG1       -0.0490
@<TRIPOS>BOND
     1     1     2    1
     2     1    21   ar
     3     1    31   ar
     4     2     3    1
     5     2    19    2
     6     2    20    2
     7     3     4    1
     8     4     5    1
     9     5     6   am
    10     5    18    2
    11     6     7    1
    12     6    11    1
    13     7     8    1
    14     8     9    2
    15     9    10    1
    16     9    12    1
    17    10    11    1
    18    12    13   ar
    19    12    17   ar
    20    13    14   ar
    21    14    15   ar
    22    15    16   ar
    23    16    17   ar
    24    21    22    1
    25    21    28   ar
    26    22    23   am
    27    22    26    1
    28    23    24    2
    29    23    25    1
    30    26    27    1
    31    27    28    1
    32    28    29   ar
    33    29    30   ar
    34    30    31   ar
    35    30    32    1
