@<TRIPOS>MOLECULE
35947_ChemDiv_C137-0142
 36 40 0 0 0
SMALL
GASTEIGER
Energy = 0

@<TRIPOS>ATOM
      1 C           2.6630    1.7460    0.0000 C.ar    1  LIG1        0.1194
      2 S           2.6630    0.7380    0.0000 S.O2    1  LIG1        0.0103
      3 C           2.6710   -0.2630    0.0000 C.3     1  LIG1        0.1655
      4 C           1.8130   -0.7540    0.0000 C.3     1  LIG1        0.1110
      5 C           1.8130   -1.7420    0.0000 C.2     1  LIG1        0.2278
      6 N           0.9380   -2.2420    0.0000 N.am    1  LIG1       -0.2681
      7 C           0.0880   -1.7540    0.0000 C.3     1  LIG1        0.1565
      8 C          -0.7750   -2.2420    0.0000 C.3     1  LIG1        0.1610
      9 N          -0.7750   -3.2380    0.0000 N.4     1  LIG1        0.3834
     10 C          -1.6420   -3.7380    0.0000 C.3     1  LIG1        0.1664
     11 C          -2.4960   -3.2380    0.0000 C.ar    1  LIG1        0.0376
     12 C          -3.3630   -3.7380    0.0000 C.ar    1  LIG1        0.0416
     13 C          -4.2420   -3.2380    0.0000 C.ar    1  LIG1        0.1763
     14 C          -4.2250   -2.2420    0.0000 C.ar    1  LIG1        0.1764
     15 O          -5.1750   -1.9250    0.0000 O.3     1  LIG1       -0.4346
     16 C          -5.7790   -2.7250    0.0000 C.3     1  LIG1        0.4294
     17 O          -5.1920   -3.5420    0.0000 O.3     1  LIG1       -0.4346
     18 C          -3.3630   -1.7420    0.0000 C.ar    1  LIG1        0.0401
     19 C          -2.4960   -2.2420    0.0000 C.ar    1  LIG1        0.0048
     20 C           0.0880   -3.7500    0.0000 C.3     1  LIG1        0.1610
     21 C           0.9380   -3.2460    0.0000 C.3     1  LIG1        0.1565
     22 O           2.6750   -2.2420    0.0000 O.2     1  LIG1       -0.2748
     23 O           1.6630    0.7380    0.0000 O.2     1  LIG1       -0.1686
     24 O           3.6710    0.7500    0.0000 O.2     1  LIG1       -0.1686
     25 C           3.5330    2.2500    0.0000 C.ar    1  LIG1        0.0670
     26 N           4.4790    1.9500    0.0000 N.am    1  LIG1       -0.2574
     27 C           4.7960    0.9790    0.0000 C.2     1  LIG1        0.2299
     28 O           4.1250    0.2540    0.0000 O.2     1  LIG1       -0.2745
     29 C           5.7750    0.7710    0.0000 C.3     1  LIG1        0.0952
     30 C           5.0710    2.7540    0.0000 C.3     1  LIG1        0.1029
     31 C           4.4790    3.5710    0.0000 C.3     1  LIG1        0.0495
     32 C           3.5330    3.2630    0.0000 C.ar    1  LIG1       -0.0050
     33 C           2.6540    3.7540    0.0000 C.ar    1  LIG1        0.0038
     34 C           1.8000    3.2500    0.0000 C.ar    1  LIG1        0.0356
     35 C           1.8000    2.2500    0.0000 C.ar    1  LIG1        0.0263
     36 BR          0.9080    3.7540    0.0000 Br      1  LIG1       -0.0490
@<TRIPOS>BOND
     1     1     2    1
     2     1    25   ar
     3     1    35   ar
     4     2     3    1
     5     2    23    2
     6     2    24    2
     7     3     4    1
     8     4     5    1
     9     5     6   am
    10     5    22    2
    11     6     7    1
    12     6    21    1
    13     7     8    1
    14     8     9    1
    15     9    10    1
    16     9    20    1
    17    10    11    1
    18    11    12   ar
    19    11    19   ar
    20    12    13   ar
    21    13    14   ar
    22    13    17    1
    23    14    15    1
    24    14    18   ar
    25    15    16    1
    26    16    17    1
    27    18    19   ar
    28    20    21    1
    29    25    26    1
    30    25    32   ar
    31    26    27   am
    32    26    30    1
    33    27    28    2
    34    27    29    1
    35    30    31    1
    36    31    32    1
    37    32    33   ar
    38    33    34   ar
    39    34    35   ar
    40    34    36    1
