@<TRIPOS>MOLECULE
35941_ChemDiv_K786-7928
 31 35 0 0 0
SMALL
GASTEIGER
Energy = 0

@<TRIPOS>ATOM
      1 C          -1.3080    2.7380    0.0000 C.3     1  LIG1        0.2202
      2 S          -0.4420    3.2330    0.0000 S.3     1  LIG1       -0.0480
      3 C           0.4210    2.7330    0.0000 C.ar    1  LIG1        0.0461
      4 C           0.4210    1.7290    0.0000 C.ar    1  LIG1        0.0795
      5 N          -0.4460    1.2290    0.0000 N.am    1  LIG1       -0.1731
      6 C          -1.3130    1.7380    0.0000 C.2     1  LIG1        0.3084
      7 O          -2.1880    1.2460    0.0000 O.2     1  LIG1       -0.2657
      8 C           1.2880    1.2290    0.0000 C.ar    1  LIG1        0.0216
      9 C           2.1500    1.7290    0.0000 C.ar    1  LIG1        0.0549
     10 C           3.0250    1.2290    0.0000 C.2     1  LIG1        0.2492
     11 N           3.0330    0.2290    0.0000 N.am    1  LIG1       -0.2726
     12 C           2.1670   -0.2710    0.0000 C.3     1  LIG1        0.1152
     13 C           2.1630   -1.2580    0.0000 C.3     1  LIG1        0.1137
     14 N           3.0170   -1.7580    0.0000 N.pl3   1  LIG1       -0.2897
     15 C           3.0170   -2.7580    0.0000 C.ar    1  LIG1        0.1318
     16 N           2.1460   -3.2540    0.0000 N.ar    1  LIG1       -0.2292
     17 C           2.1380   -4.2540    0.0000 C.ar    1  LIG1        0.1003
     18 C           3.0000   -4.7630    0.0000 C.ar    1  LIG1        0.0208
     19 C           3.8750   -4.2580    0.0000 C.ar    1  LIG1        0.0045
     20 C           3.8790   -3.2580    0.0000 C.ar    1  LIG1        0.0343
     21 C           3.8790   -1.2670    0.0000 C.3     1  LIG1        0.1137
     22 C           3.8920   -0.2710    0.0000 C.3     1  LIG1        0.1152
     23 O           3.8960    1.7290    0.0000 O.2     1  LIG1       -0.2699
     24 C           2.1500    2.7330    0.0000 C.ar    1  LIG1        0.0051
     25 C           1.2880    3.2330    0.0000 C.ar    1  LIG1        0.0078
     26 N          -2.1710    3.2500    0.0000 N.4     1  LIG1        0.3917
     27 C          -2.1630    4.2460    0.0000 C.3     1  LIG1        0.1729
     28 C          -3.0210    4.7630    0.0000 C.3     1  LIG1        0.2048
     29 O          -3.8920    4.2580    0.0000 O.3     1  LIG1       -0.3411
     30 C          -3.9000    3.2630    0.0000 C.3     1  LIG1        0.2048
     31 C          -3.0380    2.7540    0.0000 C.3     1  LIG1        0.1729
@<TRIPOS>BOND
     1     1     2    1
     2     1     6    1
     3     1    26    1
     4     2     3    1
     5     3     4   ar
     6     3    25   ar
     7     4     5    1
     8     4     8   ar
     9     5     6   am
    10     6     7    2
    11     8     9   ar
    12     9    10    1
    13     9    24   ar
    14    10    11   am
    15    10    23    2
    16    11    12    1
    17    11    22    1
    18    12    13    1
    19    13    14    1
    20    14    15    1
    21    14    21    1
    22    15    16   ar
    23    15    20   ar
    24    16    17   ar
    25    17    18   ar
    26    18    19   ar
    27    19    20   ar
    28    21    22    1
    29    24    25   ar
    30    26    27    1
    31    26    31    1
    32    27    28    1
    33    28    29    1
    34    29    30    1
    35    30    31    1
