@<TRIPOS>MOLECULE
35943_ChemDiv_C123-0154
 26 30 0 0 0
SMALL
GASTEIGER
Energy = 0

@<TRIPOS>ATOM
      1 C           1.6790   -0.5920    0.0000 C.3     1  LIG1        0.1184
      2 C           2.5420   -1.0540    0.0000 C.3     1  LIG1        0.1381
      3 O           1.5500   -1.2790    0.0000 O.3     1  LIG1       -0.3499
      4 C           0.8080   -2.0670    0.0000 C.3     1  LIG1        0.1464
      5 C           0.8170   -1.0790    0.0000 C.3     1  LIG1        0.1207
      6 C          -0.0500   -0.5790    0.0000 C.2     1  LIG1        0.2446
      7 N          -0.9130   -1.0790    0.0000 N.am    1  LIG1       -0.1971
      8 C          -0.9130   -2.0670    0.0000 C.3     1  LIG1        0.1791
      9 C          -1.7580   -2.5790    0.0000 C.ar    1  LIG1        0.1449
     10 O          -1.8670   -3.5750    0.0000 O.2     1  LIG1       -0.4529
     11 C          -2.8500   -3.8040    0.0000 C.ar    1  LIG1        0.1792
     12 C          -3.3630   -2.9460    0.0000 C.ar    1  LIG1        0.0435
     13 C          -2.6830   -2.2040    0.0000 C.ar    1  LIG1        0.0380
     14 O          -0.0500    0.4080    0.0000 O.2     1  LIG1       -0.2732
     15 C           1.6790   -2.5670    0.0000 C.2     1  LIG1        0.0011
     16 C           2.5420   -2.0670    0.0000 C.2     1  LIG1        0.0002
     17 C           3.2670   -0.4080    0.0000 C.3     1  LIG1        0.1255
     18 N           2.8670    0.4830    0.0000 N.am    1  LIG1       -0.2721
     19 C           1.8790    0.3790    0.0000 C.2     1  LIG1        0.2288
     20 O           1.2130    1.1290    0.0000 O.2     1  LIG1       -0.2748
     21 C           3.3580    1.3460    0.0000 C.3     1  LIG1        0.1266
     22 C           2.8670    2.2170    0.0000 C.ar    1  LIG1        0.0273
     23 S           1.8790    2.3290    0.0000 S.2     1  LIG1       -0.0891
     24 C           1.6710    3.3080    0.0000 C.ar    1  LIG1        0.0352
     25 C           2.5420    3.8080    0.0000 C.ar    1  LIG1        0.0072
     26 C           3.2920    3.1330    0.0000 C.ar    1  LIG1        0.0044
@<TRIPOS>BOND
     1     1     2    1
     2     1     5    1
     3     1    19    1
     4     2     3    1
     5     2    16    1
     6     2    17    1
     7     3     4    1
     8     4     5    1
     9     4    15    1
    10     5     6    1
    11     6     7   am
    12     6    14    2
    13     7     8    1
    14     8     9    1
    15     9    10   ar
    16     9    13   ar
    17    10    11   ar
    18    11    12   ar
    19    12    13   ar
    20    15    16    2
    21    17    18    1
    22    18    19   am
    23    18    21    1
    24    19    20    2
    25    21    22    1
    26    22    23   ar
    27    22    26   ar
    28    23    24   ar
    29    24    25   ar
    30    25    26   ar
