@<TRIPOS>MOLECULE
35949_ChemDiv_C300-0020
 37 40 0 0 0
SMALL
GASTEIGER
Energy = 0

@<TRIPOS>ATOM
      1 N           2.4000    3.4290    0.0000 N.am    1  LIG1       -0.2574
      2 C           1.4420    3.7380    0.0000 C.ar    1  LIG1        0.0670
      3 C           0.5790    3.2380    0.0000 C.ar    1  LIG1        0.1194
      4 S           0.5790    2.2380    0.0000 S.O2    1  LIG1        0.0103
      5 C           0.5790    1.2330    0.0000 C.3     1  LIG1        0.1656
      6 C          -0.2880    0.7330    0.0000 C.3     1  LIG1        0.1129
      7 C          -0.2880   -0.2750    0.0000 C.2     1  LIG1        0.2474
      8 N          -1.1540   -0.7710    0.0000 N.am    1  LIG1       -0.1792
      9 C          -1.1540   -1.7790    0.0000 C.ar    1  LIG1        0.0738
     10 C          -2.0040   -2.2500    0.0000 C.ar    1  LIG1        0.0230
     11 C          -2.0210   -3.2500    0.0000 C.ar    1  LIG1        0.0771
     12 C          -2.8920   -3.7330    0.0000 C.2     1  LIG1        0.3414
     13 O          -2.8960   -4.7130    0.0000 O.2     1  LIG1       -0.2449
     14 O          -3.7420   -3.2250    0.0000 O.3     1  LIG1       -0.4413
     15 C          -4.6580   -3.8290    0.0000 C.3     1  LIG1        0.2560
     16 C          -1.1710   -3.7500    0.0000 C.ar    1  LIG1        0.0130
     17 C          -0.3040   -3.2540    0.0000 C.ar    1  LIG1        0.0771
     18 C           0.5460   -3.7540    0.0000 C.2     1  LIG1        0.3414
     19 O           1.4040   -3.2670    0.0000 O.2     1  LIG1       -0.2449
     20 O           0.5330   -4.7420    0.0000 O.3     1  LIG1       -0.4413
     21 C          -0.3210   -5.2380    0.0000 C.3     1  LIG1        0.2560
     22 C          -0.3040   -2.2830    0.0000 C.ar    1  LIG1        0.0230
     23 O           0.5880   -0.7750    0.0000 O.2     1  LIG1       -0.2729
     24 O          -0.4250    2.2380    0.0000 O.2     1  LIG1       -0.1686
     25 O           1.5790    2.2380    0.0000 O.2     1  LIG1       -0.1686
     26 C          -0.2880    3.7380    0.0000 C.ar    1  LIG1        0.0263
     27 C          -0.2880    4.7460    0.0000 C.ar    1  LIG1        0.0356
     28 C           0.5790    5.2380    0.0000 C.ar    1  LIG1        0.0038
     29 C           1.4420    4.7460    0.0000 C.ar    1  LIG1       -0.0050
     30 C           2.4000    5.0500    0.0000 C.3     1  LIG1        0.0495
     31 C           2.9880    4.2290    0.0000 C.3     1  LIG1        0.1029
     32 BR         -1.1710    5.2380    0.0000 Br      1  LIG1       -0.0490
     33 C           2.7000    2.4750    0.0000 C.2     1  LIG1        0.2289
     34 C           3.6750    2.2630    0.0000 C.3     1  LIG1        0.0771
     35 C           4.6540    2.0500    0.0000 C.3     1  LIG1        0.0096
     36 C           4.3500    3.0040    0.0000 C.3     1  LIG1        0.0096
     37 O           2.0330    1.7380    0.0000 O.2     1  LIG1       -0.2745
@<TRIPOS>BOND
     1     1     2    1
     2     1    31    1
     3     1    33   am
     4     2     3   ar
     5     2    29   ar
     6     3     4    1
     7     3    26   ar
     8     4     5    1
     9     4    24    2
    10     4    25    2
    11     5     6    1
    12     6     7    1
    13     7     8   am
    14     7    23    2
    15     8     9    1
    16     9    10   ar
    17     9    22   ar
    18    10    11   ar
    19    11    12    1
    20    11    16   ar
    21    12    13    2
    22    12    14    1
    23    14    15    1
    24    16    17   ar
    25    17    18    1
    26    17    22   ar
    27    18    19    2
    28    18    20    1
    29    20    21    1
    30    26    27   ar
    31    27    28   ar
    32    27    32    1
    33    28    29   ar
    34    29    30    1
    35    30    31    1
    36    33    34    1
    37    33    37    2
    38    34    35    1
    39    34    36    1
    40    35    36    1
