@<TRIPOS>MOLECULE
35954_ChemDiv_C325-0397
 27 30 0 0 0
SMALL
GASTEIGER
Energy = 0

@<TRIPOS>ATOM
      1 N          -0.5080    0.7580    0.0000 N.ar    1  LIG1       -0.2657
      2 C           0.3500    1.2630    0.0000 C.ar    1  LIG1        0.2373
      3 N           1.0880    0.5960    0.0000 N.ar    1  LIG1       -0.2083
      4 C           0.6880   -0.3130    0.0000 C.ar    1  LIG1        0.1164
      5 C          -0.3040   -0.2130    0.0000 C.ar    1  LIG1        0.1567
      6 N          -1.1750   -0.7000    0.0000 N.pl3   1  LIG1       -0.1939
      7 C          -2.1790   -0.7000    0.0000 C.ar    1  LIG1        0.0721
      8 C          -2.6790   -1.5630    0.0000 C.ar    1  LIG1        0.0166
      9 C          -3.6830   -1.5630    0.0000 C.ar    1  LIG1        0.0013
     10 C          -4.1830   -0.6830    0.0000 C.ar    1  LIG1        0.0001
     11 C          -3.6750    0.1830    0.0000 C.ar    1  LIG1        0.0013
     12 C          -2.6710    0.1790    0.0000 C.ar    1  LIG1        0.0166
     13 C           1.1880   -1.1790    0.0000 C.ar    1  LIG1        0.0237
     14 C           2.1830   -1.1710    0.0000 C.ar    1  LIG1        0.0418
     15 C           2.6880   -2.0330    0.0000 C.ar    1  LIG1        0.1774
     16 C           2.1880   -2.9040    0.0000 C.ar    1  LIG1        0.2293
     17 C           1.1880   -2.9040    0.0000 C.ar    1  LIG1        0.0453
     18 C           0.6880   -2.0420    0.0000 C.ar    1  LIG1        0.0051
     19 O           2.6880   -3.7670    0.0000 O.3     1  LIG1       -0.2833
     20 O           3.6830   -2.0330    0.0000 O.3     1  LIG1       -0.4682
     21 C           4.1790   -1.1630    0.0000 C.3     1  LIG1        0.2526
     22 N           0.3500    2.2670    0.0000 N.ar    1  LIG1       -0.2154
     23 C          -0.5210    2.7750    0.0000 C.ar    1  LIG1        0.0636
     24 C          -1.3830    2.2670    0.0000 C.ar    1  LIG1        0.0280
     25 C          -1.3830    1.2630    0.0000 C.ar    1  LIG1        0.0469
     26 C          -2.2460    0.7670    0.0000 C.3     1  LIG1        0.0505
     27 C          -0.5210    3.7710    0.0000 C.3     1  LIG1        0.0522
@<TRIPOS>BOND
     1     1     2   ar
     2     1     5   ar
     3     1    25   ar
     4     2     3   ar
     5     2    22   ar
     6     3     4   ar
     7     4     5   ar
     8     4    13    1
     9     5     6    1
    10     6     7    1
    11     7     8   ar
    12     7    12   ar
    13     8     9   ar
    14     9    10   ar
    15    10    11   ar
    16    11    12   ar
    17    13    14   ar
    18    13    18   ar
    19    14    15   ar
    20    15    16   ar
    21    15    20    1
    22    16    17   ar
    23    16    19    1
    24    17    18   ar
    25    20    21    1
    26    22    23   ar
    27    23    24   ar
    28    23    27    1
    29    24    25   ar
    30    25    26    1
