@<TRIPOS>MOLECULE
35953_ChemDiv_C169-0161
 29 32 0 0 0
SMALL
GASTEIGER
Energy = 0

@<TRIPOS>ATOM
      1 C           1.1330    0.3250    0.0000 C.ar    1  LIG1        0.1559
      2 N           0.9330    1.3170    0.0000 N.ar    1  LIG1       -0.2737
      3 C           1.7830    1.8170    0.0000 C.ar    1  LIG1        0.1585
      4 N           2.5330    1.1380    0.0000 N.ar    1  LIG1       -0.2242
      5 C           2.1330    0.2330    0.0000 C.ar    1  LIG1        0.1149
      6 C           2.6000   -0.6630    0.0000 C.ar    1  LIG1        0.0237
      7 C           2.0670   -1.4830    0.0000 C.ar    1  LIG1        0.0418
      8 C           2.5330   -2.3830    0.0000 C.ar    1  LIG1        0.1774
      9 C           3.5330   -2.4170    0.0000 C.ar    1  LIG1        0.2293
     10 C           4.0670   -1.5670    0.0000 C.ar    1  LIG1        0.0453
     11 C           3.6000   -0.7000    0.0000 C.ar    1  LIG1        0.0051
     12 O           4.0040   -3.3170    0.0000 O.3     1  LIG1       -0.2833
     13 O           2.0000   -3.2330    0.0000 O.3     1  LIG1       -0.4682
     14 C           0.9830   -3.2130    0.0000 C.3     1  LIG1        0.2526
     15 C           1.7830    2.8170    0.0000 C.ar    1  LIG1        0.0712
     16 N           0.9330    3.3170    0.0000 N.ar    1  LIG1       -0.2476
     17 C           0.0670    2.8170    0.0000 C.ar    1  LIG1        0.1172
     18 C           0.0670    1.8170    0.0000 C.ar    1  LIG1        0.1033
     19 N           0.4750   -0.4170    0.0000 N.pl3   1  LIG1       -0.1939
     20 C          -0.4960   -0.2170    0.0000 C.ar    1  LIG1        0.0721
     21 C          -0.8000    0.7170    0.0000 C.ar    1  LIG1        0.0162
     22 C          -1.7960    0.9170    0.0000 C.ar    1  LIG1       -0.0029
     23 C          -2.4460    0.1500    0.0000 C.ar    1  LIG1       -0.0224
     24 C          -2.1290   -0.7830    0.0000 C.ar    1  LIG1       -0.0029
     25 C          -1.1630   -0.9830    0.0000 C.ar    1  LIG1        0.0162
     26 C          -3.4290    0.3420    0.0000 C.3     1  LIG1        0.0224
     27 C          -3.7580    1.2710    0.0000 C.3     1  LIG1        0.0047
     28 C          -4.0710   -0.4170    0.0000 C.3     1  LIG1        0.0047
     29 H           2.6670    3.3210    0.0000 H       1  LIG1        0.0867
@<TRIPOS>BOND
     1     1     2   ar
     2     1     5   ar
     3     1    19    1
     4     2     3   ar
     5     2    18   ar
     6     3     4   ar
     7     3    15   ar
     8     4     5   ar
     9     5     6    1
    10     6     7   ar
    11     6    11   ar
    12     7     8   ar
    13     8     9   ar
    14     8    13    1
    15     9    10   ar
    16     9    12    1
    17    10    11   ar
    18    13    14    1
    19    15    16   ar
    20    15    29    1
    21    16    17   ar
    22    17    18   ar
    23    19    20    1
    24    20    21   ar
    25    20    25   ar
    26    21    22   ar
    27    22    23   ar
    28    23    24   ar
    29    23    26    1
    30    24    25   ar
    31    26    27    1
    32    26    28    1
