@<TRIPOS>MOLECULE
35959_ChemDiv_C169-0239
 25 28 0 0 0
SMALL
GASTEIGER
Energy = 0

@<TRIPOS>ATOM
      1 C          -0.2630   -0.2130    0.0000 C.ar    1  LIG1        0.1559
      2 N          -0.7290    0.6750    0.0000 N.ar    1  LIG1       -0.2732
      3 C          -0.0170    1.3790    0.0000 C.ar    1  LIG1        0.1681
      4 N           0.8630    0.9170    0.0000 N.ar    1  LIG1       -0.2235
      5 C           0.7040   -0.0750    0.0000 C.ar    1  LIG1        0.1148
      6 C           1.4750   -0.7000    0.0000 C.ar    1  LIG1        0.0207
      7 C           1.3170   -1.6880    0.0000 C.ar    1  LIG1        0.0047
      8 C           2.0880   -2.3250    0.0000 C.ar    1  LIG1        0.0370
      9 C           3.0290   -1.9710    0.0000 C.ar    1  LIG1        0.1387
     10 C           3.1790   -0.9750    0.0000 C.ar    1  LIG1        0.0370
     11 C           2.4080   -0.3500    0.0000 C.ar    1  LIG1        0.0047
     12 O           3.7920   -2.5960    0.0000 O.3     1  LIG1       -0.4714
     13 C           4.7250   -2.2420    0.0000 C.3     1  LIG1        0.2525
     14 C          -0.2750    2.3460    0.0000 C.ar    1  LIG1        0.1362
     15 N          -1.2500    2.6000    0.0000 N.ar    1  LIG1       -0.2376
     16 C          -1.9420    1.9040    0.0000 C.ar    1  LIG1        0.1180
     17 C          -1.6830    0.9330    0.0000 C.ar    1  LIG1        0.1033
     18 N          -0.7210   -1.1290    0.0000 N.pl3   1  LIG1       -0.1939
     19 C          -1.7210   -1.1880    0.0000 C.ar    1  LIG1        0.0721
     20 C          -2.1580   -2.0830    0.0000 C.ar    1  LIG1        0.0162
     21 C          -3.1580   -2.1500    0.0000 C.ar    1  LIG1       -0.0029
     22 C          -3.7290   -1.3080    0.0000 C.ar    1  LIG1       -0.0218
     23 C          -3.2750   -0.4130    0.0000 C.ar    1  LIG1       -0.0029
     24 C          -2.2750   -0.3500    0.0000 C.ar    1  LIG1        0.0162
     25 C          -4.7290   -1.3790    0.0000 C.3     1  LIG1        0.0310
@<TRIPOS>BOND
     1     1     2   ar
     2     1     5   ar
     3     1    18    1
     4     2     3   ar
     5     2    17   ar
     6     3     4   ar
     7     3    14   ar
     8     4     5   ar
     9     5     6    1
    10     6     7   ar
    11     6    11   ar
    12     7     8   ar
    13     8     9   ar
    14     9    10   ar
    15     9    12    1
    16    10    11   ar
    17    12    13    1
    18    14    15   ar
    19    15    16   ar
    20    16    17   ar
    21    18    19    1
    22    19    20   ar
    23    19    24   ar
    24    20    21   ar
    25    21    22   ar
    26    22    23   ar
    27    22    25    1
    28    23    24   ar
