@<TRIPOS>MOLECULE
35955_ChemDiv_C169-0179
 27 30 0 0 0
SMALL
GASTEIGER
Energy = 0

@<TRIPOS>ATOM
      1 C           1.0170    0.2290    0.0000 C.ar    1  LIG1        0.1559
      2 N           0.8170    1.2210    0.0000 N.ar    1  LIG1       -0.2737
      3 C           1.6630    1.7250    0.0000 C.ar    1  LIG1        0.1585
      4 N           2.4170    1.0460    0.0000 N.ar    1  LIG1       -0.2242
      5 C           2.0170    0.1420    0.0000 C.ar    1  LIG1        0.1148
      6 C           2.5540   -0.7040    0.0000 C.ar    1  LIG1        0.0207
      7 C           2.0880   -1.5630    0.0000 C.ar    1  LIG1        0.0049
      8 C           2.6380   -2.4250    0.0000 C.ar    1  LIG1        0.0421
      9 C           3.6420   -2.3750    0.0000 C.ar    1  LIG1        0.1957
     10 C           4.0920   -1.4790    0.0000 C.ar    1  LIG1        0.0421
     11 C           3.5580   -0.6460    0.0000 C.ar    1  LIG1        0.0049
     12 O           4.1920   -3.2250    0.0000 O.3     1  LIG1       -0.2866
     13 C           1.6630    2.7250    0.0000 C.ar    1  LIG1        0.0712
     14 N           0.8170    3.2250    0.0000 N.ar    1  LIG1       -0.2476
     15 C          -0.0540    2.7250    0.0000 C.ar    1  LIG1        0.1172
     16 C          -0.0540    1.7250    0.0000 C.ar    1  LIG1        0.1033
     17 N           0.3540   -0.5130    0.0000 N.pl3   1  LIG1       -0.1939
     18 C          -0.6170   -0.3130    0.0000 C.ar    1  LIG1        0.0721
     19 C          -0.9210    0.6250    0.0000 C.ar    1  LIG1        0.0162
     20 C          -1.9170    0.8210    0.0000 C.ar    1  LIG1       -0.0029
     21 C          -2.5670    0.0580    0.0000 C.ar    1  LIG1       -0.0224
     22 C          -2.2500   -0.8790    0.0000 C.ar    1  LIG1       -0.0029
     23 C          -1.2830   -1.0790    0.0000 C.ar    1  LIG1        0.0162
     24 C          -3.5500    0.2460    0.0000 C.3     1  LIG1        0.0224
     25 C          -3.8830    1.1790    0.0000 C.3     1  LIG1        0.0047
     26 C          -4.1960   -0.5130    0.0000 C.3     1  LIG1        0.0047
     27 H           2.5500    3.2290    0.0000 H       1  LIG1        0.0867
@<TRIPOS>BOND
     1     1     2   ar
     2     1     5   ar
     3     1    17    1
     4     2     3   ar
     5     2    16   ar
     6     3     4   ar
     7     3    13   ar
     8     4     5   ar
     9     5     6    1
    10     6     7   ar
    11     6    11   ar
    12     7     8   ar
    13     8     9   ar
    14     9    10   ar
    15     9    12    1
    16    10    11   ar
    17    13    14   ar
    18    13    27    1
    19    14    15   ar
    20    15    16   ar
    21    17    18    1
    22    18    19   ar
    23    18    23   ar
    24    19    20   ar
    25    20    21   ar
    26    21    22   ar
    27    21    24    1
    28    22    23   ar
    29    24    25    1
    30    24    26    1
