@<TRIPOS>MOLECULE
35956_ChemDiv_C325-0412
 29 32 0 0 0
SMALL
GASTEIGER
Energy = 0

@<TRIPOS>ATOM
      1 N          -0.0880    0.7580    0.0000 N.ar    1  LIG1       -0.2657
      2 C           0.7750    1.2630    0.0000 C.ar    1  LIG1        0.2373
      3 N           1.5130    0.5960    0.0000 N.ar    1  LIG1       -0.2083
      4 C           1.1080   -0.3130    0.0000 C.ar    1  LIG1        0.1164
      5 C           0.1250   -0.2080    0.0000 C.ar    1  LIG1        0.1567
      6 N          -0.5960   -0.9170    0.0000 N.pl3   1  LIG1       -0.1939
      7 C          -1.6000   -0.9080    0.0000 C.ar    1  LIG1        0.0723
      8 C          -2.0960   -0.0380    0.0000 C.ar    1  LIG1        0.0197
      9 C          -3.1000   -0.0330    0.0000 C.ar    1  LIG1        0.0382
     10 C          -3.6080   -0.9000    0.0000 C.ar    1  LIG1        0.1388
     11 C          -3.1040   -1.7710    0.0000 C.ar    1  LIG1        0.0382
     12 C          -2.1000   -1.7710    0.0000 C.ar    1  LIG1        0.0197
     13 O          -4.6040   -0.9000    0.0000 O.3     1  LIG1       -0.4714
     14 C          -5.1040   -1.7630    0.0000 C.3     1  LIG1        0.2525
     15 C           1.6130   -1.1790    0.0000 C.ar    1  LIG1        0.0237
     16 C           2.6130   -1.1710    0.0000 C.ar    1  LIG1        0.0418
     17 C           3.1130   -2.0330    0.0000 C.ar    1  LIG1        0.1774
     18 C           2.6170   -2.9080    0.0000 C.ar    1  LIG1        0.2293
     19 C           1.6130   -2.9080    0.0000 C.ar    1  LIG1        0.0453
     20 C           1.1080   -2.0420    0.0000 C.ar    1  LIG1        0.0051
     21 O           3.1080   -3.7670    0.0000 O.3     1  LIG1       -0.2833
     22 O           4.1080   -2.0290    0.0000 O.3     1  LIG1       -0.4682
     23 C           5.1000   -2.0250    0.0000 C.3     1  LIG1        0.2526
     24 N           0.7750    2.2670    0.0000 N.ar    1  LIG1       -0.2154
     25 C          -0.0960    2.7750    0.0000 C.ar    1  LIG1        0.0636
     26 C          -0.9630    2.2670    0.0000 C.ar    1  LIG1        0.0280
     27 C          -0.9630    1.2630    0.0000 C.ar    1  LIG1        0.0469
     28 C          -1.8250    0.7580    0.0000 C.3     1  LIG1        0.0505
     29 C          -0.0960    3.7710    0.0000 C.3     1  LIG1        0.0522
@<TRIPOS>BOND
     1     1     2   ar
     2     1     5   ar
     3     1    27   ar
     4     2     3   ar
     5     2    24   ar
     6     3     4   ar
     7     4     5   ar
     8     4    15    1
     9     5     6    1
    10     6     7    1
    11     7     8   ar
    12     7    12   ar
    13     8     9   ar
    14     9    10   ar
    15    10    11   ar
    16    10    13    1
    17    11    12   ar
    18    13    14    1
    19    15    16   ar
    20    15    20   ar
    21    16    17   ar
    22    17    18   ar
    23    17    22    1
    24    18    19   ar
    25    18    21    1
    26    19    20   ar
    27    22    23    1
    28    24    25   ar
    29    25    26   ar
    30    25    29    1
    31    26    27   ar
    32    27    28    1
