@<TRIPOS>MOLECULE
35958_ChemDiv_C325-0421
 26 29 0 0 0
SMALL
GASTEIGER
Energy = 0

@<TRIPOS>ATOM
      1 C          -0.0540    0.0540    0.0000 C.ar    1  LIG1        0.1570
      2 N          -0.2580    1.0250    0.0000 N.ar    1  LIG1       -0.2605
      3 C           0.5960    1.5250    0.0000 C.ar    1  LIG1        0.2380
      4 N           1.3330    0.8630    0.0000 N.ar    1  LIG1       -0.2082
      5 C           0.9330   -0.0500    0.0000 C.ar    1  LIG1        0.1164
      6 C           1.4330   -0.9080    0.0000 C.ar    1  LIG1        0.0237
      7 C           2.4330   -0.9040    0.0000 C.ar    1  LIG1        0.0436
      8 C           2.9380   -1.7670    0.0000 C.ar    1  LIG1        0.1958
      9 O           3.9290   -1.7630    0.0000 O.3     1  LIG1       -0.2866
     10 C           2.4380   -2.6380    0.0000 C.ar    1  LIG1        0.0420
     11 C           1.4330   -2.6380    0.0000 C.ar    1  LIG1        0.0033
     12 C           0.9330   -1.7750    0.0000 C.ar    1  LIG1        0.0018
     13 N           0.5960    2.5330    0.0000 N.ar    1  LIG1       -0.2095
     14 C          -0.2710    3.0290    0.0000 C.ar    1  LIG1        0.1036
     15 C          -1.1380    2.5330    0.0000 C.ar    1  LIG1        0.0399
     16 C          -1.1380    1.5250    0.0000 C.ar    1  LIG1        0.0857
     17 N          -0.9250   -0.4420    0.0000 N.pl3   1  LIG1       -0.1945
     18 C          -1.9250   -0.4330    0.0000 C.ar    1  LIG1        0.0641
     19 C          -2.4210    0.4420    0.0000 C.ar    1  LIG1       -0.0069
     20 C          -3.4250    0.4460    0.0000 C.ar    1  LIG1       -0.0030
     21 C          -3.9330   -0.4210    0.0000 C.ar    1  LIG1       -0.0006
     22 C          -3.4290   -1.3000    0.0000 C.ar    1  LIG1       -0.0030
     23 C          -2.4250   -1.3000    0.0000 C.ar    1  LIG1       -0.0072
     24 C          -1.9250   -2.1580    0.0000 C.3     1  LIG1        0.0277
     25 C          -2.4290   -3.0250    0.0000 C.3     1  LIG1        0.0051
     26 C          -1.9170    1.3040    0.0000 C.3     1  LIG1        0.0324
@<TRIPOS>BOND
     1     1     2   ar
     2     1     5   ar
     3     1    17    1
     4     2     3   ar
     5     2    16   ar
     6     3     4   ar
     7     3    13   ar
     8     4     5   ar
     9     5     6    1
    10     6     7   ar
    11     6    12   ar
    12     7     8   ar
    13     8     9    1
    14     8    10   ar
    15    10    11   ar
    16    11    12   ar
    17    13    14   ar
    18    14    15   ar
    19    15    16   ar
    20    17    18    1
    21    18    19   ar
    22    18    23   ar
    23    19    20   ar
    24    19    26    1
    25    20    21   ar
    26    21    22   ar
    27    22    23   ar
    28    23    24    1
    29    24    25    1
