@<TRIPOS>MOLECULE
35957_ChemDiv_C169-0207
 27 31 0 0 0
SMALL
GASTEIGER
Energy = 0

@<TRIPOS>ATOM
      1 C           0.3460    0.2330    0.0000 C.ar    1  LIG1        0.1559
      2 N           0.1000    1.2080    0.0000 N.ar    1  LIG1       -0.2732
      3 C           0.9460    1.7380    0.0000 C.ar    1  LIG1        0.1681
      4 N           1.7130    1.0960    0.0000 N.ar    1  LIG1       -0.2235
      5 C           1.3420    0.1710    0.0000 C.ar    1  LIG1        0.1148
      6 C           1.8710   -0.6710    0.0000 C.ar    1  LIG1        0.0205
      7 C           1.4040   -1.5540    0.0000 C.ar    1  LIG1        0.0021
      8 C           1.9290   -2.3960    0.0000 C.ar    1  LIG1        0.0062
      9 C           2.9250   -2.3630    0.0000 C.ar    1  LIG1        0.0252
     10 S           3.4540   -3.1960    0.0000 S.3     1  LIG1       -0.1127
     11 C           4.4540   -3.1630    0.0000 C.3     1  LIG1        0.0742
     12 C           3.3960   -1.4790    0.0000 C.ar    1  LIG1        0.0062
     13 C           2.8630   -0.6290    0.0000 C.ar    1  LIG1        0.0021
     14 C           0.9170    2.7330    0.0000 C.ar    1  LIG1        0.1362
     15 N           0.0290    3.2000    0.0000 N.ar    1  LIG1       -0.2376
     16 C          -0.8210    2.6750    0.0000 C.ar    1  LIG1        0.1180
     17 C          -0.7920    1.6790    0.0000 C.ar    1  LIG1        0.1033
     18 N          -0.3670   -0.4750    0.0000 N.pl3   1  LIG1       -0.1938
     19 C          -1.3750   -0.4670    0.0000 C.ar    1  LIG1        0.0754
     20 C          -1.8710   -1.3250    0.0000 C.ar    1  LIG1        0.0567
     21 C          -2.8670   -1.3250    0.0000 C.ar    1  LIG1        0.1777
     22 C          -3.3710   -0.4580    0.0000 C.ar    1  LIG1        0.1765
     23 O          -4.3580   -0.6630    0.0000 O.3     1  LIG1       -0.4346
     24 C          -4.4580   -1.6670    0.0000 C.3     1  LIG1        0.4294
     25 O          -3.5460   -2.0750    0.0000 O.3     1  LIG1       -0.4346
     26 C          -2.8670    0.4080    0.0000 C.ar    1  LIG1        0.0415
     27 C          -1.8710    0.4080    0.0000 C.ar    1  LIG1        0.0199
@<TRIPOS>BOND
     1     1     2   ar
     2     1     5   ar
     3     1    18    1
     4     2     3   ar
     5     2    17   ar
     6     3     4   ar
     7     3    14   ar
     8     4     5   ar
     9     5     6    1
    10     6     7   ar
    11     6    13   ar
    12     7     8   ar
    13     8     9   ar
    14     9    10    1
    15     9    12   ar
    16    10    11    1
    17    12    13   ar
    18    14    15   ar
    19    15    16   ar
    20    16    17   ar
    21    18    19    1
    22    19    20   ar
    23    19    27   ar
    24    20    21   ar
    25    21    22   ar
    26    21    25    1
    27    22    23    1
    28    22    26   ar
    29    23    24    1
    30    24    25    1
    31    26    27   ar
