@<TRIPOS>MOLECULE
35968_ChemDiv_C174-0799
 27 29 0 0 0
SMALL
GASTEIGER
Energy = 0

@<TRIPOS>ATOM
      1 N          -1.9960    0.2580    0.0000 N.ar    1  LIG1       -0.3107
      2 C          -1.1960    0.8630    0.0000 C.ar    1  LIG1        0.1206
      3 N          -1.5130    1.8000    0.0000 N.ar    1  LIG1       -0.2309
      4 C          -2.5080    1.7920    0.0000 C.ar    1  LIG1        0.0983
      5 C          -2.8130    0.8420    0.0000 C.ar    1  LIG1        0.0789
      6 C          -3.7920    0.6290    0.0000 C.ar    1  LIG1        0.0188
      7 C          -4.4580    1.3790    0.0000 C.ar    1  LIG1        0.0016
      8 C          -4.1580    2.3290    0.0000 C.ar    1  LIG1        0.0016
      9 C          -3.1790    2.5460    0.0000 C.ar    1  LIG1        0.0206
     10 C          -0.2420    0.5630    0.0000 C.3     1  LIG1        0.0658
     11 C           0.4920    1.2420    0.0000 C.3     1  LIG1        0.0313
     12 C           1.4420    0.9630    0.0000 C.3     1  LIG1        0.1156
     13 N           2.1710    1.6420    0.0000 N.am    1  LIG1       -0.2054
     14 C           3.1210    1.3500    0.0000 C.2     1  LIG1        0.2404
     15 C           3.8420    2.0290    0.0000 C.3     1  LIG1        0.0705
     16 C           4.5750    2.7130    0.0000 C.3     1  LIG1        0.0091
     17 C           3.1710    2.7630    0.0000 C.3     1  LIG1        0.0091
     18 C           4.5250    1.3000    0.0000 C.3     1  LIG1        0.0091
     19 O           3.3420    0.3790    0.0000 O.2     1  LIG1       -0.2734
     20 C          -1.9790   -0.7420    0.0000 C.3     1  LIG1        0.1336
     21 C          -2.8420   -1.2500    0.0000 C.ar    1  LIG1       -0.0035
     22 C          -3.7130   -0.7580    0.0000 C.ar    1  LIG1       -0.0240
     23 C          -3.7250    0.2420    0.0000 C.3     1  LIG1        0.0308
     24 C          -4.5790   -1.2670    0.0000 C.ar    1  LIG1       -0.0045
     25 C          -4.5750   -2.2750    0.0000 C.ar    1  LIG1       -0.0003
     26 C          -3.6790   -2.7580    0.0000 C.ar    1  LIG1       -0.0003
     27 C          -2.8250   -2.2500    0.0000 C.ar    1  LIG1       -0.0027
@<TRIPOS>BOND
     1     1     2   ar
     2     1     5   ar
     3     1    20    1
     4     2     3   ar
     5     2    10    1
     6     3     4   ar
     7     4     5   ar
     8     4     9   ar
     9     5     6   ar
    10     6     7   ar
    11     7     8   ar
    12     8     9   ar
    13    10    11    1
    14    11    12    1
    15    12    13    1
    16    13    14   am
    17    14    15    1
    18    14    19    2
    19    15    16    1
    20    15    17    1
    21    15    18    1
    22    20    21    1
    23    21    22   ar
    24    21    27   ar
    25    22    23    1
    26    22    24   ar
    27    24    25   ar
    28    25    26   ar
    29    26    27   ar
