@<TRIPOS>MOLECULE
35960_ChemDiv_C325-0425
 28 31 0 0 0
SMALL
GASTEIGER
Energy = 0

@<TRIPOS>ATOM
      1 N           0.5420    0.8750    0.0000 N.ar    1  LIG1       -0.2657
      2 C           1.4000    1.3790    0.0000 C.ar    1  LIG1        0.2373
      3 N           2.1330    0.7080    0.0000 N.ar    1  LIG1       -0.2083
      4 C           1.7380   -0.1960    0.0000 C.ar    1  LIG1        0.1163
      5 C           0.7500   -0.0960    0.0000 C.ar    1  LIG1        0.1567
      6 N           0.0290   -0.8000    0.0000 N.pl3   1  LIG1       -0.1939
      7 C          -0.9790   -0.8000    0.0000 C.ar    1  LIG1        0.0723
      8 C          -1.4710    0.0790    0.0000 C.ar    1  LIG1        0.0197
      9 C          -2.4750    0.0830    0.0000 C.ar    1  LIG1        0.0382
     10 C          -2.9880   -0.7920    0.0000 C.ar    1  LIG1        0.1388
     11 C          -2.4830   -1.6580    0.0000 C.ar    1  LIG1        0.0382
     12 C          -1.4790   -1.6580    0.0000 C.ar    1  LIG1        0.0197
     13 O          -3.9790   -0.7920    0.0000 O.3     1  LIG1       -0.4714
     14 C          -4.4790   -1.6500    0.0000 C.3     1  LIG1        0.2525
     15 C           2.2380   -1.0630    0.0000 C.ar    1  LIG1        0.0207
     16 C           3.2290   -1.1670    0.0000 C.ar    1  LIG1        0.0047
     17 C           3.6460   -2.0670    0.0000 C.ar    1  LIG1        0.0370
     18 C           3.0670   -2.8790    0.0000 C.ar    1  LIG1        0.1387
     19 C           2.0670   -2.7880    0.0000 C.ar    1  LIG1        0.0370
     20 C           1.6580   -1.8750    0.0000 C.ar    1  LIG1        0.0047
     21 O           3.4790   -3.7830    0.0000 O.3     1  LIG1       -0.4714
     22 C           4.4750   -3.8790    0.0000 C.3     1  LIG1        0.2525
     23 N           1.4000    2.3790    0.0000 N.ar    1  LIG1       -0.2154
     24 C           0.5290    2.8880    0.0000 C.ar    1  LIG1        0.0636
     25 C          -0.3380    2.3790    0.0000 C.ar    1  LIG1        0.0280
     26 C          -0.3380    1.3790    0.0000 C.ar    1  LIG1        0.0469
     27 C          -1.2000    0.8750    0.0000 C.3     1  LIG1        0.0505
     28 C           0.5290    3.8830    0.0000 C.3     1  LIG1        0.0522
@<TRIPOS>BOND
     1     1     2   ar
     2     1     5   ar
     3     1    26   ar
     4     2     3   ar
     5     2    23   ar
     6     3     4   ar
     7     4     5   ar
     8     4    15    1
     9     5     6    1
    10     6     7    1
    11     7     8   ar
    12     7    12   ar
    13     8     9   ar
    14     9    10   ar
    15    10    11   ar
    16    10    13    1
    17    11    12   ar
    18    13    14    1
    19    15    16   ar
    20    15    20   ar
    21    16    17   ar
    22    17    18   ar
    23    18    19   ar
    24    18    21    1
    25    19    20   ar
    26    21    22    1
    27    23    24   ar
    28    24    25   ar
    29    24    28    1
    30    25    26   ar
    31    26    27    1
