@<TRIPOS>MOLECULE
35963_ChemDiv_C169-0245
 26 29 0 0 0
SMALL
GASTEIGER
Energy = 0

@<TRIPOS>ATOM
      1 C          -0.0460   -0.2130    0.0000 C.ar    1  LIG1        0.1559
      2 N          -0.5000    0.6750    0.0000 N.ar    1  LIG1       -0.2732
      3 C           0.2080    1.3790    0.0000 C.ar    1  LIG1        0.1681
      4 N           1.0960    0.9210    0.0000 N.ar    1  LIG1       -0.2235
      5 C           0.9250   -0.0710    0.0000 C.ar    1  LIG1        0.1149
      6 C           1.7000   -0.7000    0.0000 C.ar    1  LIG1        0.0237
      7 C           2.6420   -0.3460    0.0000 C.ar    1  LIG1        0.0418
      8 C           3.4130   -0.9750    0.0000 C.ar    1  LIG1        0.1774
      9 C           3.2540   -1.9670    0.0000 C.ar    1  LIG1        0.2293
     10 C           2.3170   -2.3210    0.0000 C.ar    1  LIG1        0.0453
     11 C           1.5420   -1.6880    0.0000 C.ar    1  LIG1        0.0051
     12 O           4.0170   -2.5960    0.0000 O.3     1  LIG1       -0.2833
     13 O           4.3380   -0.6210    0.0000 O.3     1  LIG1       -0.4682
     14 C           4.5000    0.3630    0.0000 C.3     1  LIG1        0.2526
     15 C          -0.0460    2.3460    0.0000 C.ar    1  LIG1        0.1362
     16 N          -1.0290    2.6000    0.0000 N.ar    1  LIG1       -0.2376
     17 C          -1.7170    1.9080    0.0000 C.ar    1  LIG1        0.1180
     18 C          -1.4580    0.9380    0.0000 C.ar    1  LIG1        0.1033
     19 N          -0.5000   -1.1250    0.0000 N.pl3   1  LIG1       -0.1939
     20 C          -1.4960   -1.1880    0.0000 C.ar    1  LIG1        0.0721
     21 C          -1.9380   -2.0790    0.0000 C.ar    1  LIG1        0.0162
     22 C          -2.9380   -2.1500    0.0000 C.ar    1  LIG1       -0.0029
     23 C          -3.5000   -1.3080    0.0000 C.ar    1  LIG1       -0.0218
     24 C          -3.0500   -0.4130    0.0000 C.ar    1  LIG1       -0.0029
     25 C          -2.0460   -0.3460    0.0000 C.ar    1  LIG1        0.0162
     26 C          -4.5040   -1.3790    0.0000 C.3     1  LIG1        0.0310
@<TRIPOS>BOND
     1     1     2   ar
     2     1     5   ar
     3     1    19    1
     4     2     3   ar
     5     2    18   ar
     6     3     4   ar
     7     3    15   ar
     8     4     5   ar
     9     5     6    1
    10     6     7   ar
    11     6    11   ar
    12     7     8   ar
    13     8     9   ar
    14     8    13    1
    15     9    10   ar
    16     9    12    1
    17    10    11   ar
    18    13    14    1
    19    15    16   ar
    20    16    17   ar
    21    17    18   ar
    22    19    20    1
    23    20    21   ar
    24    20    25   ar
    25    21    22   ar
    26    22    23   ar
    27    23    24   ar
    28    23    26    1
    29    24    25   ar
