@<TRIPOS>MOLECULE
35962_ChemDiv_C325-0447
 27 30 0 0 0
SMALL
GASTEIGER
Energy = 0

@<TRIPOS>ATOM
      1 N           0.9210    1.2750    0.0000 N.ar    1  LIG1       -0.2605
      2 C           1.1250    0.2920    0.0000 C.ar    1  LIG1        0.1570
      3 C           2.1210    0.1880    0.0000 C.ar    1  LIG1        0.1164
      4 N           2.5330    1.1000    0.0000 N.ar    1  LIG1       -0.2082
      5 C           1.7920    1.7750    0.0000 C.ar    1  LIG1        0.2380
      6 N           1.7830    2.7830    0.0000 N.ar    1  LIG1       -0.2095
      7 C           0.9170    3.2750    0.0000 C.ar    1  LIG1        0.1036
      8 C           0.0540    2.7750    0.0000 C.ar    1  LIG1        0.0399
      9 C           0.0540    1.7750    0.0000 C.ar    1  LIG1        0.0857
     10 C           2.6210   -0.6830    0.0000 C.ar    1  LIG1        0.0237
     11 C           2.1130   -1.5420    0.0000 C.ar    1  LIG1        0.0436
     12 C           2.6130   -2.4080    0.0000 C.ar    1  LIG1        0.1958
     13 O           2.1130   -3.2710    0.0000 O.3     1  LIG1       -0.2866
     14 C           3.6130   -2.4130    0.0000 C.ar    1  LIG1        0.0420
     15 C           4.1130   -1.5420    0.0000 C.ar    1  LIG1        0.0033
     16 C           3.6170   -0.6790    0.0000 C.ar    1  LIG1        0.0018
     17 N           0.4540   -0.4500    0.0000 N.pl3   1  LIG1       -0.1938
     18 C          -0.5210   -0.2380    0.0000 C.ar    1  LIG1        0.0754
     19 C          -1.1880   -0.9830    0.0000 C.ar    1  LIG1        0.0566
     20 C          -2.1580   -0.7790    0.0000 C.ar    1  LIG1        0.1737
     21 C          -2.4710    0.1790    0.0000 C.ar    1  LIG1        0.1725
     22 C          -1.8000    0.9210    0.0000 C.ar    1  LIG1        0.0414
     23 C          -0.8250    0.7080    0.0000 C.ar    1  LIG1        0.0199
     24 O          -3.4500    0.3830    0.0000 O.3     1  LIG1       -0.4684
     25 C          -4.1170   -0.3630    0.0000 C.3     1  LIG1        0.2526
     26 O          -2.8210   -1.5250    0.0000 O.3     1  LIG1       -0.4683
     27 C          -2.5130   -2.4750    0.0000 C.3     1  LIG1        0.2526
@<TRIPOS>BOND
     1     1     2   ar
     2     1     5   ar
     3     1     9   ar
     4     2     3   ar
     5     2    17    1
     6     3     4   ar
     7     3    10    1
     8     4     5   ar
     9     5     6   ar
    10     6     7   ar
    11     7     8   ar
    12     8     9   ar
    13    10    11   ar
    14    10    16   ar
    15    11    12   ar
    16    12    13    1
    17    12    14   ar
    18    14    15   ar
    19    15    16   ar
    20    17    18    1
    21    18    19   ar
    22    18    23   ar
    23    19    20   ar
    24    20    21   ar
    25    20    26    1
    26    21    22   ar
    27    21    24    1
    28    22    23   ar
    29    24    25    1
    30    26    27    1
