@<TRIPOS>MOLECULE
35967_ChemDiv_C169-0290
 23 26 0 0 0
SMALL
GASTEIGER
Energy = 0

@<TRIPOS>ATOM
      1 C          -0.1580   -0.1040    0.0000 C.ar    1  LIG1        0.1559
      2 N          -0.3710    0.8790    0.0000 N.ar    1  LIG1       -0.2732
      3 C           0.4920    1.3790    0.0000 C.ar    1  LIG1        0.1681
      4 N           1.2460    0.7000    0.0000 N.ar    1  LIG1       -0.2235
      5 C           0.8380   -0.2040    0.0000 C.ar    1  LIG1        0.1149
      6 C           1.2960   -1.1000    0.0000 C.ar    1  LIG1        0.0237
      7 C           2.2960   -1.1500    0.0000 C.ar    1  LIG1        0.0436
      8 C           2.7500   -2.0380    0.0000 C.ar    1  LIG1        0.1958
      9 O           3.7500   -2.0880    0.0000 O.3     1  LIG1       -0.2866
     10 C           2.2040   -2.8750    0.0000 C.ar    1  LIG1        0.0420
     11 C           1.2170   -2.8330    0.0000 C.ar    1  LIG1        0.0033
     12 C           0.7500   -1.9380    0.0000 C.ar    1  LIG1        0.0018
     13 C           0.4920    2.3790    0.0000 C.ar    1  LIG1        0.1362
     14 N          -0.3710    2.8790    0.0000 N.ar    1  LIG1       -0.2376
     15 C          -1.2330    2.3790    0.0000 C.ar    1  LIG1        0.1180
     16 C          -1.2330    1.3790    0.0000 C.ar    1  LIG1        0.1033
     17 N          -0.8170   -0.8460    0.0000 N.pl3   1  LIG1       -0.1939
     18 C          -1.7960   -0.6500    0.0000 C.ar    1  LIG1        0.0721
     19 C          -2.1130    0.2920    0.0000 C.ar    1  LIG1        0.0166
     20 C          -3.1000    0.4880    0.0000 C.ar    1  LIG1        0.0013
     21 C          -3.7540   -0.2710    0.0000 C.ar    1  LIG1        0.0001
     22 C          -3.4330   -1.2080    0.0000 C.ar    1  LIG1        0.0013
     23 C          -2.4460   -1.4080    0.0000 C.ar    1  LIG1        0.0166
@<TRIPOS>BOND
     1     1     2   ar
     2     1     5   ar
     3     1    17    1
     4     2     3   ar
     5     2    16   ar
     6     3     4   ar
     7     3    13   ar
     8     4     5   ar
     9     5     6    1
    10     6     7   ar
    11     6    12   ar
    12     7     8   ar
    13     8     9    1
    14     8    10   ar
    15    10    11   ar
    16    11    12   ar
    17    13    14   ar
    18    14    15   ar
    19    15    16   ar
    20    17    18    1
    21    18    19   ar
    22    18    23   ar
    23    19    20   ar
    24    20    21   ar
    25    21    22   ar
    26    22    23   ar
