@<TRIPOS>MOLECULE
35966_ChemDiv_C172-0021
 36 41 0 0 0
SMALL
GASTEIGER
Energy = 0

@<TRIPOS>ATOM
      1 N           4.3250    1.0170    0.0000 N.ar    1  LIG1       -0.2254
      2 C           5.2000    0.5210    0.0000 C.ar    1  LIG1        0.2756
      3 C           6.0630    1.0170    0.0000 C.ar    1  LIG1        0.1038
      4 C           6.0630    2.0210    0.0000 C.ar    1  LIG1        0.0971
      5 N           5.2000    2.5210    0.0000 N.ar    1  LIG1       -0.1912
      6 C           4.3250    2.0210    0.0000 C.ar    1  LIG1        0.3563
      7 O           3.4500    2.5210    0.0000 O.2     1  LIG1       -0.2440
      8 C           7.0040    2.3210    0.0000 C.ar    1  LIG1        0.0269
      9 C           7.5750    1.5080    0.0000 C.ar    1  LIG1        0.0372
     10 S           7.0040    0.7170    0.0000 S.2     1  LIG1       -0.0802
     11 O           5.2000   -0.4830    0.0000 O.2     1  LIG1       -0.2659
     12 C           3.4540    0.5210    0.0000 C.ar    1  LIG1        0.0712
     13 C           3.4750   -0.4830    0.0000 C.ar    1  LIG1        0.0174
     14 C           2.6130   -0.9880    0.0000 C.ar    1  LIG1       -0.0023
     15 C           1.7460   -0.4830    0.0000 C.ar    1  LIG1       -0.0130
     16 C           0.8750   -1.0130    0.0000 C.3     1  LIG1        0.1116
     17 C           0.0000   -0.5040    0.0000 C.2     1  LIG1        0.2304
     18 N          -0.8710   -1.0130    0.0000 N.am    1  LIG1       -0.2678
     19 C          -0.8710   -2.0080    0.0000 C.3     1  LIG1        0.1565
     20 C          -1.7210   -2.5170    0.0000 C.3     1  LIG1        0.1610
     21 N          -2.5830   -2.0080    0.0000 N.4     1  LIG1        0.3834
     22 C          -3.4580   -2.5170    0.0000 C.3     1  LIG1        0.1664
     23 C          -4.3250   -2.0080    0.0000 C.ar    1  LIG1        0.0376
     24 C          -5.1920   -2.5170    0.0000 C.ar    1  LIG1        0.0416
     25 C          -6.0630   -2.0080    0.0000 C.ar    1  LIG1        0.1763
     26 C          -6.0630   -1.0130    0.0000 C.ar    1  LIG1        0.1764
     27 O          -7.0040   -0.7130    0.0000 O.3     1  LIG1       -0.4346
     28 C          -7.5750   -1.4960    0.0000 C.3     1  LIG1        0.4294
     29 O          -7.0040   -2.3080    0.0000 O.3     1  LIG1       -0.4346
     30 C          -5.1920   -0.5040    0.0000 C.ar    1  LIG1        0.0401
     31 C          -4.3250   -1.0130    0.0000 C.ar    1  LIG1        0.0048
     32 C          -2.5960   -1.0130    0.0000 C.3     1  LIG1        0.1610
     33 C          -1.7420   -0.5040    0.0000 C.3     1  LIG1        0.1565
     34 O           0.0000    0.5210    0.0000 O.2     1  LIG1       -0.2745
     35 C           1.7330    0.5210    0.0000 C.ar    1  LIG1       -0.0023
     36 C           2.6040    1.0170    0.0000 C.ar    1  LIG1        0.0174
@<TRIPOS>BOND
     1     1     2   ar
     2     1     6   ar
     3     1    12    1
     4     2     3   ar
     5     2    11    2
     6     3     4   ar
     7     3    10   ar
     8     4     5   ar
     9     4     8   ar
    10     5     6   ar
    11     6     7    2
    12     8     9   ar
    13     9    10   ar
    14    12    13   ar
    15    12    36   ar
    16    13    14   ar
    17    14    15   ar
    18    15    16    1
    19    15    35   ar
    20    16    17    1
    21    17    18   am
    22    17    34    2
    23    18    19    1
    24    18    33    1
    25    19    20    1
    26    20    21    1
    27    21    22    1
    28    21    32    1
    29    22    23    1
    30    23    24   ar
    31    23    31   ar
    32    24    25   ar
    33    25    26   ar
    34    25    29    1
    35    26    27    1
    36    26    30   ar
    37    27    28    1
    38    28    29    1
    39    30    31   ar
    40    32    33    1
    41    35    36   ar
