@<TRIPOS>MOLECULE
35961_ChemDiv_C169-0244
 24 27 0 0 0
SMALL
GASTEIGER
Energy = 0

@<TRIPOS>ATOM
      1 C           0.1960   -0.2040    0.0000 C.ar    1  LIG1        0.1559
      2 N          -0.2580    0.6750    0.0000 N.ar    1  LIG1       -0.2732
      3 C           0.4500    1.3880    0.0000 C.ar    1  LIG1        0.1681
      4 N           1.3330    0.9250    0.0000 N.ar    1  LIG1       -0.2235
      5 C           1.1670   -0.0670    0.0000 C.ar    1  LIG1        0.1148
      6 C           1.9380   -0.7040    0.0000 C.ar    1  LIG1        0.0207
      7 C           1.7830   -1.6880    0.0000 C.ar    1  LIG1        0.0049
      8 C           2.5540   -2.3170    0.0000 C.ar    1  LIG1        0.0421
      9 C           3.4960   -1.9580    0.0000 C.ar    1  LIG1        0.1957
     10 C           3.6500   -0.9750    0.0000 C.ar    1  LIG1        0.0421
     11 C           2.8790   -0.3380    0.0000 C.ar    1  LIG1        0.0049
     12 O           4.2580   -2.5960    0.0000 O.3     1  LIG1       -0.2866
     13 C           0.1920    2.3420    0.0000 C.ar    1  LIG1        0.1362
     14 N          -0.7880    2.6000    0.0000 N.ar    1  LIG1       -0.2376
     15 C          -1.4750    1.9080    0.0000 C.ar    1  LIG1        0.1180
     16 C          -1.2170    0.9330    0.0000 C.ar    1  LIG1        0.1033
     17 N          -0.2580   -1.1210    0.0000 N.pl3   1  LIG1       -0.1939
     18 C          -1.2580   -1.1750    0.0000 C.ar    1  LIG1        0.0721
     19 C          -1.6960   -2.0790    0.0000 C.ar    1  LIG1        0.0162
     20 C          -2.6960   -2.1420    0.0000 C.ar    1  LIG1       -0.0029
     21 C          -3.2540   -1.3080    0.0000 C.ar    1  LIG1       -0.0218
     22 C          -2.8080   -0.4080    0.0000 C.ar    1  LIG1       -0.0029
     23 C          -1.8080   -0.3380    0.0000 C.ar    1  LIG1        0.0162
     24 C          -4.2630   -1.3670    0.0000 C.3     1  LIG1        0.0310
@<TRIPOS>BOND
     1     1     2   ar
     2     1     5   ar
     3     1    17    1
     4     2     3   ar
     5     2    16   ar
     6     3     4   ar
     7     3    13   ar
     8     4     5   ar
     9     5     6    1
    10     6     7   ar
    11     6    11   ar
    12     7     8   ar
    13     8     9   ar
    14     9    10   ar
    15     9    12    1
    16    10    11   ar
    17    13    14   ar
    18    14    15   ar
    19    15    16   ar
    20    17    18    1
    21    18    19   ar
    22    18    23   ar
    23    19    20   ar
    24    20    21   ar
    25    21    22   ar
    26    21    24    1
    27    22    23   ar
