@<TRIPOS>MOLECULE
35965_ChemDiv_C169-0274
 25 28 0 0 0
SMALL
GASTEIGER
Energy = 0

@<TRIPOS>ATOM
      1 C          -0.4000    0.3420    0.0000 C.ar    1  LIG1        0.1559
      2 N          -0.6130    1.3170    0.0000 N.ar    1  LIG1       -0.2732
      3 C           0.2500    1.8130    0.0000 C.ar    1  LIG1        0.1681
      4 N           1.0000    1.1460    0.0000 N.ar    1  LIG1       -0.2235
      5 C           0.5920    0.2380    0.0000 C.ar    1  LIG1        0.1149
      6 C           1.0500   -0.6540    0.0000 C.ar    1  LIG1        0.0237
      7 C           2.0500   -0.6960    0.0000 C.ar    1  LIG1        0.0418
      8 C           2.5170   -1.5790    0.0000 C.ar    1  LIG1        0.1774
      9 C           1.9750   -2.4330    0.0000 C.ar    1  LIG1        0.2293
     10 C           0.9710   -2.3920    0.0000 C.ar    1  LIG1        0.0453
     11 C           0.5080   -1.5040    0.0000 C.ar    1  LIG1        0.0051
     12 O           2.4290   -3.3170    0.0000 O.3     1  LIG1       -0.2833
     13 O           3.5130   -1.6250    0.0000 O.3     1  LIG1       -0.4682
     14 C           4.0460   -0.7750    0.0000 C.3     1  LIG1        0.2526
     15 C           0.2500    2.8210    0.0000 C.ar    1  LIG1        0.1362
     16 N          -0.6130    3.3210    0.0000 N.ar    1  LIG1       -0.2376
     17 C          -1.4750    2.8130    0.0000 C.ar    1  LIG1        0.1180
     18 C          -1.4750    1.8130    0.0000 C.ar    1  LIG1        0.1033
     19 N          -1.0540   -0.4080    0.0000 N.pl3   1  LIG1       -0.1939
     20 C          -2.0540   -0.4000    0.0000 C.ar    1  LIG1        0.0721
     21 C          -2.5540   -1.2630    0.0000 C.ar    1  LIG1        0.0166
     22 C          -3.5500   -1.2630    0.0000 C.ar    1  LIG1        0.0013
     23 C          -4.0500   -0.3830    0.0000 C.ar    1  LIG1        0.0001
     24 C          -3.5460    0.4790    0.0000 C.ar    1  LIG1        0.0013
     25 C          -2.5460    0.4670    0.0000 C.ar    1  LIG1        0.0166
@<TRIPOS>BOND
     1     1     2   ar
     2     1     5   ar
     3     1    19    1
     4     2     3   ar
     5     2    18   ar
     6     3     4   ar
     7     3    15   ar
     8     4     5   ar
     9     5     6    1
    10     6     7   ar
    11     6    11   ar
    12     7     8   ar
    13     8     9   ar
    14     8    13    1
    15     9    10   ar
    16     9    12    1
    17    10    11   ar
    18    13    14    1
    19    15    16   ar
    20    16    17   ar
    21    17    18   ar
    22    19    20    1
    23    20    21   ar
    24    20    25   ar
    25    21    22   ar
    26    22    23   ar
    27    23    24   ar
    28    24    25   ar
