@<TRIPOS>MOLECULE
35975_ChemDiv_C137-1389
 29 32 0 0 0
SMALL
GASTEIGER
Energy = 0

@<TRIPOS>ATOM
      1 S           0.5040    0.0170    0.0000 S.O2    1  LIG1        0.0648
      2 C           2.3460    1.0580    0.0000 C.ar    1  LIG1        0.1360
      3 C           3.1540    0.6290    0.0000 C.ar    1  LIG1        0.0685
      4 N           3.3580   -0.2960    0.0000 N.am    1  LIG1       -0.2573
      5 C           2.7330   -0.9920    0.0000 C.2     1  LIG1        0.2294
      6 O           1.8250   -0.8080    0.0000 O.2     1  LIG1       -0.2745
      7 C           3.0250   -1.8790    0.0000 C.3     1  LIG1        0.0856
      8 C           2.4040   -2.5880    0.0000 C.3     1  LIG1        0.0101
      9 C           4.2880   -0.3880    0.0000 C.3     1  LIG1        0.1029
     10 C           4.6710    0.4830    0.0000 C.3     1  LIG1        0.0495
     11 C           3.9750    1.0750    0.0000 C.ar    1  LIG1       -0.0050
     12 C           3.9580    1.9960    0.0000 C.ar    1  LIG1        0.0038
     13 C           3.1380    2.4670    0.0000 C.ar    1  LIG1        0.0357
     14 C           2.3380    1.9960    0.0000 C.ar    1  LIG1        0.0279
     15 BR          3.1210    3.4080    0.0000 Br      1  LIG1       -0.0490
     16 N          -0.3630   -0.4830    0.0000 N.3     1  LIG1       -0.1507
     17 C          -1.2290   -0.0040    0.0000 C.3     1  LIG1        0.1215
     18 C          -2.0790   -0.4330    0.0000 C.2     1  LIG1       -0.0113
     19 C          -2.0960   -1.4630    0.0000 C.2     1  LIG1       -0.0236
     20 C          -1.2960   -1.9750    0.0000 C.3     1  LIG1        0.0452
     21 C          -0.3880   -1.5080    0.0000 C.3     1  LIG1        0.1008
     22 C          -2.9250   -1.8960    0.0000 C.ar    1  LIG1       -0.0042
     23 C          -3.7830   -1.3250    0.0000 C.ar    1  LIG1       -0.0003
     24 C          -4.6420   -1.8420    0.0000 C.ar    1  LIG1       -0.0000
     25 C          -4.6750   -2.8670    0.0000 C.ar    1  LIG1       -0.0000
     26 C          -3.8500   -3.4040    0.0000 C.ar    1  LIG1       -0.0000
     27 C          -2.9420   -2.9290    0.0000 C.ar    1  LIG1       -0.0003
     28 O          -0.3080    0.4830    0.0000 O.2     1  LIG1       -0.1527
     29 O           0.5210   -0.9210    0.0000 O.2     1  LIG1       -0.1527
@<TRIPOS>BOND
     1     1     2    1
     2     1    16    1
     3     1    28    2
     4     1    29    2
     5     2     3   ar
     6     2    14   ar
     7     3     4    1
     8     3    11   ar
     9     4     5   am
    10     4     9    1
    11     5     6    2
    12     5     7    1
    13     7     8    1
    14     9    10    1
    15    10    11    1
    16    11    12   ar
    17    12    13   ar
    18    13    14   ar
    19    13    15    1
    20    16    17    1
    21    16    21    1
    22    17    18    1
    23    18    19    2
    24    19    20    1
    25    19    22    1
    26    20    21    1
    27    22    23   ar
    28    22    27   ar
    29    23    24   ar
    30    24    25   ar
    31    25    26   ar
    32    26    27   ar
