@<TRIPOS>MOLECULE
35978_ChemDiv_C549-0587
 28 31 0 0 0
SMALL
GASTEIGER
Energy = 0

@<TRIPOS>ATOM
      1 C          -0.6500   -0.7630    0.0000 C.ar    1  LIG1        0.1938
      2 C          -1.6460   -0.7630    0.0000 C.ar    1  LIG1        0.1925
      3 N          -1.9500    0.1880    0.0000 N.ar    1  LIG1       -0.2109
      4 N          -1.1500    0.7750    0.0000 N.ar    1  LIG1       -0.0622
      5 N          -0.3330    0.1880    0.0000 N.ar    1  LIG1       -0.1226
      6 C          -2.9000    0.4920    0.0000 C.3     1  LIG1        0.1570
      7 C          -3.1080    1.4710    0.0000 C.ar    1  LIG1        0.0022
      8 C          -2.3710    2.1460    0.0000 C.ar    1  LIG1       -0.0018
      9 C          -2.5710    3.1210    0.0000 C.ar    1  LIG1        0.0059
     10 C          -3.5330    3.4330    0.0000 C.ar    1  LIG1        0.0252
     11 S          -3.7500    4.4040    0.0000 S.3     1  LIG1       -0.1127
     12 C          -4.6960    4.7040    0.0000 C.3     1  LIG1        0.0742
     13 C          -4.2710    2.7540    0.0000 C.ar    1  LIG1        0.0059
     14 C          -4.0580    1.7790    0.0000 C.ar    1  LIG1       -0.0018
     15 N          -2.2380   -1.5750    0.0000 N.pl3   1  LIG1       -0.1056
     16 C          -0.0500   -1.5750    0.0000 C.2     1  LIG1        0.2914
     17 N           0.9420   -1.4710    0.0000 N.am    1  LIG1       -0.1739
     18 C           1.5210   -2.2830    0.0000 C.ar    1  LIG1        0.0770
     19 C           2.5130   -2.1830    0.0000 C.ar    1  LIG1        0.0566
     20 C           3.1040   -2.9830    0.0000 C.ar    1  LIG1        0.1737
     21 C           2.6960   -3.8920    0.0000 C.ar    1  LIG1        0.1725
     22 O           3.2830   -4.7040    0.0000 O.3     1  LIG1       -0.4684
     23 C           4.2750   -4.5920    0.0000 C.3     1  LIG1        0.2526
     24 C           4.6920   -3.6830    0.0000 C.3     1  LIG1        0.2526
     25 O           4.1000   -2.8710    0.0000 O.3     1  LIG1       -0.4683
     26 C           1.7040   -4.0040    0.0000 C.ar    1  LIG1        0.0414
     27 C           1.1130   -3.1920    0.0000 C.ar    1  LIG1        0.0199
     28 O          -0.4710   -2.4920    0.0000 O.2     1  LIG1       -0.2662
@<TRIPOS>BOND
     1     1     2   ar
     2     1     5   ar
     3     1    16    1
     4     2     3   ar
     5     2    15    1
     6     3     4   ar
     7     3     6    1
     8     4     5   ar
     9     6     7    1
    10     7     8   ar
    11     7    14   ar
    12     8     9   ar
    13     9    10   ar
    14    10    11    1
    15    10    13   ar
    16    11    12    1
    17    13    14   ar
    18    16    17   am
    19    16    28    2
    20    17    18    1
    21    18    19   ar
    22    18    27   ar
    23    19    20   ar
    24    20    21   ar
    25    20    25    1
    26    21    22    1
    27    21    26   ar
    28    22    23    1
    29    23    24    1
    30    24    25    1
    31    26    27   ar
