@<TRIPOS>MOLECULE
35979_ChemDiv_C563-0494
 31 34 0 0 0
SMALL
GASTEIGER
Energy = 0

@<TRIPOS>ATOM
      1 S          -1.1500   -0.0920    0.0000 S.O2    1  LIG1        0.0636
      2 N          -2.1460   -0.0920    0.0000 N.3     1  LIG1       -0.1507
      3 C          -2.6920    0.7130    0.0000 C.3     1  LIG1        0.1215
      4 C          -3.6040    0.7500    0.0000 C.2     1  LIG1       -0.0113
      5 C          -4.1130   -0.1170    0.0000 C.2     1  LIG1       -0.0236
      6 C          -3.6500   -0.9460    0.0000 C.3     1  LIG1        0.0452
      7 C          -2.6580   -0.9580    0.0000 C.3     1  LIG1        0.1008
      8 C          -5.0040   -0.1170    0.0000 C.ar    1  LIG1       -0.0042
      9 C          -5.4880    0.7830    0.0000 C.ar    1  LIG1       -0.0003
     10 C          -6.4670    0.7380    0.0000 C.ar    1  LIG1       -0.0000
     11 C          -6.9670   -0.1420    0.0000 C.ar    1  LIG1       -0.0000
     12 C          -6.4920   -0.9710    0.0000 C.ar    1  LIG1       -0.0000
     13 C          -5.5130   -0.9830    0.0000 C.ar    1  LIG1       -0.0003
     14 C          -0.1460   -0.0920    0.0000 C.ar    1  LIG1        0.1220
     15 C           0.3540    0.7710    0.0000 C.ar    1  LIG1        0.0169
     16 C           1.3500    0.7830    0.0000 C.ar    1  LIG1       -0.0054
     17 C           1.8580   -0.0920    0.0000 C.ar    1  LIG1        0.0500
     18 N           2.8290    0.1210    0.0000 N.am    1  LIG1       -0.2586
     19 C           3.5750   -0.5420    0.0000 C.2     1  LIG1        0.2297
     20 O           3.3630   -1.5170    0.0000 O.2     1  LIG1       -0.2745
     21 C           4.5250   -0.2330    0.0000 C.3     1  LIG1        0.0915
     22 C           5.2710   -0.9000    0.0000 C.3     1  LIG1        0.0513
     23 C           6.2210   -0.5920    0.0000 C.2     1  LIG1        0.0508
     24 O           6.4210    0.3920    0.0000 O.co2   1  LIG1       -0.5492
     25 O           6.9670   -1.2670    0.0000 O.co2   1  LIG1       -0.5492
     26 C           2.9380    1.1170    0.0000 C.3     1  LIG1        0.1029
     27 C           2.0130    1.5210    0.0000 C.3     1  LIG1        0.0495
     28 C           1.3500   -0.9710    0.0000 C.ar    1  LIG1        0.0160
     29 C           0.3540   -0.9710    0.0000 C.ar    1  LIG1        0.0212
     30 O          -1.2960   -1.2790    0.0000 O.2     1  LIG1       -0.1528
     31 O          -0.9380    0.9880    0.0000 O.2     1  LIG1       -0.1528
@<TRIPOS>BOND
     1     1     2    1
     2     1    14    1
     3     1    30    2
     4     1    31    2
     5     2     3    1
     6     2     7    1
     7     3     4    1
     8     4     5    2
     9     5     6    1
    10     5     8    1
    11     6     7    1
    12     8     9   ar
    13     8    13   ar
    14     9    10   ar
    15    10    11   ar
    16    11    12   ar
    17    12    13   ar
    18    14    15   ar
    19    14    29   ar
    20    15    16   ar
    21    16    17   ar
    22    16    27    1
    23    17    18    1
    24    17    28   ar
    25    18    19   am
    26    18    26    1
    27    19    20    2
    28    19    21    1
    29    21    22    1
    30    22    23    1
    31    23    24   ar
    32    23    25   ar
    33    26    27    1
    34    28    29   ar
