@<TRIPOS>MOLECULE
35970_ChemDiv_C200-1463
 22 25 0 0 0
SMALL
GASTEIGER
Energy = 0

@<TRIPOS>ATOM
      1 C           0.7630   -0.0080    0.0000 C.ar    1  LIG1        0.0969
      2 C          -0.0960    0.4920    0.0000 C.ar    1  LIG1        0.2017
      3 C          -0.9540   -0.0130    0.0000 C.ar    1  LIG1        0.0599
      4 C          -0.9540   -1.0130    0.0000 C.ar    1  LIG1        0.0876
      5 N          -0.0920   -1.5080    0.0000 N.ar    1  LIG1       -0.2434
      6 C           0.7670   -1.0130    0.0000 C.ar    1  LIG1        0.1052
      7 C          -1.8210   -1.5080    0.0000 C.ar    1  LIG1        0.0594
      8 C          -2.6920   -1.0210    0.0000 C.ar    1  LIG1        0.1779
      9 C          -2.6920   -0.0130    0.0000 C.ar    1  LIG1        0.1766
     10 C          -1.8210    0.4830    0.0000 C.ar    1  LIG1        0.0449
     11 O          -3.6420    0.2920    0.0000 O.3     1  LIG1       -0.4346
     12 C          -4.2330   -0.5130    0.0000 C.3     1  LIG1        0.4294
     13 O          -3.6420   -1.3290    0.0000 O.3     1  LIG1       -0.4346
     14 O          -0.1080    1.4830    0.0000 O.2     1  LIG1       -0.2864
     15 C           1.6250    0.5000    0.0000 C.2     1  LIG1        0.2002
     16 O           1.6130    1.5130    0.0000 O.2     1  LIG1       -0.2864
     17 C           2.4920    0.0170    0.0000 C.ar    1  LIG1        0.0391
     18 C           2.4920   -0.9920    0.0000 C.ar    1  LIG1        0.0032
     19 C           3.3500   -1.4790    0.0000 C.ar    1  LIG1        0.0001
     20 C           4.2290   -0.9830    0.0000 C.ar    1  LIG1        0.0000
     21 C           4.2130    0.0290    0.0000 C.ar    1  LIG1        0.0001
     22 C           3.3380    0.5210    0.0000 C.ar    1  LIG1        0.0032
@<TRIPOS>BOND
     1     1     2   ar
     2     1     6   ar
     3     1    15    1
     4     2     3   ar
     5     2    14    2
     6     3     4   ar
     7     3    10   ar
     8     4     5   ar
     9     4     7   ar
    10     5     6   ar
    11     7     8   ar
    12     8     9   ar
    13     8    13    1
    14     9    10   ar
    15     9    11    1
    16    11    12    1
    17    12    13    1
    18    15    16    2
    19    15    17    1
    20    17    18   ar
    21    17    22   ar
    22    18    19   ar
    23    19    20   ar
    24    20    21   ar
    25    21    22   ar
