@<TRIPOS>MOLECULE
35972_ChemDiv_C200-1484
 23 26 0 0 0
SMALL
GASTEIGER
Energy = 0

@<TRIPOS>ATOM
      1 C           0.3420    0.0130    0.0000 C.ar    1  LIG1        0.0969
      2 C          -0.5250    0.5080    0.0000 C.ar    1  LIG1        0.2017
      3 C          -1.4000    0.0130    0.0000 C.ar    1  LIG1        0.0599
      4 C          -1.4000   -0.9920    0.0000 C.ar    1  LIG1        0.0876
      5 N          -0.5250   -1.4880    0.0000 N.ar    1  LIG1       -0.2434
      6 C           0.3420   -0.9880    0.0000 C.ar    1  LIG1        0.1052
      7 C          -2.2500   -1.4880    0.0000 C.ar    1  LIG1        0.0594
      8 C          -3.1250   -0.9880    0.0000 C.ar    1  LIG1        0.1779
      9 C          -3.1250    0.0210    0.0000 C.ar    1  LIG1        0.1766
     10 C          -2.2500    0.5080    0.0000 C.ar    1  LIG1        0.0449
     11 O          -4.0750    0.3290    0.0000 O.3     1  LIG1       -0.4346
     12 C          -4.6670   -0.4790    0.0000 C.3     1  LIG1        0.4294
     13 O          -4.0750   -1.2960    0.0000 O.3     1  LIG1       -0.4346
     14 O          -0.5250    1.5080    0.0000 O.2     1  LIG1       -0.2864
     15 C           1.2130    0.5080    0.0000 C.2     1  LIG1        0.2002
     16 C           2.0750    0.0040    0.0000 C.ar    1  LIG1        0.0393
     17 C           2.9380    0.5040    0.0000 C.ar    1  LIG1        0.0055
     18 C           3.8000    0.0040    0.0000 C.ar    1  LIG1        0.0297
     19 C           3.8000   -1.0040    0.0000 C.ar    1  LIG1        0.1401
     20 C           2.9290   -1.4920    0.0000 C.ar    1  LIG1        0.0297
     21 C           2.0670   -0.9920    0.0000 C.ar    1  LIG1        0.0055
     22 F           4.6630   -1.5040    0.0000 F       1  LIG1       -0.2042
     23 O           1.2170    1.5080    0.0000 O.2     1  LIG1       -0.2864
@<TRIPOS>BOND
     1     1     2   ar
     2     1     6   ar
     3     1    15    1
     4     2     3   ar
     5     2    14    2
     6     3     4   ar
     7     3    10   ar
     8     4     5   ar
     9     4     7   ar
    10     5     6   ar
    11     7     8   ar
    12     8     9   ar
    13     8    13    1
    14     9    10   ar
    15     9    11    1
    16    11    12    1
    17    12    13    1
    18    15    16    1
    19    15    23    2
    20    16    17   ar
    21    16    21   ar
    22    17    18   ar
    23    18    19   ar
    24    19    20   ar
    25    19    22    1
    26    20    21   ar
