@<TRIPOS>MOLECULE
35977_ChemDiv_C361-0413
 29 32 0 0 0
SMALL
GASTEIGER
Energy = 0

@<TRIPOS>ATOM
      1 S           0.1830    0.0330    0.0000 S.O2    1  LIG1        0.0636
      2 N           1.0380    0.5380    0.0000 N.3     1  LIG1       -0.1507
      3 C           1.9130    0.0330    0.0000 C.3     1  LIG1        0.1215
      4 C           2.7670    0.5380    0.0000 C.2     1  LIG1       -0.0113
      5 C           2.7670    1.5330    0.0000 C.2     1  LIG1       -0.0236
      6 C           1.9130    2.0210    0.0000 C.3     1  LIG1        0.0452
      7 C           1.0380    1.5330    0.0000 C.3     1  LIG1        0.1008
      8 C           3.6420    2.0210    0.0000 C.ar    1  LIG1       -0.0042
      9 C           4.5000    1.5330    0.0000 C.ar    1  LIG1       -0.0003
     10 C           5.3710    2.0210    0.0000 C.ar    1  LIG1       -0.0000
     11 C           5.3710    3.0330    0.0000 C.ar    1  LIG1       -0.0000
     12 C           4.5000    3.5210    0.0000 C.ar    1  LIG1       -0.0000
     13 C           3.6420    3.0330    0.0000 C.ar    1  LIG1       -0.0003
     14 C          -0.6920   -0.4710    0.0000 C.ar    1  LIG1        0.1220
     15 C          -1.5630    0.0330    0.0000 C.ar    1  LIG1        0.0169
     16 C          -2.4210   -0.4710    0.0000 C.ar    1  LIG1       -0.0055
     17 C          -2.4210   -1.4830    0.0000 C.ar    1  LIG1        0.0499
     18 N          -3.3710   -1.7880    0.0000 N.am    1  LIG1       -0.2603
     19 C          -3.9670   -0.9790    0.0000 C.3     1  LIG1        0.0842
     20 C          -3.3710   -0.1670    0.0000 C.3     1  LIG1        0.0478
     21 C          -4.9630   -0.9790    0.0000 C.3     1  LIG1        0.0222
     22 C          -3.8750   -2.6460    0.0000 C.2     1  LIG1        0.2293
     23 O          -3.3710   -3.5170    0.0000 O.2     1  LIG1       -0.2745
     24 C          -4.8710   -2.6460    0.0000 C.3     1  LIG1        0.0856
     25 C          -5.3750   -3.5170    0.0000 C.3     1  LIG1        0.0101
     26 C          -1.5630   -1.9710    0.0000 C.ar    1  LIG1        0.0160
     27 C          -0.6920   -1.4830    0.0000 C.ar    1  LIG1        0.0212
     28 O           0.6710   -0.8420    0.0000 O.2     1  LIG1       -0.1528
     29 O          -0.3250    0.8920    0.0000 O.2     1  LIG1       -0.1528
@<TRIPOS>BOND
     1     1     2    1
     2     1    14    1
     3     1    28    2
     4     1    29    2
     5     2     3    1
     6     2     7    1
     7     3     4    1
     8     4     5    2
     9     5     6    1
    10     5     8    1
    11     6     7    1
    12     8     9   ar
    13     8    13   ar
    14     9    10   ar
    15    10    11   ar
    16    11    12   ar
    17    12    13   ar
    18    14    15   ar
    19    14    27   ar
    20    15    16   ar
    21    16    17   ar
    22    16    20    1
    23    17    18    1
    24    17    26   ar
    25    18    19    1
    26    18    22   am
    27    19    20    1
    28    19    21    1
    29    22    23    2
    30    22    24    1
    31    24    25    1
    32    26    27   ar
