@<TRIPOS>MOLECULE
35973_ChemDiv_K906-0932
 36 38 0 0 0
SMALL
GASTEIGER
Energy = 0

@<TRIPOS>ATOM
      1 C           0.0250    4.5080    0.0000 C.ar    1  LIG1        0.1194
      2 S           0.0250    3.5130    0.0000 S.O2    1  LIG1        0.0103
      3 C           0.0250    2.5130    0.0000 C.3     1  LIG1        0.1656
      4 C          -0.8420    2.0130    0.0000 C.3     1  LIG1        0.1125
      5 C          -0.8420    1.0130    0.0000 C.2     1  LIG1        0.2432
      6 O           0.0330    0.5130    0.0000 O.2     1  LIG1       -0.2733
      7 N          -1.7040    0.5130    0.0000 N.am    1  LIG1       -0.2050
      8 C          -1.7040   -0.4960    0.0000 C.3     1  LIG1        0.1198
      9 C          -2.5670   -0.9960    0.0000 C.3     1  LIG1        0.0499
     10 C          -2.5670   -2.0000    0.0000 C.ar    1  LIG1       -0.0172
     11 C          -1.7040   -2.5000    0.0000 C.ar    1  LIG1        0.0358
     12 C          -1.7040   -3.4960    0.0000 C.ar    1  LIG1        0.1719
     13 C          -2.5670   -3.9960    0.0000 C.ar    1  LIG1        0.1722
     14 C          -3.4290   -3.4960    0.0000 C.ar    1  LIG1        0.0397
     15 C          -3.4290   -2.5000    0.0000 C.ar    1  LIG1       -0.0009
     16 O          -2.5670   -4.9960    0.0000 O.3     1  LIG1       -0.4724
     17 C          -3.4290   -5.4960    0.0000 C.3     1  LIG1        0.2057
     18 C          -3.4290   -6.5040    0.0000 C.3     1  LIG1        0.0512
     19 O          -0.8250   -4.0130    0.0000 O.3     1  LIG1       -0.4724
     20 C           0.0540   -3.5210    0.0000 C.3     1  LIG1        0.2057
     21 C           0.9170   -4.0250    0.0000 C.3     1  LIG1        0.0512
     22 O          -0.9750    3.5130    0.0000 O.2     1  LIG1       -0.1686
     23 O           1.0210    3.5130    0.0000 O.2     1  LIG1       -0.1686
     24 C           0.8880    5.0040    0.0000 C.ar    1  LIG1        0.0670
     25 N           1.8380    4.7040    0.0000 N.am    1  LIG1       -0.2574
     26 C           2.1420    3.7540    0.0000 C.2     1  LIG1        0.2294
     27 O           1.4750    3.0130    0.0000 O.2     1  LIG1       -0.2745
     28 C           3.1130    3.5420    0.0000 C.3     1  LIG1        0.0856
     29 C           3.4250    2.5880    0.0000 C.3     1  LIG1        0.0101
     30 C           2.4250    5.5040    0.0000 C.3     1  LIG1        0.1029
     31 C           1.8380    6.3130    0.0000 C.3     1  LIG1        0.0495
     32 C           0.8880    6.0040    0.0000 C.ar    1  LIG1       -0.0050
     33 C           0.0250    6.5040    0.0000 C.ar    1  LIG1        0.0038
     34 C          -0.8420    6.0040    0.0000 C.ar    1  LIG1        0.0356
     35 C          -0.8420    5.0040    0.0000 C.ar    1  LIG1        0.0263
     36 BR         -1.7170    6.5040    0.0000 Br      1  LIG1       -0.0490
@<TRIPOS>BOND
     1     1     2    1
     2     1    24   ar
     3     1    35   ar
     4     2     3    1
     5     2    22    2
     6     2    23    2
     7     3     4    1
     8     4     5    1
     9     5     6    2
    10     5     7   am
    11     7     8    1
    12     8     9    1
    13     9    10    1
    14    10    11   ar
    15    10    15   ar
    16    11    12   ar
    17    12    13   ar
    18    12    19    1
    19    13    14   ar
    20    13    16    1
    21    14    15   ar
    22    16    17    1
    23    17    18    1
    24    19    20    1
    25    20    21    1
    26    24    25    1
    27    24    32   ar
    28    25    26   am
    29    25    30    1
    30    26    27    2
    31    26    28    1
    32    28    29    1
    33    30    31    1
    34    31    32    1
    35    32    33   ar
    36    33    34   ar
    37    34    35   ar
    38    34    36    1
