@<TRIPOS>MOLECULE
35986_ChemDiv_D011-5305
 26 28 0 0 0
SMALL
GASTEIGER
Energy = 0

@<TRIPOS>ATOM
      1 N          -1.1080    1.0420    0.0000 N.ar    1  LIG1       -0.3107
      2 C          -0.5170    1.8540    0.0000 C.ar    1  LIG1        0.1206
      3 N          -1.1040    2.6710    0.0000 N.ar    1  LIG1       -0.2309
      4 C          -2.0710    2.3670    0.0000 C.ar    1  LIG1        0.0983
      5 C          -2.0710    1.3540    0.0000 C.ar    1  LIG1        0.0789
      6 C          -2.9330    0.8580    0.0000 C.ar    1  LIG1        0.0188
      7 C          -3.7960    1.3540    0.0000 C.ar    1  LIG1        0.0016
      8 C          -3.7960    2.3580    0.0000 C.ar    1  LIG1        0.0016
      9 C          -2.9330    2.8670    0.0000 C.ar    1  LIG1        0.0206
     10 C           0.3420    2.3540    0.0000 C.3     1  LIG1        0.0658
     11 C           1.2040    1.8540    0.0000 C.3     1  LIG1        0.0313
     12 C           2.0670    2.3540    0.0000 C.3     1  LIG1        0.1156
     13 N           2.9290    1.8540    0.0000 N.am    1  LIG1       -0.2054
     14 C           2.9170    0.8580    0.0000 C.2     1  LIG1        0.2414
     15 O           3.7920    0.3580    0.0000 O.2     1  LIG1       -0.2733
     16 C           2.0580    0.3580    0.0000 C.3     1  LIG1        0.0868
     17 C           1.1960    0.8580    0.0000 C.3     1  LIG1        0.0096
     18 C           0.3290    0.3630    0.0000 C.3     1  LIG1        0.0005
     19 C          -0.8040    0.0920    0.0000 C.3     1  LIG1        0.1339
     20 C          -1.4790   -0.6500    0.0000 C.ar    1  LIG1        0.0004
     21 C          -2.4500   -0.4290    0.0000 C.ar    1  LIG1       -0.0027
     22 C          -3.1210   -1.1710    0.0000 C.ar    1  LIG1       -0.0045
     23 C          -2.8170   -2.1210    0.0000 C.ar    1  LIG1       -0.0219
     24 C          -1.8330   -2.3330    0.0000 C.ar    1  LIG1       -0.0045
     25 C          -1.1710   -1.5920    0.0000 C.ar    1  LIG1       -0.0027
     26 C          -3.4920   -2.8630    0.0000 C.3     1  LIG1        0.0310
@<TRIPOS>BOND
     1     1     2   ar
     2     1     5   ar
     3     1    19    1
     4     2     3   ar
     5     2    10    1
     6     3     4   ar
     7     4     5   ar
     8     4     9   ar
     9     5     6   ar
    10     6     7   ar
    11     7     8   ar
    12     8     9   ar
    13    10    11    1
    14    11    12    1
    15    12    13    1
    16    13    14   am
    17    14    15    2
    18    14    16    1
    19    16    17    1
    20    17    18    1
    21    19    20    1
    22    20    21   ar
    23    20    25   ar
    24    21    22   ar
    25    22    23   ar
    26    23    24   ar
    27    23    26    1
    28    24    25   ar
