@<TRIPOS>MOLECULE
35984_ChemDiv_C685-0101
 27 30 0 0 0
SMALL
GASTEIGER
Energy = 0

@<TRIPOS>ATOM
      1 S          -4.9380   -1.4170    0.0000 S.O2    1  LIG1       -0.0018
      2 C          -4.0250   -1.8420    0.0000 C.3     1  LIG1        0.2359
      3 C          -3.3460   -1.1000    0.0000 C.3     1  LIG1        0.3549
      4 N          -2.3670   -0.9000    0.0000 N.2     1  LIG1        0.0735
      5 C          -2.2540    0.0960    0.0000 C.2     1  LIG1        0.3942
      6 S          -3.1670    0.5040    0.0000 S.3     1  LIG1       -0.0135
      7 C          -3.8420   -0.2210    0.0000 C.3     1  LIG1        0.1620
      8 C          -4.8290   -0.4290    0.0000 C.3     1  LIG1        0.1696
      9 N          -1.3830    0.5790    0.0000 N.pl3   1  LIG1       -0.1424
     10 C          -0.5290    0.0790    0.0000 C.ar    1  LIG1        0.0770
     11 C           0.3500    0.5670    0.0000 C.ar    1  LIG1        0.0213
     12 C           1.2130    0.0670    0.0000 C.ar    1  LIG1        0.0563
     13 C           2.0750    0.5670    0.0000 C.2     1  LIG1        0.2648
     14 N           2.9380    0.0500    0.0000 N.am    1  LIG1       -0.2034
     15 C           3.8580    0.5790    0.0000 C.3     1  LIG1        0.0956
     16 C           4.7540   -0.0250    0.0000 C.3     1  LIG1        0.0217
     17 C           5.7000    0.3210    0.0000 C.3     1  LIG1        0.0018
     18 C           5.9330    1.1830    0.0000 C.3     1  LIG1        0.0001
     19 C           5.4040    2.0580    0.0000 C.3     1  LIG1        0.0001
     20 C           4.5670    2.2830    0.0000 C.3     1  LIG1        0.0018
     21 C           3.7960    1.6290    0.0000 C.3     1  LIG1        0.0217
     22 O           2.0880    1.5540    0.0000 O.2     1  LIG1       -0.2684
     23 C           1.2040   -0.9330    0.0000 C.ar    1  LIG1        0.0046
     24 C           0.3330   -1.4330    0.0000 C.ar    1  LIG1        0.0015
     25 C          -0.5290   -0.9170    0.0000 C.ar    1  LIG1        0.0167
     26 O          -5.4460   -2.2790    0.0000 O.2     1  LIG1       -0.1727
     27 O          -5.9380   -1.4170    0.0000 O.2     1  LIG1       -0.1727
@<TRIPOS>BOND
     1     1     2    1
     2     1     8    1
     3     1    26    2
     4     1    27    2
     5     2     3    1
     6     3     4    1
     7     3     7    1
     8     4     5    2
     9     5     6    1
    10     5     9    1
    11     6     7    1
    12     7     8    1
    13     9    10    1
    14    10    11   ar
    15    10    25   ar
    16    11    12   ar
    17    12    13    1
    18    12    23   ar
    19    13    14   am
    20    13    22    2
    21    14    15    1
    22    15    16    1
    23    15    21    1
    24    16    17    1
    25    17    18    1
    26    18    19    1
    27    19    20    1
    28    20    21    1
    29    23    24   ar
    30    24    25   ar
