@<TRIPOS>MOLECULE
35985_ChemDiv_C169-0304
 25 28 0 0 0
SMALL
GASTEIGER
Energy = 0

@<TRIPOS>ATOM
      1 C           0.8960    0.6630    0.0000 C.ar    1  LIG1        0.1559
      2 N           0.6790    1.6460    0.0000 N.ar    1  LIG1       -0.2732
      3 C           1.5500    2.1500    0.0000 C.ar    1  LIG1        0.1681
      4 N           2.3000    1.4670    0.0000 N.ar    1  LIG1       -0.2235
      5 C           1.8830    0.5630    0.0000 C.ar    1  LIG1        0.1148
      6 C           2.0920   -0.4210    0.0000 C.ar    1  LIG1        0.0207
      7 C           1.3420   -1.0920    0.0000 C.ar    1  LIG1        0.0047
      8 C           1.5500   -2.0710    0.0000 C.ar    1  LIG1        0.0370
      9 C           2.5080   -2.3830    0.0000 C.ar    1  LIG1        0.1387
     10 C           3.2630   -1.7080    0.0000 C.ar    1  LIG1        0.0370
     11 C           3.0420   -0.7210    0.0000 C.ar    1  LIG1        0.0047
     12 O           2.7170   -3.3460    0.0000 O.3     1  LIG1       -0.4714
     13 C           3.6460   -3.6460    0.0000 C.3     1  LIG1        0.2525
     14 C           1.5500    3.1500    0.0000 C.ar    1  LIG1        0.1362
     15 N           0.6790    3.6500    0.0000 N.ar    1  LIG1       -0.2376
     16 C          -0.1830    3.1500    0.0000 C.ar    1  LIG1        0.1180
     17 C          -0.1830    2.1500    0.0000 C.ar    1  LIG1        0.1033
     18 N           0.2330   -0.0790    0.0000 N.pl3   1  LIG1       -0.1939
     19 C          -0.7380    0.1130    0.0000 C.ar    1  LIG1        0.0722
     20 C          -1.0670    1.0670    0.0000 C.ar    1  LIG1        0.0174
     21 C          -2.0460    1.2580    0.0000 C.ar    1  LIG1        0.0127
     22 C          -2.7000    0.5000    0.0000 C.ar    1  LIG1        0.0578
     23 CL         -3.6500    0.7580    0.0000 Cl      1  LIG1       -0.0822
     24 C          -2.3830   -0.4460    0.0000 C.ar    1  LIG1        0.0127
     25 C          -1.4000   -0.6380    0.0000 C.ar    1  LIG1        0.0174
@<TRIPOS>BOND
     1     1     2   ar
     2     1     5   ar
     3     1    18    1
     4     2     3   ar
     5     2    17   ar
     6     3     4   ar
     7     3    14   ar
     8     4     5   ar
     9     5     6    1
    10     6     7   ar
    11     6    11   ar
    12     7     8   ar
    13     8     9   ar
    14     9    10   ar
    15     9    12    1
    16    10    11   ar
    17    12    13    1
    18    14    15   ar
    19    15    16   ar
    20    16    17   ar
    21    18    19    1
    22    19    20   ar
    23    19    25   ar
    24    20    21   ar
    25    21    22   ar
    26    22    23    1
    27    22    24   ar
    28    24    25   ar
