@<TRIPOS>MOLECULE
35982_ChemDiv_C200-2101
 18 20 0 0 0
SMALL
GASTEIGER
Energy = 0

@<TRIPOS>ATOM
      1 S          -1.3330    2.6750    0.0000 S.O2    1  LIG1       -0.0018
      2 C          -0.5210    2.0920    0.0000 C.3     1  LIG1        0.2359
      3 C          -0.8290    1.1380    0.0000 C.3     1  LIG1        0.3549
      4 N          -0.5210    0.1830    0.0000 N.2     1  LIG1        0.0735
      5 C          -1.3330   -0.4040    0.0000 C.2     1  LIG1        0.3942
      6 S          -2.1460    0.1830    0.0000 S.3     1  LIG1       -0.0135
      7 C          -1.8330    1.1380    0.0000 C.3     1  LIG1        0.1620
      8 C          -2.1460    2.0920    0.0000 C.3     1  LIG1        0.1696
      9 N          -1.3330   -1.4040    0.0000 N.pl3   1  LIG1       -0.1424
     10 C          -0.4670   -1.9040    0.0000 C.ar    1  LIG1        0.0769
     11 C          -0.4630   -2.8960    0.0000 C.ar    1  LIG1        0.0164
     12 C           0.4130   -3.3830    0.0000 C.ar    1  LIG1       -0.0029
     13 C           1.2670   -2.8750    0.0000 C.ar    1  LIG1       -0.0218
     14 C           1.2500   -1.8790    0.0000 C.ar    1  LIG1       -0.0029
     15 C           0.3880   -1.3960    0.0000 C.ar    1  LIG1        0.0164
     16 C           2.1420   -3.3630    0.0000 C.3     1  LIG1        0.0310
     17 O          -0.6290    3.3880    0.0000 O.2     1  LIG1       -0.1727
     18 O          -2.0540    3.3880    0.0000 O.2     1  LIG1       -0.1727
@<TRIPOS>BOND
     1     1     2    1
     2     1     8    1
     3     1    17    2
     4     1    18    2
     5     2     3    1
     6     3     4    1
     7     3     7    1
     8     4     5    2
     9     5     6    1
    10     5     9    1
    11     6     7    1
    12     7     8    1
    13     9    10    1
    14    10    11   ar
    15    10    15   ar
    16    11    12   ar
    17    12    13   ar
    18    13    14   ar
    19    13    16    1
    20    14    15   ar
