@<TRIPOS>MOLECULE
35987_ChemDiv_C169-0316
 24 27 0 0 0
SMALL
GASTEIGER
Energy = 0

@<TRIPOS>ATOM
      1 C           1.0920    0.5080    0.0000 C.ar    1  LIG1        0.1559
      2 N           0.8710    1.4880    0.0000 N.ar    1  LIG1       -0.2732
      3 C           1.7420    1.9920    0.0000 C.ar    1  LIG1        0.1681
      4 N           2.4920    1.3080    0.0000 N.ar    1  LIG1       -0.2235
      5 C           2.0750    0.4080    0.0000 C.ar    1  LIG1        0.1148
      6 C           2.2830   -0.5750    0.0000 C.ar    1  LIG1        0.0207
      7 C           1.5330   -1.2460    0.0000 C.ar    1  LIG1        0.0049
      8 C           1.7420   -2.2250    0.0000 C.ar    1  LIG1        0.0421
      9 C           2.7000   -2.5380    0.0000 C.ar    1  LIG1        0.1957
     10 C           3.4500   -1.8630    0.0000 C.ar    1  LIG1        0.0421
     11 C           3.2330   -0.8750    0.0000 C.ar    1  LIG1        0.0049
     12 O           2.9500   -3.4880    0.0000 O.3     1  LIG1       -0.2866
     13 C           1.7420    2.9920    0.0000 C.ar    1  LIG1        0.1362
     14 N           0.8710    3.4920    0.0000 N.ar    1  LIG1       -0.2376
     15 C           0.0130    2.9920    0.0000 C.ar    1  LIG1        0.1180
     16 C           0.0130    1.9920    0.0000 C.ar    1  LIG1        0.1033
     17 N           0.4250   -0.2330    0.0000 N.pl3   1  LIG1       -0.1939
     18 C          -0.5460   -0.0420    0.0000 C.ar    1  LIG1        0.0722
     19 C          -0.8710    0.9080    0.0000 C.ar    1  LIG1        0.0174
     20 C          -1.8500    1.1000    0.0000 C.ar    1  LIG1        0.0127
     21 C          -2.5040    0.3460    0.0000 C.ar    1  LIG1        0.0578
     22 CL         -3.4540    0.6000    0.0000 Cl      1  LIG1       -0.0822
     23 C          -2.1880   -0.6000    0.0000 C.ar    1  LIG1        0.0127
     24 C          -1.2080   -0.7960    0.0000 C.ar    1  LIG1        0.0174
@<TRIPOS>BOND
     1     1     2   ar
     2     1     5   ar
     3     1    17    1
     4     2     3   ar
     5     2    16   ar
     6     3     4   ar
     7     3    13   ar
     8     4     5   ar
     9     5     6    1
    10     6     7   ar
    11     6    11   ar
    12     7     8   ar
    13     8     9   ar
    14     9    10   ar
    15     9    12    1
    16    10    11   ar
    17    13    14   ar
    18    14    15   ar
    19    15    16   ar
    20    17    18    1
    21    18    19   ar
    22    18    24   ar
    23    19    20   ar
    24    20    21   ar
    25    21    22    1
    26    21    23   ar
    27    23    24   ar
