@<TRIPOS>MOLECULE
35981_ChemDiv_E570-0122
 30 34 0 0 0
SMALL
GASTEIGER
Energy = 0

@<TRIPOS>ATOM
      1 S          -0.1040    0.0960    0.0000 S.O2    1  LIG1        0.0636
      2 N           0.9250    0.0960    0.0000 N.3     1  LIG1       -0.1507
      3 C           1.4460   -0.8000    0.0000 C.3     1  LIG1        0.1215
      4 C           2.4670   -0.7960    0.0000 C.2     1  LIG1       -0.0113
      5 C           2.9830    0.0960    0.0000 C.2     1  LIG1       -0.0236
      6 C           2.4790    0.9880    0.0000 C.3     1  LIG1        0.0452
      7 C           1.4420    0.9880    0.0000 C.3     1  LIG1        0.1008
      8 C           4.0170    0.0960    0.0000 C.ar    1  LIG1       -0.0042
      9 C           4.5250   -0.7960    0.0000 C.ar    1  LIG1       -0.0003
     10 C           5.5630   -0.7960    0.0000 C.ar    1  LIG1       -0.0000
     11 C           6.0790    0.1000    0.0000 C.ar    1  LIG1       -0.0000
     12 C           5.5630    0.9920    0.0000 C.ar    1  LIG1       -0.0000
     13 C           4.5330    0.9920    0.0000 C.ar    1  LIG1       -0.0003
     14 C          -1.1330    0.0880    0.0000 C.ar    1  LIG1        0.1220
     15 C          -1.6540   -0.8000    0.0000 C.ar    1  LIG1        0.0169
     16 C          -2.6830   -0.8000    0.0000 C.ar    1  LIG1       -0.0055
     17 C          -3.2000    0.0880    0.0000 C.ar    1  LIG1        0.0499
     18 N          -4.0580    0.0420    0.0000 N.am    1  LIG1       -0.2603
     19 C          -4.4920    0.7830    0.0000 C.2     1  LIG1        0.2288
     20 C          -5.3460    0.7830    0.0000 C.3     1  LIG1        0.0771
     21 C          -6.0790    0.3540    0.0000 C.3     1  LIG1        0.0096
     22 C          -6.0790    1.2130    0.0000 C.3     1  LIG1        0.0096
     23 O          -4.0580    1.5290    0.0000 O.2     1  LIG1       -0.2745
     24 C          -4.5170   -0.7420    0.0000 C.3     1  LIG1        0.0842
     25 C          -4.0670   -1.5250    0.0000 C.3     1  LIG1        0.0478
     26 C          -5.4290   -0.7420    0.0000 C.3     1  LIG1        0.0222
     27 C          -2.6830    0.9880    0.0000 C.ar    1  LIG1        0.0160
     28 C          -1.6540    0.9880    0.0000 C.ar    1  LIG1        0.0212
     29 O          -0.1040    1.1250    0.0000 O.2     1  LIG1       -0.1528
     30 O          -0.1040   -0.9420    0.0000 O.2     1  LIG1       -0.1528
@<TRIPOS>BOND
     1     1     2    1
     2     1    14    1
     3     1    29    2
     4     1    30    2
     5     2     3    1
     6     2     7    1
     7     3     4    1
     8     4     5    2
     9     5     6    1
    10     5     8    1
    11     6     7    1
    12     8     9   ar
    13     8    13   ar
    14     9    10   ar
    15    10    11   ar
    16    11    12   ar
    17    12    13   ar
    18    14    15   ar
    19    14    28   ar
    20    15    16   ar
    21    16    17   ar
    22    16    25    1
    23    17    18    1
    24    17    27   ar
    25    18    19   am
    26    18    24    1
    27    19    20    1
    28    19    23    2
    29    20    21    1
    30    20    22    1
    31    21    22    1
    32    24    25    1
    33    24    26    1
    34    27    28   ar
