@<TRIPOS>MOLECULE
35980_ChemDiv_C200-1871
 23 26 0 0 0
SMALL
GASTEIGER
Energy = 0

@<TRIPOS>ATOM
      1 N           0.8420    0.3580    0.0000 N.ar    1  LIG1       -0.2749
      2 C           0.8420   -0.6380    0.0000 C.ar    1  LIG1        0.1735
      3 N          -0.0170   -1.1420    0.0000 N.ar    1  LIG1       -0.2224
      4 C          -0.8830   -0.6380    0.0000 C.ar    1  LIG1        0.0882
      5 C          -0.8790    0.3580    0.0000 C.ar    1  LIG1        0.0739
      6 C          -0.0170    0.8670    0.0000 C.ar    1  LIG1        0.2637
      7 O          -0.0170    1.8670    0.0000 O.2     1  LIG1       -0.2669
      8 C          -1.7460    0.8580    0.0000 C.ar    1  LIG1        0.0065
      9 C          -2.6080    0.3580    0.0000 C.ar    1  LIG1        0.0067
     10 C          -2.6080   -0.6460    0.0000 C.ar    1  LIG1        0.0771
     11 C          -3.4790   -1.1420    0.0000 C.2     1  LIG1        0.3414
     12 O          -3.4790   -2.1420    0.0000 O.2     1  LIG1       -0.2449
     13 O          -4.3420   -0.6460    0.0000 O.3     1  LIG1       -0.4413
     14 C          -4.3420    0.3540    0.0000 C.3     1  LIG1        0.2560
     15 C          -1.7460   -1.1420    0.0000 C.ar    1  LIG1        0.0258
     16 S           1.7960   -0.9460    0.0000 S.3     1  LIG1       -0.0744
     17 C           2.3880   -0.1420    0.0000 C.3     1  LIG1        0.1009
     18 C           1.7960    0.6710    0.0000 C.3     1  LIG1        0.1258
     19 C           2.3880    1.4790    0.0000 C.3     1  LIG1        0.1743
     20 S           3.3380    1.1750    0.0000 S.O2    1  LIG1       -0.0072
     21 C           3.3380    0.1710    0.0000 C.3     1  LIG1        0.1640
     22 O           3.5960    2.1460    0.0000 O.2     1  LIG1       -0.1729
     23 O           4.3380    1.1750    0.0000 O.2     1  LIG1       -0.1729
@<TRIPOS>BOND
     1     1     2   ar
     2     1     6   ar
     3     1    18    1
     4     2     3   ar
     5     2    16    1
     6     3     4   ar
     7     4     5   ar
     8     4    15   ar
     9     5     6   ar
    10     5     8   ar
    11     6     7    2
    12     8     9   ar
    13     9    10   ar
    14    10    11    1
    15    10    15   ar
    16    11    12    2
    17    11    13    1
    18    13    14    1
    19    16    17    1
    20    17    18    1
    21    17    21    1
    22    18    19    1
    23    19    20    1
    24    20    21    1
    25    20    22    2
    26    20    23    2
