@<TRIPOS>MOLECULE
35983_ChemDiv_C137-2157
 26 28 0 0 0
SMALL
GASTEIGER
Energy = 0

@<TRIPOS>ATOM
      1 S           0.1130   -0.3380    0.0000 S.O2    1  LIG1        0.0647
      2 C           1.9210    0.7040    0.0000 C.ar    1  LIG1        0.1359
      3 C           2.7330    0.2710    0.0000 C.ar    1  LIG1        0.0685
      4 N           2.9290   -0.6380    0.0000 N.am    1  LIG1       -0.2573
      5 C           2.3130   -1.3380    0.0000 C.2     1  LIG1        0.2289
      6 C           2.6000   -2.2130    0.0000 C.3     1  LIG1        0.0771
      7 C           2.1750   -3.0170    0.0000 C.3     1  LIG1        0.0096
      8 C           3.4000   -2.7540    0.0000 C.3     1  LIG1        0.0096
      9 O           1.4130   -1.1500    0.0000 O.2     1  LIG1       -0.2745
     10 C           3.8420   -0.7420    0.0000 C.3     1  LIG1        0.1029
     11 C           4.2170    0.1170    0.0000 C.3     1  LIG1        0.0495
     12 C           3.5250    0.7170    0.0000 C.ar    1  LIG1       -0.0050
     13 C           3.5210    1.6380    0.0000 C.ar    1  LIG1        0.0038
     14 C           2.7170    2.1000    0.0000 C.ar    1  LIG1        0.0357
     15 C           1.9210    1.6290    0.0000 C.ar    1  LIG1        0.0279
     16 BR          2.7080    3.0210    0.0000 Br      1  LIG1       -0.0490
     17 N          -0.7630   -0.8380    0.0000 N.3     1  LIG1       -0.1488
     18 C          -1.6170   -0.3380    0.0000 C.3     1  LIG1        0.1570
     19 C          -2.4790   -0.8380    0.0000 C.3     1  LIG1        0.2537
     20 O          -3.3460   -0.3330    0.0000 O.3     1  LIG1       -0.3267
     21 C          -4.2210   -0.8210    0.0000 C.3     1  LIG1        0.1769
     22 O          -2.4750   -1.8380    0.0000 O.3     1  LIG1       -0.3267
     23 C          -1.6170   -2.3330    0.0000 C.3     1  LIG1        0.1769
     24 C          -0.7460   -1.8540    0.0000 C.3     1  LIG1        0.1151
     25 O           0.1290   -1.2630    0.0000 O.2     1  LIG1       -0.1527
     26 O          -0.7000    0.1170    0.0000 O.2     1  LIG1       -0.1527
@<TRIPOS>BOND
     1     1     2    1
     2     1    17    1
     3     1    25    2
     4     1    26    2
     5     2     3   ar
     6     2    15   ar
     7     3     4    1
     8     3    12   ar
     9     4     5   am
    10     4    10    1
    11     5     6    1
    12     5     9    2
    13     6     7    1
    14     6     8    1
    15     7     8    1
    16    10    11    1
    17    11    12    1
    18    12    13   ar
    19    13    14   ar
    20    14    15   ar
    21    14    16    1
    22    17    18    1
    23    17    24    1
    24    18    19    1
    25    19    20    1
    26    19    22    1
    27    20    21    1
    28    22    23    1
