@<TRIPOS>MOLECULE
35988_ChemDiv_C174-0892
 25 27 0 0 0
SMALL
GASTEIGER
Energy = 0

@<TRIPOS>ATOM
      1 N          -1.9000    1.9290    0.0000 N.ar    1  LIG1       -0.2310
      2 C          -1.5830    0.9880    0.0000 C.ar    1  LIG1        0.1203
      3 N          -2.3880    0.3880    0.0000 N.ar    1  LIG1       -0.3149
      4 C          -3.2040    0.9710    0.0000 C.ar    1  LIG1        0.0786
      5 C          -2.9000    1.9250    0.0000 C.ar    1  LIG1        0.0983
      6 C          -3.5710    2.6750    0.0000 C.ar    1  LIG1        0.0206
      7 C          -4.5500    2.4580    0.0000 C.ar    1  LIG1        0.0016
      8 C          -4.8500    1.5080    0.0000 C.ar    1  LIG1        0.0016
      9 C          -4.1830    0.7540    0.0000 C.ar    1  LIG1        0.0188
     10 C          -2.3710   -0.6130    0.0000 C.3     1  LIG1        0.1072
     11 C          -3.2330   -1.1250    0.0000 C.3     1  LIG1        0.0245
     12 C          -3.2130   -2.1290    0.0000 C.3     1  LIG1        0.0020
     13 C          -4.0830   -2.6330    0.0000 C.3     1  LIG1        0.0001
     14 C          -4.0710   -3.6330    0.0000 C.3     1  LIG1        0.0000
     15 C          -0.6290    0.6880    0.0000 C.3     1  LIG1        0.0658
     16 C           0.1040    1.3750    0.0000 C.3     1  LIG1        0.0313
     17 C           1.0580    1.0920    0.0000 C.3     1  LIG1        0.1159
     18 N           1.7880    1.7750    0.0000 N.am    1  LIG1       -0.2012
     19 C           2.7380    1.4790    0.0000 C.2     1  LIG1        0.2708
     20 C           3.4630    2.1580    0.0000 C.ar    1  LIG1        0.0845
     21 S           3.2460    3.1210    0.0000 S.2     1  LIG1       -0.0819
     22 C           4.1080    3.6380    0.0000 C.ar    1  LIG1        0.0356
     23 C           4.8460    3.0080    0.0000 C.ar    1  LIG1        0.0076
     24 C           4.4630    2.0750    0.0000 C.ar    1  LIG1        0.0116
     25 O           2.9630    0.5040    0.0000 O.2     1  LIG1       -0.2678
@<TRIPOS>BOND
     1     1     2   ar
     2     1     5   ar
     3     2     3   ar
     4     2    15    1
     5     3     4   ar
     6     3    10    1
     7     4     5   ar
     8     4     9   ar
     9     5     6   ar
    10     6     7   ar
    11     7     8   ar
    12     8     9   ar
    13    10    11    1
    14    11    12    1
    15    12    13    1
    16    13    14    1
    17    15    16    1
    18    16    17    1
    19    17    18    1
    20    18    19   am
    21    19    20    1
    22    19    25    2
    23    20    21   ar
    24    20    24   ar
    25    21    22   ar
    26    22    23   ar
    27    23    24   ar
