@<TRIPOS>MOLECULE
35989_ChemDiv_C169-0346
 28 31 0 0 0
SMALL
GASTEIGER
Energy = 0

@<TRIPOS>ATOM
      1 C          -0.0420    0.6630    0.0000 C.ar    1  LIG1        0.1559
      2 N           0.0130    1.6540    0.0000 N.ar    1  LIG1       -0.2732
      3 C           0.9710    1.9080    0.0000 C.ar    1  LIG1        0.1681
      4 N           1.5000    1.0710    0.0000 N.ar    1  LIG1       -0.2235
      5 C           0.8880    0.3040    0.0000 C.ar    1  LIG1        0.1149
      6 C           1.0960   -0.6580    0.0000 C.ar    1  LIG1        0.0237
      7 C           2.0420   -0.9710    0.0000 C.ar    1  LIG1        0.0418
      8 C           2.2500   -1.9330    0.0000 C.ar    1  LIG1        0.1774
      9 C           1.5170   -2.6080    0.0000 C.ar    1  LIG1        0.2293
     10 C           0.5710   -2.2920    0.0000 C.ar    1  LIG1        0.0453
     11 C           0.3630   -1.3290    0.0000 C.ar    1  LIG1        0.0051
     12 O           1.7710   -3.5670    0.0000 O.3     1  LIG1       -0.2833
     13 O           3.1960   -2.2460    0.0000 O.3     1  LIG1       -0.4682
     14 C           3.9420   -1.5750    0.0000 C.3     1  LIG1        0.2526
     15 C           1.2330    2.8670    0.0000 C.ar    1  LIG1        0.1362
     16 N           0.5290    3.5710    0.0000 N.ar    1  LIG1       -0.2376
     17 C          -0.4380    3.3040    0.0000 C.ar    1  LIG1        0.1180
     18 C          -0.6920    2.3580    0.0000 C.ar    1  LIG1        0.1033
     19 N          -1.0170    0.2380    0.0000 N.pl3   1  LIG1       -0.1946
     20 C          -2.1750    0.8830    0.0000 C.ar    1  LIG1        0.0641
     21 C          -2.2290    1.8750    0.0000 C.ar    1  LIG1       -0.0069
     22 C          -3.1170    2.3290    0.0000 C.ar    1  LIG1       -0.0030
     23 C          -3.9460    1.7880    0.0000 C.ar    1  LIG1       -0.0006
     24 C          -3.9000    0.8000    0.0000 C.ar    1  LIG1       -0.0030
     25 C          -3.0080    0.3460    0.0000 C.ar    1  LIG1       -0.0072
     26 C          -2.9670   -0.6460    0.0000 C.3     1  LIG1        0.0277
     27 C          -3.8330   -1.1380    0.0000 C.3     1  LIG1        0.0051
     28 C          -1.4210    1.9630    0.0000 C.3     1  LIG1        0.0324
@<TRIPOS>BOND
     1     1     2   ar
     2     1     5   ar
     3     1    19    1
     4     2     3   ar
     5     2    18   ar
     6     3     4   ar
     7     3    15   ar
     8     4     5   ar
     9     5     6    1
    10     6     7   ar
    11     6    11   ar
    12     7     8   ar
    13     8     9   ar
    14     8    13    1
    15     9    10   ar
    16     9    12    1
    17    10    11   ar
    18    13    14    1
    19    15    16   ar
    20    16    17   ar
    21    17    18   ar
    22    19    20    1
    23    20    21   ar
    24    20    25   ar
    25    21    22   ar
    26    21    28    1
    27    22    23   ar
    28    23    24   ar
    29    24    25   ar
    30    25    26    1
    31    26    27    1
