@<TRIPOS>MOLECULE
35996_ChemDiv_C176-0443
 35 38 0 0 0
SMALL
GASTEIGER
Energy = 0

@<TRIPOS>ATOM
      1 C           0.4790    1.3920    0.0000 C.ar    1  LIG1        0.2343
      2 N          -0.5210    1.3920    0.0000 N.ar    1  LIG1       -0.1863
      3 C          -0.8330    0.4330    0.0000 C.ar    1  LIG1        0.2670
      4 O          -0.0210   -0.1420    0.0000 O.2     1  LIG1       -0.4244
      5 C           0.7880    0.4330    0.0000 C.ar    1  LIG1        0.2089
      6 S           1.7330    0.1290    0.0000 S.3     1  LIG1       -0.0643
      7 C           1.9380   -0.8500    0.0000 C.3     1  LIG1        0.1520
      8 C           1.1880   -1.5210    0.0000 C.2     1  LIG1        0.2571
      9 N           1.4000   -2.5080    0.0000 N.am    1  LIG1       -0.1754
     10 C           0.6500   -3.1750    0.0000 C.ar    1  LIG1        0.1074
     11 C           0.8750   -4.1710    0.0000 C.ar    1  LIG1        0.1569
     12 C           0.1380   -4.8380    0.0000 C.ar    1  LIG1        0.0751
     13 C          -0.8250   -4.5250    0.0000 C.ar    1  LIG1        0.1418
     14 C          -1.0380   -3.5380    0.0000 C.ar    1  LIG1        0.0384
     15 C          -0.2960   -2.8710    0.0000 C.ar    1  LIG1        0.0228
     16 O          -1.5790   -5.1920    0.0000 O.3     1  LIG1       -0.4713
     17 C          -2.5330   -4.8880    0.0000 C.3     1  LIG1        0.2525
     18 O           1.8250   -4.4580    0.0000 O.3     1  LIG1       -0.4700
     19 C           2.0380   -5.4330    0.0000 C.3     1  LIG1        0.2525
     20 O           0.2420   -1.2130    0.0000 O.2     1  LIG1       -0.2720
     21 C          -1.7880    0.1290    0.0000 C.ar    1  LIG1        0.1988
     22 O          -2.1080   -0.8250    0.0000 O.2     1  LIG1       -0.4457
     23 C          -3.0920   -0.8250    0.0000 C.ar    1  LIG1        0.1798
     24 C          -3.4130    0.1210    0.0000 C.ar    1  LIG1        0.0440
     25 C          -2.6080    0.7080    0.0000 C.ar    1  LIG1        0.0456
     26 S           1.0580    2.2040    0.0000 S.O2    1  LIG1        0.0474
     27 C           1.6500    3.0130    0.0000 C.ar    1  LIG1        0.1121
     28 C           1.2380    3.9290    0.0000 C.ar    1  LIG1        0.0193
     29 C           1.8330    4.7250    0.0000 C.ar    1  LIG1        0.0080
     30 C           2.8170    4.6210    0.0000 C.ar    1  LIG1        0.0346
     31 C           3.2250    3.7130    0.0000 C.ar    1  LIG1        0.0080
     32 C           2.6500    2.9170    0.0000 C.ar    1  LIG1        0.0193
     33 BR          3.4080    5.4330    0.0000 Br      1  LIG1       -0.0490
     34 O           1.9000    1.6750    0.0000 O.2     1  LIG1       -0.1627
     35 O           0.2210    2.7420    0.0000 O.2     1  LIG1       -0.1627
@<TRIPOS>BOND
     1     1     2   ar
     2     1     5   ar
     3     1    26    1
     4     2     3   ar
     5     3     4   ar
     6     3    21    1
     7     4     5   ar
     8     5     6    1
     9     6     7    1
    10     7     8    1
    11     8     9   am
    12     8    20    2
    13     9    10    1
    14    10    11   ar
    15    10    15   ar
    16    11    12   ar
    17    11    18    1
    18    12    13   ar
    19    13    14   ar
    20    13    16    1
    21    14    15   ar
    22    16    17    1
    23    18    19    1
    24    21    22   ar
    25    21    25   ar
    26    22    23   ar
    27    23    24   ar
    28    24    25   ar
    29    26    27    1
    30    26    34    2
    31    26    35    2
    32    27    28   ar
    33    27    32   ar
    34    28    29   ar
    35    29    30   ar
    36    30    31   ar
    37    30    33    1
    38    31    32   ar
