@<TRIPOS>MOLECULE
35991_ChemDiv_C169-0360
 26 29 0 0 0
SMALL
GASTEIGER
Energy = 0

@<TRIPOS>ATOM
      1 C          -0.1380   -0.1380    0.0000 C.ar    1  LIG1        0.1559
      2 N          -0.3420    0.8330    0.0000 N.ar    1  LIG1       -0.2732
      3 C           0.5210    1.3330    0.0000 C.ar    1  LIG1        0.1681
      4 N           1.2540    0.6710    0.0000 N.ar    1  LIG1       -0.2235
      5 C           0.8500   -0.2420    0.0000 C.ar    1  LIG1        0.1149
      6 C           1.3540   -1.1000    0.0000 C.ar    1  LIG1        0.0237
      7 C           2.3540   -1.1000    0.0000 C.ar    1  LIG1        0.0436
      8 C           2.8580   -1.9580    0.0000 C.ar    1  LIG1        0.1958
      9 O           3.8540   -1.9540    0.0000 O.3     1  LIG1       -0.2866
     10 C           2.3580   -2.8290    0.0000 C.ar    1  LIG1        0.0420
     11 C           1.3580   -2.8380    0.0000 C.ar    1  LIG1        0.0033
     12 C           0.8580   -1.9710    0.0000 C.ar    1  LIG1        0.0018
     13 C           0.5210    2.3330    0.0000 C.ar    1  LIG1        0.1362
     14 N          -0.3460    2.8420    0.0000 N.ar    1  LIG1       -0.2376
     15 C          -1.2170    2.3330    0.0000 C.ar    1  LIG1        0.1180
     16 C          -1.2170    1.3330    0.0000 C.ar    1  LIG1        0.1033
     17 N          -0.8540   -0.8460    0.0000 N.pl3   1  LIG1       -0.1946
     18 C          -1.8500   -0.8380    0.0000 C.ar    1  LIG1        0.0641
     19 C          -2.3500   -1.7000    0.0000 C.ar    1  LIG1       -0.0069
     20 C          -3.3500   -1.7000    0.0000 C.ar    1  LIG1       -0.0030
     21 C          -3.8580   -0.8210    0.0000 C.ar    1  LIG1       -0.0006
     22 C          -3.3460    0.0420    0.0000 C.ar    1  LIG1       -0.0030
     23 C          -2.3460    0.0380    0.0000 C.ar    1  LIG1       -0.0072
     24 C          -1.8420    0.9000    0.0000 C.3     1  LIG1        0.0277
     25 C          -2.3330    1.7670    0.0000 C.3     1  LIG1        0.0051
     26 C          -1.8580   -2.5710    0.0000 C.3     1  LIG1        0.0324
@<TRIPOS>BOND
     1     1     2   ar
     2     1     5   ar
     3     1    17    1
     4     2     3   ar
     5     2    16   ar
     6     3     4   ar
     7     3    13   ar
     8     4     5   ar
     9     5     6    1
    10     6     7   ar
    11     6    12   ar
    12     7     8   ar
    13     8     9    1
    14     8    10   ar
    15    10    11   ar
    16    11    12   ar
    17    13    14   ar
    18    14    15   ar
    19    15    16   ar
    20    17    18    1
    21    18    19   ar
    22    18    23   ar
    23    19    20   ar
    24    19    26    1
    25    20    21   ar
    26    21    22   ar
    27    22    23   ar
    28    23    24    1
    29    24    25    1
