@<TRIPOS>MOLECULE
35997_ChemDiv_C169-0384
 27 30 0 0 0
SMALL
GASTEIGER
Energy = 0

@<TRIPOS>ATOM
      1 C           1.1460    0.3130    0.0000 C.ar    1  LIG1        0.1559
      2 N           0.9460    1.2920    0.0000 N.ar    1  LIG1       -0.2732
      3 C           1.8210    1.7830    0.0000 C.ar    1  LIG1        0.1681
      4 N           2.5540    1.1130    0.0000 N.ar    1  LIG1       -0.2235
      5 C           2.1420    0.2000    0.0000 C.ar    1  LIG1        0.1148
      6 C           2.6290   -0.6630    0.0000 C.ar    1  LIG1        0.0205
      7 C           2.1250   -1.5250    0.0000 C.ar    1  LIG1        0.0013
      8 C           2.6170   -2.4000    0.0000 C.ar    1  LIG1       -0.0042
      9 C           3.6170   -2.4040    0.0000 C.ar    1  LIG1       -0.0218
     10 C           4.1250   -1.5420    0.0000 C.ar    1  LIG1       -0.0042
     11 C           3.6290   -0.6790    0.0000 C.ar    1  LIG1        0.0013
     12 C           4.1130   -3.2790    0.0000 C.3     1  LIG1        0.0310
     13 C           1.8290    2.7830    0.0000 C.ar    1  LIG1        0.1362
     14 N           0.9580    3.2830    0.0000 N.ar    1  LIG1       -0.2376
     15 C           0.0830    2.7830    0.0000 C.ar    1  LIG1        0.1180
     16 C           0.0830    1.7920    0.0000 C.ar    1  LIG1        0.1033
     17 N           0.4330   -0.3920    0.0000 N.pl3   1  LIG1       -0.1938
     18 C          -0.5290   -0.1250    0.0000 C.ar    1  LIG1        0.0754
     19 C          -1.2330   -0.8290    0.0000 C.ar    1  LIG1        0.0566
     20 C          -2.2040   -0.5670    0.0000 C.ar    1  LIG1        0.1737
     21 C          -2.4540    0.4040    0.0000 C.ar    1  LIG1        0.1725
     22 C          -1.7420    1.1130    0.0000 C.ar    1  LIG1        0.0414
     23 C          -0.7790    0.8420    0.0000 C.ar    1  LIG1        0.0199
     24 O          -3.4170    0.6710    0.0000 O.3     1  LIG1       -0.4684
     25 C          -4.1290   -0.0380    0.0000 C.3     1  LIG1        0.2526
     26 O          -2.9080   -1.2670    0.0000 O.3     1  LIG1       -0.4683
     27 C          -2.6580   -2.2380    0.0000 C.3     1  LIG1        0.2526
@<TRIPOS>BOND
     1     1     2   ar
     2     1     5   ar
     3     1    17    1
     4     2     3   ar
     5     2    16   ar
     6     3     4   ar
     7     3    13   ar
     8     4     5   ar
     9     5     6    1
    10     6     7   ar
    11     6    11   ar
    12     7     8   ar
    13     8     9   ar
    14     9    10   ar
    15     9    12    1
    16    10    11   ar
    17    13    14   ar
    18    14    15   ar
    19    15    16   ar
    20    17    18    1
    21    18    19   ar
    22    18    23   ar
    23    19    20   ar
    24    20    21   ar
    25    20    26    1
    26    21    22   ar
    27    21    24    1
    28    22    23   ar
    29    24    25    1
    30    26    27    1
