@<TRIPOS>MOLECULE
35993_ChemDiv_C169-0374
 31 35 0 0 0
SMALL
GASTEIGER
Energy = 0

@<TRIPOS>ATOM
      1 C           0.4080   -0.9540    0.0000 C.ar    1  LIG1        0.1561
      2 N           0.2040    0.0130    0.0000 N.ar    1  LIG1       -0.2655
      3 C           1.0630    0.5130    0.0000 C.ar    1  LIG1        0.2203
      4 N           1.7960   -0.1500    0.0000 N.ar    1  LIG1       -0.2196
      5 C           1.4000   -1.0580    0.0000 C.ar    1  LIG1        0.1150
      6 C           1.9000   -1.9250    0.0000 C.ar    1  LIG1        0.0207
      7 C           2.8960   -1.9170    0.0000 C.ar    1  LIG1        0.0047
      8 C           3.3960   -2.7790    0.0000 C.ar    1  LIG1        0.0370
      9 C           2.9040   -3.6500    0.0000 C.ar    1  LIG1        0.1387
     10 C           1.9000   -3.6500    0.0000 C.ar    1  LIG1        0.0370
     11 C           1.4000   -2.7830    0.0000 C.ar    1  LIG1        0.0047
     12 O           3.3960   -4.5080    0.0000 O.3     1  LIG1       -0.4714
     13 C           4.3960   -4.5040    0.0000 C.3     1  LIG1        0.2525
     14 C           1.0630    1.5170    0.0000 C.ar    1  LIG1        0.3282
     15 N           0.1920    2.0250    0.0000 N.ar    1  LIG1       -0.1474
     16 C          -0.6710    1.5170    0.0000 C.ar    1  LIG1        0.3099
     17 C          -0.6710    0.5130    0.0000 C.ar    1  LIG1        0.1591
     18 C           0.1920    3.0210    0.0000 C.3     1  LIG1        0.4115
     19 C           1.0580    3.5170    0.0000 C.2     1  LIG1        0.3403
     20 O           1.9210    3.0170    0.0000 O.2     1  LIG1       -0.2640
     21 N           1.0630    4.5080    0.0000 N.am    1  LIG1       -0.0817
     22 N          -0.3080   -1.6630    0.0000 N.pl3   1  LIG1       -0.1938
     23 C          -1.3130   -1.6580    0.0000 C.ar    1  LIG1        0.0754
     24 C          -1.8130   -2.5170    0.0000 C.ar    1  LIG1        0.0567
     25 C          -2.8080   -2.5170    0.0000 C.ar    1  LIG1        0.1777
     26 C          -3.3170   -1.6500    0.0000 C.ar    1  LIG1        0.1765
     27 O          -4.3000   -1.8580    0.0000 O.3     1  LIG1       -0.4346
     28 C          -4.4000   -2.8580    0.0000 C.3     1  LIG1        0.4294
     29 O          -3.4830   -3.2630    0.0000 O.3     1  LIG1       -0.4346
     30 C          -2.8040   -0.7790    0.0000 C.ar    1  LIG1        0.0415
     31 C          -1.8040   -0.7830    0.0000 C.ar    1  LIG1        0.0199
@<TRIPOS>BOND
     1     1     2   ar
     2     1     5   ar
     3     1    22    1
     4     2     3   ar
     5     2    17   ar
     6     3     4   ar
     7     3    14   ar
     8     4     5   ar
     9     5     6    1
    10     6     7   ar
    11     6    11   ar
    12     7     8   ar
    13     8     9   ar
    14     9    10   ar
    15     9    12    1
    16    10    11   ar
    17    12    13    1
    18    14    15   ar
    19    15    16   ar
    20    15    18    1
    21    16    17   ar
    22    18    19    1
    23    19    20    2
    24    19    21   am
    25    22    23    1
    26    23    24   ar
    27    23    31   ar
    28    24    25   ar
    29    25    26   ar
    30    25    29    1
    31    26    27    1
    32    26    30   ar
    33    27    28    1
    34    28    29    1
    35    30    31   ar
