@<TRIPOS>MOLECULE
35998_ChemDiv_C177-0107
 28 33 0 0 0
SMALL
GASTEIGER
Energy = 0

@<TRIPOS>ATOM
      1 C           1.3000   -0.3040    0.0000 C.ar    1  LIG1        0.1163
      2 C           0.3000   -0.2080    0.0000 C.ar    1  LIG1        0.1559
      3 N           0.0830    0.7830    0.0000 N.ar    1  LIG1       -0.2760
      4 C           0.9500    1.2960    0.0000 C.ar    1  LIG1        0.1487
      5 N           1.7000    0.6130    0.0000 N.ar    1  LIG1       -0.2250
      6 C           0.9500    2.3000    0.0000 C.ar    1  LIG1        0.0375
      7 C           0.0830    2.7920    0.0000 C.ar    1  LIG1        0.0046
      8 C          -0.7920    2.3000    0.0000 C.ar    1  LIG1        0.0192
      9 C          -0.7920    1.2960    0.0000 C.ar    1  LIG1        0.0826
     10 N          -0.3540   -0.9580    0.0000 N.pl3   1  LIG1       -0.1938
     11 C          -1.3290   -0.7540    0.0000 C.ar    1  LIG1        0.0754
     12 C          -2.0000   -1.5080    0.0000 C.ar    1  LIG1        0.0567
     13 C          -2.9670   -1.3080    0.0000 C.ar    1  LIG1        0.1777
     14 C          -3.3000   -0.3750    0.0000 C.ar    1  LIG1        0.1765
     15 O          -4.3000   -0.4080    0.0000 O.3     1  LIG1       -0.4346
     16 C          -4.5830   -1.3460    0.0000 C.3     1  LIG1        0.4294
     17 O          -3.7670   -1.9170    0.0000 O.3     1  LIG1       -0.4346
     18 C          -2.6500    0.3830    0.0000 C.ar    1  LIG1        0.0415
     19 C          -1.6630    0.1790    0.0000 C.ar    1  LIG1        0.0199
     20 C           1.7710   -1.1960    0.0000 C.ar    1  LIG1        0.0410
     21 C           1.2790   -2.0830    0.0000 C.ar    1  LIG1        0.1004
     22 N           1.9880   -2.7880    0.0000 N.ar    1  LIG1       -0.2438
     23 C           2.8710   -2.3790    0.0000 C.ar    1  LIG1        0.0814
     24 C           2.7500   -1.3790    0.0000 C.ar    1  LIG1        0.0207
     25 C           3.5540   -0.7920    0.0000 C.ar    1  LIG1        0.0016
     26 C           4.4750   -1.1790    0.0000 C.ar    1  LIG1        0.0001
     27 C           4.5790   -2.1790    0.0000 C.ar    1  LIG1        0.0015
     28 C           3.7960   -2.7630    0.0000 C.ar    1  LIG1        0.0191
@<TRIPOS>BOND
     1     1     2   ar
     2     1     5   ar
     3     1    20    1
     4     2     3   ar
     5     2    10    1
     6     3     4   ar
     7     3     9   ar
     8     4     5   ar
     9     4     6   ar
    10     6     7   ar
    11     7     8   ar
    12     8     9   ar
    13    10    11    1
    14    11    12   ar
    15    11    19   ar
    16    12    13   ar
    17    13    14   ar
    18    13    17    1
    19    14    15    1
    20    14    18   ar
    21    15    16    1
    22    16    17    1
    23    18    19   ar
    24    20    21   ar
    25    20    24   ar
    26    21    22   ar
    27    22    23   ar
    28    23    24   ar
    29    23    28   ar
    30    24    25   ar
    31    25    26   ar
    32    26    27   ar
    33    27    28   ar
