@<TRIPOS>MOLECULE
35994_ChemDiv_C176-0310
 25 27 0 0 0
SMALL
GASTEIGER
Energy = 0

@<TRIPOS>ATOM
      1 C           0.4790   -0.0790    0.0000 C.ar    1  LIG1        0.2343
      2 N          -0.5210   -0.0790    0.0000 N.ar    1  LIG1       -0.1885
      3 C          -0.8380   -1.0380    0.0000 C.ar    1  LIG1        0.2377
      4 O          -0.0210   -1.6170    0.0000 O.2     1  LIG1       -0.4265
      5 C           0.7880   -1.0380    0.0000 C.ar    1  LIG1        0.2088
      6 S           1.7380   -1.3420    0.0000 S.3     1  LIG1       -0.0642
      7 C           1.9420   -2.3250    0.0000 C.3     1  LIG1        0.1534
      8 C           1.1960   -2.9920    0.0000 C.2     1  LIG1        0.2722
      9 O           0.2540   -2.6790    0.0000 O.2     1  LIG1       -0.2707
     10 N           1.4040   -3.9710    0.0000 N.am    1  LIG1       -0.0870
     11 C          -1.7920   -1.3420    0.0000 C.ar    1  LIG1        0.0831
     12 S          -2.1130   -2.3000    0.0000 S.2     1  LIG1       -0.0818
     13 C          -3.1000   -2.3000    0.0000 C.ar    1  LIG1        0.0356
     14 C          -3.4170   -1.3540    0.0000 C.ar    1  LIG1        0.0076
     15 C          -2.6130   -0.7630    0.0000 C.ar    1  LIG1        0.0117
     16 S           1.0630    0.7330    0.0000 S.O2    1  LIG1        0.0474
     17 C           1.6500    1.5460    0.0000 C.ar    1  LIG1        0.1121
     18 C           1.2420    2.4630    0.0000 C.ar    1  LIG1        0.0197
     19 C           1.8380    3.2670    0.0000 C.ar    1  LIG1        0.0127
     20 C           2.8210    3.1580    0.0000 C.ar    1  LIG1        0.0578
     21 C           3.2290    2.2460    0.0000 C.ar    1  LIG1        0.0127
     22 C           2.6540    1.4500    0.0000 C.ar    1  LIG1        0.0197
     23 CL          3.4130    3.9750    0.0000 Cl      1  LIG1       -0.0822
     24 O           0.2210    1.2710    0.0000 O.2     1  LIG1       -0.1627
     25 O           1.9040    0.2040    0.0000 O.2     1  LIG1       -0.1627
@<TRIPOS>BOND
     1     1     2   ar
     2     1     5   ar
     3     1    16    1
     4     2     3   ar
     5     3     4   ar
     6     3    11    1
     7     4     5   ar
     8     5     6    1
     9     6     7    1
    10     7     8    1
    11     8     9    2
    12     8    10   am
    13    11    12   ar
    14    11    15   ar
    15    12    13   ar
    16    13    14   ar
    17    14    15   ar
    18    16    17    1
    19    16    24    2
    20    16    25    2
    21    17    18   ar
    22    17    22   ar
    23    18    19   ar
    24    19    20   ar
    25    20    21   ar
    26    20    23    1
    27    21    22   ar
