@<TRIPOS>MOLECULE
35999_ChemDiv_C169-0389
 28 31 0 0 0
SMALL
GASTEIGER
Energy = 0

@<TRIPOS>ATOM
      1 C           0.5540    0.3670    0.0000 C.ar    1  LIG1        0.1559
      2 N           0.3420    1.3460    0.0000 N.ar    1  LIG1       -0.2732
      3 C           1.2040    1.8460    0.0000 C.ar    1  LIG1        0.1681
      4 N           1.9540    1.1710    0.0000 N.ar    1  LIG1       -0.2235
      5 C           1.5500    0.2710    0.0000 C.ar    1  LIG1        0.1148
      6 C           2.0040   -0.6210    0.0000 C.ar    1  LIG1        0.0205
      7 C           1.4540   -1.4540    0.0000 C.ar    1  LIG1        0.0021
      8 C           1.9080   -2.3580    0.0000 C.ar    1  LIG1        0.0062
      9 C           2.9130   -2.4080    0.0000 C.ar    1  LIG1        0.0252
     10 S           3.3630   -3.2960    0.0000 S.3     1  LIG1       -0.1127
     11 C           4.3630   -3.3460    0.0000 C.3     1  LIG1        0.0742
     12 C           3.4580   -1.5580    0.0000 C.ar    1  LIG1        0.0062
     13 C           3.0040   -0.6670    0.0000 C.ar    1  LIG1        0.0021
     14 C           1.2040    2.8500    0.0000 C.ar    1  LIG1        0.1362
     15 N           0.3420    3.3500    0.0000 N.ar    1  LIG1       -0.2376
     16 C          -0.5210    2.8500    0.0000 C.ar    1  LIG1        0.1180
     17 C          -0.5210    1.8460    0.0000 C.ar    1  LIG1        0.1033
     18 N          -0.1130   -0.3790    0.0000 N.pl3   1  LIG1       -0.1938
     19 C          -1.0880   -0.1750    0.0000 C.ar    1  LIG1        0.0754
     20 C          -1.7460   -0.9250    0.0000 C.ar    1  LIG1        0.0566
     21 C          -2.7210   -0.7250    0.0000 C.ar    1  LIG1        0.1737
     22 C          -3.0500    0.2170    0.0000 C.ar    1  LIG1        0.1725
     23 C          -2.3830    0.9670    0.0000 C.ar    1  LIG1        0.0414
     24 C          -1.4040    0.7710    0.0000 C.ar    1  LIG1        0.0199
     25 O          -4.0330    0.4080    0.0000 O.3     1  LIG1       -0.4684
     26 C          -4.3670    1.3460    0.0000 C.3     1  LIG1        0.2526
     27 O          -3.3830   -1.4670    0.0000 O.3     1  LIG1       -0.4683
     28 C          -3.0630   -2.4210    0.0000 C.3     1  LIG1        0.2526
@<TRIPOS>BOND
     1     1     2   ar
     2     1     5   ar
     3     1    18    1
     4     2     3   ar
     5     2    17   ar
     6     3     4   ar
     7     3    14   ar
     8     4     5   ar
     9     5     6    1
    10     6     7   ar
    11     6    13   ar
    12     7     8   ar
    13     8     9   ar
    14     9    10    1
    15     9    12   ar
    16    10    11    1
    17    12    13   ar
    18    14    15   ar
    19    15    16   ar
    20    16    17   ar
    21    18    19    1
    22    19    20   ar
    23    19    24   ar
    24    20    21   ar
    25    21    22   ar
    26    21    27    1
    27    22    23   ar
    28    22    25    1
    29    23    24   ar
    30    25    26    1
    31    27    28    1
