@<TRIPOS>MOLECULE
36006_ChemDiv_C685-0366
 33 36 0 0 0
SMALL
GASTEIGER
Energy = 0

@<TRIPOS>ATOM
      1 S          -6.0420   -2.0460    0.0000 S.O2    1  LIG1       -0.0018
      2 C          -5.1330   -2.4630    0.0000 C.3     1  LIG1        0.2359
      3 C          -4.4540   -1.7210    0.0000 C.3     1  LIG1        0.3549
      4 N          -3.4750   -1.5170    0.0000 N.2     1  LIG1        0.0735
      5 C          -3.3630   -0.5330    0.0000 C.2     1  LIG1        0.3942
      6 S          -4.2750   -0.1170    0.0000 S.3     1  LIG1       -0.0135
      7 C          -4.9500   -0.8500    0.0000 C.3     1  LIG1        0.1620
      8 C          -5.9330   -1.0460    0.0000 C.3     1  LIG1        0.1696
      9 N          -2.4920   -0.0420    0.0000 N.pl3   1  LIG1       -0.1424
     10 C          -1.6420   -0.5460    0.0000 C.ar    1  LIG1        0.0769
     11 C          -1.6420   -1.5420    0.0000 C.ar    1  LIG1        0.0164
     12 C          -0.7790   -2.0460    0.0000 C.ar    1  LIG1       -0.0024
     13 C           0.0920   -1.5580    0.0000 C.ar    1  LIG1       -0.0129
     14 C           0.9540   -2.0580    0.0000 C.3     1  LIG1        0.1131
     15 C           1.8210   -1.5710    0.0000 C.2     1  LIG1        0.2458
     16 O           1.8210   -0.5710    0.0000 O.2     1  LIG1       -0.2730
     17 N           2.6790   -2.0750    0.0000 N.am    1  LIG1       -0.2051
     18 C           3.5460   -1.5750    0.0000 C.3     1  LIG1        0.1169
     19 C           3.5540   -0.5790    0.0000 C.3     1  LIG1        0.0448
     20 C           4.4210   -0.0790    0.0000 C.3     1  LIG1        0.0926
     21 N           4.4210    0.9080    0.0000 N.pl3   1  LIG1       -0.3074
     22 C           5.2960    1.4130    0.0000 C.ar    1  LIG1        0.0478
     23 C           5.3000    2.4130    0.0000 C.ar    1  LIG1        0.0145
     24 C           6.1750    2.9080    0.0000 C.ar    1  LIG1        0.0013
     25 C           7.0380    2.3960    0.0000 C.ar    1  LIG1        0.0001
     26 C           7.0380    1.4000    0.0000 C.ar    1  LIG1        0.0013
     27 C           6.1630    0.9000    0.0000 C.ar    1  LIG1        0.0145
     28 C           3.5630    1.4250    0.0000 C.3     1  LIG1        0.0908
     29 C           2.6960    0.9130    0.0000 C.3     1  LIG1        0.0232
     30 C           0.1000   -0.5630    0.0000 C.ar    1  LIG1       -0.0024
     31 C          -0.7630   -0.0500    0.0000 C.ar    1  LIG1        0.0164
     32 O          -7.0380   -2.0380    0.0000 O.2     1  LIG1       -0.1727
     33 O          -6.5500   -2.9040    0.0000 O.2     1  LIG1       -0.1727
@<TRIPOS>BOND
     1     1     2    1
     2     1     8    1
     3     1    32    2
     4     1    33    2
     5     2     3    1
     6     3     4    1
     7     3     7    1
     8     4     5    2
     9     5     6    1
    10     5     9    1
    11     6     7    1
    12     7     8    1
    13     9    10    1
    14    10    11   ar
    15    10    31   ar
    16    11    12   ar
    17    12    13   ar
    18    13    14    1
    19    13    30   ar
    20    14    15    1
    21    15    16    2
    22    15    17   am
    23    17    18    1
    24    18    19    1
    25    19    20    1
    26    20    21    1
    27    21    22    1
    28    21    28    1
    29    22    23   ar
    30    22    27   ar
    31    23    24   ar
    32    24    25   ar
    33    25    26   ar
    34    26    27   ar
    35    28    29    1
    36    30    31   ar
