@<TRIPOS>MOLECULE
36004_ChemDiv_C685-0343
 26 28 0 0 0
SMALL
GASTEIGER
Energy = 0

@<TRIPOS>ATOM
      1 S          -5.6000   -0.5670    0.0000 S.O2    1  LIG1       -0.0018
      2 C          -4.6880   -0.9880    0.0000 C.3     1  LIG1        0.2359
      3 C          -4.0080   -0.2460    0.0000 C.3     1  LIG1        0.3549
      4 N          -3.0290   -0.0380    0.0000 N.2     1  LIG1        0.0735
      5 C          -2.9210    0.9460    0.0000 C.2     1  LIG1        0.3942
      6 S          -3.8330    1.3580    0.0000 S.3     1  LIG1       -0.0135
      7 C          -4.5080    0.6290    0.0000 C.3     1  LIG1        0.1620
      8 C          -5.4920    0.4290    0.0000 C.3     1  LIG1        0.1696
      9 N          -2.0460    1.4330    0.0000 N.pl3   1  LIG1       -0.1424
     10 C          -1.1960    0.9290    0.0000 C.ar    1  LIG1        0.0769
     11 C          -1.1960   -0.0630    0.0000 C.ar    1  LIG1        0.0164
     12 C          -0.3330   -0.5670    0.0000 C.ar    1  LIG1       -0.0024
     13 C           0.5420   -0.0830    0.0000 C.ar    1  LIG1       -0.0129
     14 C           1.4040   -0.5830    0.0000 C.3     1  LIG1        0.1131
     15 C           2.2710   -0.0920    0.0000 C.2     1  LIG1        0.2458
     16 O           2.2710    0.9040    0.0000 O.2     1  LIG1       -0.2730
     17 N           3.1250   -0.6000    0.0000 N.am    1  LIG1       -0.2051
     18 C           4.0040   -0.1000    0.0000 C.3     1  LIG1        0.1152
     19 C           4.8670   -0.6130    0.0000 C.3     1  LIG1        0.0234
     20 C           5.7330   -0.1130    0.0000 C.3     1  LIG1        0.0018
     21 C           5.7500    0.8750    0.0000 C.3     1  LIG1        0.0001
     22 C           6.5960   -0.6380    0.0000 C.3     1  LIG1        0.0001
     23 C           0.5460    0.9170    0.0000 C.ar    1  LIG1       -0.0024
     24 C          -0.3170    1.4290    0.0000 C.ar    1  LIG1        0.0164
     25 O          -6.5960   -0.5630    0.0000 O.2     1  LIG1       -0.1727
     26 O          -6.1080   -1.4290    0.0000 O.2     1  LIG1       -0.1727
@<TRIPOS>BOND
     1     1     2    1
     2     1     8    1
     3     1    25    2
     4     1    26    2
     5     2     3    1
     6     3     4    1
     7     3     7    1
     8     4     5    2
     9     5     6    1
    10     5     9    1
    11     6     7    1
    12     7     8    1
    13     9    10    1
    14    10    11   ar
    15    10    24   ar
    16    11    12   ar
    17    12    13   ar
    18    13    14    1
    19    13    23   ar
    20    14    15    1
    21    15    16    2
    22    15    17   am
    23    17    18    1
    24    18    19    1
    25    19    20    1
    26    20    21    1
    27    20    22    1
    28    23    24   ar
