@<TRIPOS>MOLECULE
36008_ChemDiv_C685-0398
 31 35 0 0 0
SMALL
GASTEIGER
Energy = 0

@<TRIPOS>ATOM
      1 S          -5.5960   -0.2290    0.0000 S.O2    1  LIG1       -0.0018
      2 C          -4.6830   -0.6460    0.0000 C.3     1  LIG1        0.2359
      3 C          -4.0040    0.0960    0.0000 C.3     1  LIG1        0.3549
      4 N          -3.0250    0.3000    0.0000 N.2     1  LIG1        0.0735
      5 C          -2.9170    1.2830    0.0000 C.2     1  LIG1        0.3942
      6 S          -3.8290    1.7000    0.0000 S.3     1  LIG1       -0.0135
      7 C          -4.5040    0.9670    0.0000 C.3     1  LIG1        0.1620
      8 C          -5.4880    0.7710    0.0000 C.3     1  LIG1        0.1696
      9 N          -2.0420    1.7750    0.0000 N.pl3   1  LIG1       -0.1424
     10 C          -1.1920    1.2710    0.0000 C.ar    1  LIG1        0.0769
     11 C          -0.3130    1.7670    0.0000 C.ar    1  LIG1        0.0164
     12 C           0.5460    1.2540    0.0000 C.ar    1  LIG1       -0.0024
     13 C           0.5420    0.2580    0.0000 C.ar    1  LIG1       -0.0129
     14 C           1.4040   -0.2420    0.0000 C.3     1  LIG1        0.1131
     15 C           2.2710    0.2460    0.0000 C.2     1  LIG1        0.2461
     16 N           3.1290   -0.2580    0.0000 N.am    1  LIG1       -0.2024
     17 C           3.9500    0.2130    0.0000 C.3     1  LIG1        0.1172
     18 C           4.8210   -0.2710    0.0000 C.ar    1  LIG1       -0.0065
     19 C           5.6830    0.2250    0.0000 C.ar    1  LIG1       -0.0245
     20 C           5.7420    1.2250    0.0000 C.3     1  LIG1        0.0262
     21 C           4.8250    1.7130    0.0000 C.3     1  LIG1        0.0068
     22 C           3.9630    1.2250    0.0000 C.3     1  LIG1        0.0265
     23 C           6.5920   -0.2670    0.0000 C.ar    1  LIG1       -0.0045
     24 C           6.5290   -1.2710    0.0000 C.ar    1  LIG1       -0.0003
     25 C           5.6670   -1.7710    0.0000 C.ar    1  LIG1       -0.0003
     26 C           4.7960   -1.2880    0.0000 C.ar    1  LIG1       -0.0029
     27 O           2.2710    1.2460    0.0000 O.2     1  LIG1       -0.2730
     28 C          -0.3290   -0.2290    0.0000 C.ar    1  LIG1       -0.0024
     29 C          -1.1920    0.2750    0.0000 C.ar    1  LIG1        0.0164
     30 O          -6.5920   -0.2210    0.0000 O.2     1  LIG1       -0.1727
     31 O          -6.1000   -1.0880    0.0000 O.2     1  LIG1       -0.1727
@<TRIPOS>BOND
     1     1     2    1
     2     1     8    1
     3     1    30    2
     4     1    31    2
     5     2     3    1
     6     3     4    1
     7     3     7    1
     8     4     5    2
     9     5     6    1
    10     5     9    1
    11     6     7    1
    12     7     8    1
    13     9    10    1
    14    10    11   ar
    15    10    29   ar
    16    11    12   ar
    17    12    13   ar
    18    13    14    1
    19    13    28   ar
    20    14    15    1
    21    15    16   am
    22    15    27    2
    23    16    17    1
    24    17    18    1
    25    17    22    1
    26    18    19   ar
    27    18    26   ar
    28    19    20    1
    29    19    23   ar
    30    20    21    1
    31    21    22    1
    32    23    24   ar
    33    24    25   ar
    34    25    26   ar
    35    28    29   ar
