@<TRIPOS>MOLECULE
36002_ChemDiv_C685-0237
 33 37 0 0 0
SMALL
GASTEIGER
Energy = 0

@<TRIPOS>ATOM
      1 S          -6.0330   -0.7130    0.0000 S.O2    1  LIG1       -0.0018
      2 C          -5.1250   -1.1380    0.0000 C.3     1  LIG1        0.2359
      3 C          -4.4420   -0.3960    0.0000 C.3     1  LIG1        0.3549
      4 N          -3.4630   -0.1960    0.0000 N.2     1  LIG1        0.0735
      5 C          -3.3540    0.8000    0.0000 C.2     1  LIG1        0.3942
      6 S          -4.2670    1.2080    0.0000 S.3     1  LIG1       -0.0135
      7 C          -4.9420    0.4830    0.0000 C.3     1  LIG1        0.1620
      8 C          -5.9250    0.2750    0.0000 C.3     1  LIG1        0.1696
      9 N          -2.4790    1.2830    0.0000 N.pl3   1  LIG1       -0.1424
     10 C          -1.6250    0.7830    0.0000 C.ar    1  LIG1        0.0770
     11 C          -0.7500    1.2670    0.0000 C.ar    1  LIG1        0.0212
     12 C           0.1130    0.7710    0.0000 C.ar    1  LIG1        0.0549
     13 C           0.9750    1.2670    0.0000 C.2     1  LIG1        0.2492
     14 N           1.8420    0.7540    0.0000 N.am    1  LIG1       -0.2726
     15 C           2.7040    1.2420    0.0000 C.3     1  LIG1        0.1151
     16 C           3.5750    0.7460    0.0000 C.3     1  LIG1        0.1123
     17 N           3.5790   -0.2540    0.0000 N.pl3   1  LIG1       -0.3043
     18 C           4.4380   -0.7460    0.0000 C.ar    1  LIG1        0.0436
     19 C           5.3080   -0.2460    0.0000 C.ar    1  LIG1       -0.0125
     20 C           6.1710   -0.7460    0.0000 C.ar    1  LIG1       -0.0246
     21 C           6.1710   -1.7540    0.0000 C.ar    1  LIG1       -0.0045
     22 C           5.3080   -2.2540    0.0000 C.ar    1  LIG1        0.0009
     23 C           4.4460   -1.7540    0.0000 C.ar    1  LIG1        0.0142
     24 C           7.0330   -0.2460    0.0000 C.3     1  LIG1        0.0307
     25 C           5.2920    0.7540    0.0000 C.3     1  LIG1        0.0320
     26 C           2.7040   -0.7460    0.0000 C.3     1  LIG1        0.1123
     27 C           1.8420   -0.2460    0.0000 C.3     1  LIG1        0.1151
     28 O           0.9920    2.2580    0.0000 O.2     1  LIG1       -0.2699
     29 C           0.1080   -0.2290    0.0000 C.ar    1  LIG1        0.0046
     30 C          -0.7630   -0.7290    0.0000 C.ar    1  LIG1        0.0015
     31 C          -1.6250   -0.2170    0.0000 C.ar    1  LIG1        0.0167
     32 O          -7.0330   -0.7130    0.0000 O.2     1  LIG1       -0.1727
     33 O          -6.5420   -1.5790    0.0000 O.2     1  LIG1       -0.1727
@<TRIPOS>BOND
     1     1     2    1
     2     1     8    1
     3     1    32    2
     4     1    33    2
     5     2     3    1
     6     3     4    1
     7     3     7    1
     8     4     5    2
     9     5     6    1
    10     5     9    1
    11     6     7    1
    12     7     8    1
    13     9    10    1
    14    10    11   ar
    15    10    31   ar
    16    11    12   ar
    17    12    13    1
    18    12    29   ar
    19    13    14   am
    20    13    28    2
    21    14    15    1
    22    14    27    1
    23    15    16    1
    24    16    17    1
    25    17    18    1
    26    17    26    1
    27    18    19   ar
    28    18    23   ar
    29    19    20   ar
    30    19    25    1
    31    20    21   ar
    32    20    24    1
    33    21    22   ar
    34    22    23   ar
    35    26    27    1
    36    29    30   ar
    37    30    31   ar
