@<TRIPOS>MOLECULE
36009_ChemDiv_C143-0138
 22 24 0 0 0
SMALL
GASTEIGER
Energy = 0

@<TRIPOS>ATOM
      1 C           2.0460    2.1880    0.0000 C.ar    1  LIG1        0.1516
      2 C           3.0580    2.1750    0.0000 C.ar    1  LIG1        0.1861
      3 N           3.3750    3.1250    0.0000 N.ar    1  LIG1       -0.2032
      4 C           2.5750    3.7380    0.0000 C.ar    1  LIG1        0.2005
      5 N           1.7500    3.1500    0.0000 N.ar    1  LIG1       -0.2179
      6 N           3.5670    1.2960    0.0000 N.ar    1  LIG1       -0.2031
      7 C           3.0580    0.4250    0.0000 C.ar    1  LIG1        0.2016
      8 N           2.0420    0.4380    0.0000 N.ar    1  LIG1       -0.2059
      9 C           1.5420    1.3080    0.0000 C.ar    1  LIG1        0.1704
     10 N           0.8040    1.3250    0.0000 N.pl3   1  LIG1       -0.2141
     11 C          -0.0750    0.8210    0.0000 C.3     1  LIG1        0.1403
     12 C          -0.0710   -0.1920    0.0000 C.ar    1  LIG1        0.0026
     13 C          -0.9420   -0.6960    0.0000 C.ar    1  LIG1        0.0375
     14 C          -0.9420   -1.7130    0.0000 C.ar    1  LIG1        0.1719
     15 C          -0.0710   -2.2170    0.0000 C.ar    1  LIG1        0.1724
     16 C           0.8130   -1.7130    0.0000 C.ar    1  LIG1        0.0398
     17 C           0.8130   -0.6960    0.0000 C.ar    1  LIG1        0.0008
     18 O          -0.0710   -3.2250    0.0000 O.3     1  LIG1       -0.4684
     19 C          -0.9420   -3.7380    0.0000 C.3     1  LIG1        0.2526
     20 O          -1.8210   -2.2170    0.0000 O.3     1  LIG1       -0.4724
     21 C          -2.6960   -1.7130    0.0000 C.3     1  LIG1        0.2057
     22 C          -3.5710   -2.2170    0.0000 C.3     1  LIG1        0.0512
@<TRIPOS>BOND
     1     1     2   ar
     2     1     5   ar
     3     1     9   ar
     4     2     3   ar
     5     2     6   ar
     6     3     4   ar
     7     4     5   ar
     8     6     7   ar
     9     7     8   ar
    10     8     9   ar
    11     9    10    1
    12    10    11    1
    13    11    12    1
    14    12    13   ar
    15    12    17   ar
    16    13    14   ar
    17    14    15   ar
    18    14    20    1
    19    15    16   ar
    20    15    18    1
    21    16    17   ar
    22    18    19    1
    23    20    21    1
    24    21    22    1
