@<TRIPOS>MOLECULE
36000_ChemDiv_C177-0208
 33 38 0 0 0
SMALL
GASTEIGER
Energy = 0

@<TRIPOS>ATOM
      1 N          -0.2420    1.8960    0.0000 N.ar    1  LIG1       -0.2751
      2 C           0.0710    0.9580    0.0000 C.ar    1  LIG1        0.1558
      3 C           1.0670    0.9580    0.0000 C.ar    1  LIG1        0.1148
      4 N           1.3790    1.9080    0.0000 N.ar    1  LIG1       -0.2251
      5 C           0.5710    2.4880    0.0000 C.ar    1  LIG1        0.1488
      6 C           0.4750    3.4790    0.0000 C.ar    1  LIG1        0.0383
      7 C          -0.4380    3.8960    0.0000 C.ar    1  LIG1        0.0160
      8 C          -1.2540    3.2960    0.0000 C.ar    1  LIG1        0.0753
      9 C          -1.1460    2.3000    0.0000 C.ar    1  LIG1        0.0940
     10 CL         -2.1170    3.8040    0.0000 Cl      1  LIG1       -0.0807
     11 C           1.6960    0.1750    0.0000 C.ar    1  LIG1        0.0206
     12 C           2.6790    0.3290    0.0000 C.ar    1  LIG1        0.0029
     13 C           3.3040   -0.4540    0.0000 C.ar    1  LIG1        0.0146
     14 C           2.9380   -1.3880    0.0000 C.ar    1  LIG1        0.0480
     15 N           3.5630   -2.1750    0.0000 N.pl3   1  LIG1       -0.3028
     16 C           4.5460   -2.0330    0.0000 C.3     1  LIG1        0.1231
     17 C           5.1670   -2.8040    0.0000 C.3     1  LIG1        0.1636
     18 O           4.8040   -3.7420    0.0000 O.3     1  LIG1       -0.3501
     19 C           3.8080   -3.8920    0.0000 C.3     1  LIG1        0.1636
     20 C           3.1920   -3.1000    0.0000 C.3     1  LIG1        0.1231
     21 C           1.9500   -1.5380    0.0000 C.ar    1  LIG1        0.0146
     22 C           1.3250   -0.7540    0.0000 C.ar    1  LIG1        0.0029
     23 N          -0.5880    0.2080    0.0000 N.pl3   1  LIG1       -0.1938
     24 C          -1.5750    0.4170    0.0000 C.ar    1  LIG1        0.0754
     25 C          -2.2460   -0.3210    0.0000 C.ar    1  LIG1        0.0566
     26 C          -3.2250   -0.1040    0.0000 C.ar    1  LIG1        0.1737
     27 C          -3.5290    0.8460    0.0000 C.ar    1  LIG1        0.1725
     28 O          -4.4960    1.0670    0.0000 O.3     1  LIG1       -0.4684
     29 C          -5.1710    0.3290    0.0000 C.3     1  LIG1        0.2526
     30 C          -4.8670   -0.6330    0.0000 C.3     1  LIG1        0.2526
     31 O          -3.8880   -0.8420    0.0000 O.3     1  LIG1       -0.4683
     32 C          -2.8540    1.5920    0.0000 C.ar    1  LIG1        0.0414
     33 C          -1.8830    1.3790    0.0000 C.ar    1  LIG1        0.0199
@<TRIPOS>BOND
     1     1     2   ar
     2     1     5   ar
     3     1     9   ar
     4     2     3   ar
     5     2    23    1
     6     3     4   ar
     7     3    11    1
     8     4     5   ar
     9     5     6   ar
    10     6     7   ar
    11     7     8   ar
    12     8     9   ar
    13     8    10    1
    14    11    12   ar
    15    11    22   ar
    16    12    13   ar
    17    13    14   ar
    18    14    15    1
    19    14    21   ar
    20    15    16    1
    21    15    20    1
    22    16    17    1
    23    17    18    1
    24    18    19    1
    25    19    20    1
    26    21    22   ar
    27    23    24    1
    28    24    25   ar
    29    24    33   ar
    30    25    26   ar
    31    26    27   ar
    32    26    31    1
    33    27    28    1
    34    27    32   ar
    35    28    29    1
    36    29    30    1
    37    30    31    1
    38    32    33   ar
