@<TRIPOS>MOLECULE
36016_ChemDiv_C685-0467
 33 37 0 0 0
SMALL
GASTEIGER
Energy = 0

@<TRIPOS>ATOM
      1 S          -6.4630   -0.2290    0.0000 S.O2    1  LIG1       -0.0018
      2 C          -5.5540   -0.6460    0.0000 C.3     1  LIG1        0.2359
      3 C          -4.8710    0.0960    0.0000 C.3     1  LIG1        0.3549
      4 N          -3.8920    0.3040    0.0000 N.2     1  LIG1        0.0735
      5 C          -3.7830    1.2880    0.0000 C.2     1  LIG1        0.3942
      6 S          -4.6960    1.7000    0.0000 S.3     1  LIG1       -0.0135
      7 C          -5.3710    0.9670    0.0000 C.3     1  LIG1        0.1620
      8 C          -6.3500    0.7710    0.0000 C.3     1  LIG1        0.1696
      9 N          -2.9080    1.7750    0.0000 N.pl3   1  LIG1       -0.1424
     10 C          -2.0540    1.2710    0.0000 C.ar    1  LIG1        0.0769
     11 C          -2.0540    0.2790    0.0000 C.ar    1  LIG1        0.0164
     12 C          -1.1920   -0.2290    0.0000 C.ar    1  LIG1       -0.0024
     13 C          -0.3210    0.2580    0.0000 C.ar    1  LIG1       -0.0130
     14 C           0.5420   -0.2420    0.0000 C.3     1  LIG1        0.1116
     15 C           1.4130    0.2460    0.0000 C.2     1  LIG1        0.2301
     16 N           2.2670   -0.2580    0.0000 N.am    1  LIG1       -0.2793
     17 C           3.1380    0.2330    0.0000 C.3     1  LIG1        0.0934
     18 C           4.0000   -0.2670    0.0000 C.3     1  LIG1        0.0219
     19 C           3.9960   -1.2710    0.0000 C.3     1  LIG1        0.0078
     20 C           4.8580   -1.7710    0.0000 C.3     1  LIG1        0.0265
     21 C           5.7250   -1.2710    0.0000 C.ar    1  LIG1       -0.0222
     22 C           6.5880   -1.7710    0.0000 C.ar    1  LIG1       -0.0043
     23 C           7.4500   -1.2830    0.0000 C.ar    1  LIG1       -0.0003
     24 C           7.4630   -0.2830    0.0000 C.ar    1  LIG1       -0.0000
     25 C           6.5960    0.2250    0.0000 C.ar    1  LIG1       -0.0003
     26 C           5.7250   -0.2670    0.0000 C.ar    1  LIG1       -0.0043
     27 C           3.1290   -1.7670    0.0000 C.3     1  LIG1        0.0219
     28 C           2.2580   -1.2580    0.0000 C.3     1  LIG1        0.0934
     29 O           1.4130    1.2460    0.0000 O.2     1  LIG1       -0.2745
     30 C          -0.3170    1.2540    0.0000 C.ar    1  LIG1       -0.0024
     31 C          -1.1790    1.7710    0.0000 C.ar    1  LIG1        0.0164
     32 O          -7.4630   -0.2210    0.0000 O.2     1  LIG1       -0.1727
     33 O          -6.9710   -1.0920    0.0000 O.2     1  LIG1       -0.1727
@<TRIPOS>BOND
     1     1     2    1
     2     1     8    1
     3     1    32    2
     4     1    33    2
     5     2     3    1
     6     3     4    1
     7     3     7    1
     8     4     5    2
     9     5     6    1
    10     5     9    1
    11     6     7    1
    12     7     8    1
    13     9    10    1
    14    10    11   ar
    15    10    31   ar
    16    11    12   ar
    17    12    13   ar
    18    13    14    1
    19    13    30   ar
    20    14    15    1
    21    15    16   am
    22    15    29    2
    23    16    17    1
    24    16    28    1
    25    17    18    1
    26    18    19    1
    27    19    20    1
    28    19    27    1
    29    20    21    1
    30    21    22   ar
    31    21    26   ar
    32    22    23   ar
    33    23    24   ar
    34    24    25   ar
    35    25    26   ar
    36    27    28    1
    37    30    31   ar
