@<TRIPOS>MOLECULE
36010_ChemDiv_C685-0400
 29 32 0 0 0
SMALL
GASTEIGER
Energy = 0

@<TRIPOS>ATOM
      1 S          -5.5040   -0.7420    0.0000 S.O2    1  LIG1       -0.0018
      2 C          -4.5920   -1.1630    0.0000 C.3     1  LIG1        0.2359
      3 C          -3.9130   -0.4210    0.0000 C.3     1  LIG1        0.3549
      4 N          -2.9330   -0.2130    0.0000 N.2     1  LIG1        0.0735
      5 C          -2.8210    0.7710    0.0000 C.2     1  LIG1        0.3942
      6 S          -3.7330    1.1830    0.0000 S.3     1  LIG1       -0.0135
      7 C          -4.4080    0.4540    0.0000 C.3     1  LIG1        0.1620
      8 C          -5.3920    0.2580    0.0000 C.3     1  LIG1        0.1696
      9 N          -1.9500    1.2580    0.0000 N.pl3   1  LIG1       -0.1424
     10 C          -1.0960    0.7540    0.0000 C.ar    1  LIG1        0.0769
     11 C          -0.2210    1.2540    0.0000 C.ar    1  LIG1        0.0164
     12 C           0.6420    0.7420    0.0000 C.ar    1  LIG1       -0.0024
     13 C           0.6380   -0.2580    0.0000 C.ar    1  LIG1       -0.0129
     14 C           1.5000   -0.7580    0.0000 C.3     1  LIG1        0.1131
     15 C           2.3670   -0.2670    0.0000 C.2     1  LIG1        0.2458
     16 N           3.2250   -0.7710    0.0000 N.am    1  LIG1       -0.2069
     17 C           4.0920   -0.2830    0.0000 C.3     1  LIG1        0.0953
     18 C           3.9710    0.7130    0.0000 C.3     1  LIG1        0.0217
     19 C           4.6040    1.4960    0.0000 C.3     1  LIG1        0.0018
     20 C           5.6080    1.6080    0.0000 C.3     1  LIG1        0.0001
     21 C           6.3880    1.0000    0.0000 C.3     1  LIG1        0.0000
     22 C           6.5000    0.0000    0.0000 C.3     1  LIG1        0.0001
     23 C           5.8790   -0.7830    0.0000 C.3     1  LIG1        0.0018
     24 C           4.8790   -0.8920    0.0000 C.3     1  LIG1        0.0217
     25 O           2.3670    0.7290    0.0000 O.2     1  LIG1       -0.2730
     26 C          -0.2330   -0.7420    0.0000 C.ar    1  LIG1       -0.0024
     27 C          -1.0960   -0.2380    0.0000 C.ar    1  LIG1        0.0164
     28 O          -6.0080   -1.6040    0.0000 O.2     1  LIG1       -0.1727
     29 O          -6.5000   -0.7380    0.0000 O.2     1  LIG1       -0.1727
@<TRIPOS>BOND
     1     1     2    1
     2     1     8    1
     3     1    28    2
     4     1    29    2
     5     2     3    1
     6     3     4    1
     7     3     7    1
     8     4     5    2
     9     5     6    1
    10     5     9    1
    11     6     7    1
    12     7     8    1
    13     9    10    1
    14    10    11   ar
    15    10    27   ar
    16    11    12   ar
    17    12    13   ar
    18    13    14    1
    19    13    26   ar
    20    14    15    1
    21    15    16   am
    22    15    25    2
    23    16    17    1
    24    17    18    1
    25    17    24    1
    26    18    19    1
    27    19    20    1
    28    20    21    1
    29    21    22    1
    30    22    23    1
    31    23    24    1
    32    26    27   ar
