@<TRIPOS>MOLECULE
36018_ChemDiv_C273-0547
 32 37 0 0 0
SMALL
GASTEIGER
Energy = 0

@<TRIPOS>ATOM
      1 N          -1.4130    2.1710    0.0000 N.ar    1  LIG1       -0.2751
      2 C          -1.2000    1.1830    0.0000 C.ar    1  LIG1        0.1558
      3 C          -0.2080    1.0960    0.0000 C.ar    1  LIG1        0.1148
      4 N           0.2000    1.9880    0.0000 N.ar    1  LIG1       -0.2251
      5 C          -0.5500    2.6710    0.0000 C.ar    1  LIG1        0.1488
      6 C          -0.5500    3.6710    0.0000 C.ar    1  LIG1        0.0383
      7 C          -1.4130    4.1670    0.0000 C.ar    1  LIG1        0.0160
      8 C          -2.2830    3.6710    0.0000 C.ar    1  LIG1        0.0753
      9 C          -2.2830    2.6710    0.0000 C.ar    1  LIG1        0.0940
     10 CL         -3.1580    4.1830    0.0000 Cl      1  LIG1       -0.0807
     11 C           0.2540    0.2000    0.0000 C.ar    1  LIG1        0.0206
     12 C           1.2630    0.1540    0.0000 C.ar    1  LIG1        0.0029
     13 C           1.7250   -0.7420    0.0000 C.ar    1  LIG1        0.0146
     14 C           1.1830   -1.5920    0.0000 C.ar    1  LIG1        0.0480
     15 N           1.6710   -2.4500    0.0000 N.pl3   1  LIG1       -0.3028
     16 C           1.1710   -3.3130    0.0000 C.3     1  LIG1        0.1231
     17 C           1.6540   -4.1670    0.0000 C.3     1  LIG1        0.1636
     18 O           2.6500   -4.1830    0.0000 O.3     1  LIG1       -0.3501
     19 C           3.1540   -3.3250    0.0000 C.3     1  LIG1        0.1636
     20 C           2.6670   -2.4500    0.0000 C.3     1  LIG1        0.1231
     21 C           0.1710   -1.5420    0.0000 C.ar    1  LIG1        0.0146
     22 C          -0.2830   -0.6500    0.0000 C.ar    1  LIG1        0.0029
     23 N          -1.8670    0.4420    0.0000 N.pl3   1  LIG1       -0.1938
     24 C          -1.5580   -0.5130    0.0000 C.ar    1  LIG1        0.0754
     25 C          -0.5750   -0.7210    0.0000 C.ar    1  LIG1        0.0567
     26 C          -0.2580   -1.6630    0.0000 C.ar    1  LIG1        0.1777
     27 C          -0.9290   -2.4080    0.0000 C.ar    1  LIG1        0.1765
     28 O          -0.4250   -3.2710    0.0000 O.3     1  LIG1       -0.4346
     29 C           0.5330   -3.0750    0.0000 C.3     1  LIG1        0.4294
     30 O           0.6420   -2.0710    0.0000 O.3     1  LIG1       -0.4346
     31 C          -1.9080   -2.2130    0.0000 C.ar    1  LIG1        0.0415
     32 C          -2.2250   -1.2580    0.0000 C.ar    1  LIG1        0.0199
@<TRIPOS>BOND
     1     1     2   ar
     2     1     5   ar
     3     1     9   ar
     4     2     3   ar
     5     2    23    1
     6     3     4   ar
     7     3    11    1
     8     4     5   ar
     9     5     6   ar
    10     6     7   ar
    11     7     8   ar
    12     8     9   ar
    13     8    10    1
    14    11    12   ar
    15    11    22   ar
    16    12    13   ar
    17    13    14   ar
    18    14    15    1
    19    14    21   ar
    20    15    16    1
    21    15    20    1
    22    16    17    1
    23    17    18    1
    24    18    19    1
    25    19    20    1
    26    21    22   ar
    27    23    24    1
    28    24    25   ar
    29    24    32   ar
    30    25    26   ar
    31    26    27   ar
    32    26    30    1
    33    27    28    1
    34    27    31   ar
    35    28    29    1
    36    29    30    1
    37    31    32   ar
