@<TRIPOS>MOLECULE
36011_ChemDiv_C150-0068
 26 29 0 0 0
SMALL
GASTEIGER
Energy = 0

@<TRIPOS>ATOM
      1 C          -1.9460    0.0000    0.0000 C.ar    1  LIG1        0.0415
      2 C          -1.9460   -1.0000    0.0000 C.ar    1  LIG1        0.1154
      3 S          -0.9960   -1.3000    0.0000 S.2     1  LIG1       -0.0619
      4 C          -0.4130   -0.5130    0.0000 C.ar    1  LIG1        0.1030
      5 C          -0.9960    0.3080    0.0000 C.ar    1  LIG1        0.1015
      6 N          -0.6830    1.2670    0.0000 N.pl3   1  LIG1       -0.1273
      7 C           0.5920   -0.5290    0.0000 C.2     1  LIG1        0.2781
      8 N           1.1000    0.3420    0.0000 N.am    1  LIG1       -0.1500
      9 C           2.1080    0.3330    0.0000 C.ar    1  LIG1        0.1861
     10 N           2.7750    1.0830    0.0000 N.ar    1  LIG1       -0.2225
     11 C           3.6920    0.6670    0.0000 C.ar    1  LIG1        0.0893
     12 C           3.5920   -0.3170    0.0000 C.ar    1  LIG1        0.0498
     13 S           2.6080   -0.5290    0.0000 S.2     1  LIG1       -0.0497
     14 C           4.4040   -0.9000    0.0000 C.ar    1  LIG1        0.0081
     15 C           5.3130   -0.4830    0.0000 C.ar    1  LIG1        0.0006
     16 C           5.4130    0.5000    0.0000 C.ar    1  LIG1        0.0016
     17 C           4.6040    1.0830    0.0000 C.ar    1  LIG1        0.0197
     18 O           1.0750   -1.3960    0.0000 O.2     1  LIG1       -0.2673
     19 N          -2.8130   -1.5000    0.0000 N.ar    1  LIG1       -0.2012
     20 C          -3.6790   -1.0000    0.0000 C.ar    1  LIG1        0.2807
     21 C          -3.6790    0.0000    0.0000 C.ar    1  LIG1        0.0719
     22 C          -2.8130    0.5000    0.0000 C.ar    1  LIG1        0.0093
     23 C          -4.5460    0.5040    0.0000 C.2     1  LIG1        0.0775
     24 O          -4.5460    1.5040    0.0000 O.co2   1  LIG1       -0.5444
     25 O          -5.4170    0.0040    0.0000 O.co2   1  LIG1       -0.5444
     26 O          -4.5460   -1.5000    0.0000 O.2     1  LIG1       -0.2651
@<TRIPOS>BOND
     1     1     2   ar
     2     1     5   ar
     3     1    22   ar
     4     2     3   ar
     5     2    19   ar
     6     3     4   ar
     7     4     5   ar
     8     4     7    1
     9     5     6    1
    10     7     8   am
    11     7    18    2
    12     8     9    1
    13     9    10   ar
    14     9    13   ar
    15    10    11   ar
    16    11    12   ar
    17    11    17   ar
    18    12    13   ar
    19    12    14   ar
    20    14    15   ar
    21    15    16   ar
    22    16    17   ar
    23    19    20   ar
    24    20    21   ar
    25    20    26    2
    26    21    22   ar
    27    21    23    1
    28    23    24   ar
    29    23    25   ar
