@<TRIPOS>MOLECULE
36012_ChemDiv_C685-0436
 29 32 0 0 0
SMALL
GASTEIGER
Energy = 0

@<TRIPOS>ATOM
      1 S          -5.6000    0.2710    0.0000 S.O2    1  LIG1       -0.0018
      2 C          -4.6880   -0.1460    0.0000 C.3     1  LIG1        0.2359
      3 C          -4.0080    0.5960    0.0000 C.3     1  LIG1        0.3549
      4 N          -3.0290    0.8000    0.0000 N.2     1  LIG1        0.0735
      5 C          -2.9170    1.7830    0.0000 C.2     1  LIG1        0.3942
      6 S          -3.8290    2.2000    0.0000 S.3     1  LIG1       -0.0135
      7 C          -4.5080    1.4670    0.0000 C.3     1  LIG1        0.1620
      8 C          -5.4920    1.2710    0.0000 C.3     1  LIG1        0.1696
      9 N          -2.0460    2.2750    0.0000 N.pl3   1  LIG1       -0.1424
     10 C          -1.1920    1.7710    0.0000 C.ar    1  LIG1        0.0769
     11 C          -1.1920    0.7750    0.0000 C.ar    1  LIG1        0.0164
     12 C          -0.3290    0.2710    0.0000 C.ar    1  LIG1       -0.0024
     13 C           0.5420    0.7580    0.0000 C.ar    1  LIG1       -0.0130
     14 C           1.4040    0.2580    0.0000 C.3     1  LIG1        0.1116
     15 C           2.2750    0.7460    0.0000 C.2     1  LIG1        0.2301
     16 N           3.1290    0.2420    0.0000 N.am    1  LIG1       -0.2792
     17 C           3.1290   -0.7580    0.0000 C.3     1  LIG1        0.0939
     18 C           3.9920   -1.2710    0.0000 C.3     1  LIG1        0.0307
     19 C           4.8540   -0.7710    0.0000 C.3     1  LIG1        0.0833
     20 C           5.7250   -1.2710    0.0000 C.2     1  LIG1        0.2604
     21 O           5.7250   -2.2710    0.0000 O.2     1  LIG1       -0.2717
     22 N           6.5960   -0.7710    0.0000 N.am    1  LIG1       -0.0878
     23 C           4.8630    0.2330    0.0000 C.3     1  LIG1        0.0307
     24 C           4.0000    0.7330    0.0000 C.3     1  LIG1        0.0939
     25 O           2.2750    1.7460    0.0000 O.2     1  LIG1       -0.2745
     26 C           0.5460    1.7540    0.0000 C.ar    1  LIG1       -0.0024
     27 C          -0.3170    2.2710    0.0000 C.ar    1  LIG1        0.0164
     28 O          -6.1080   -0.5920    0.0000 O.2     1  LIG1       -0.1727
     29 O          -6.5960    0.2750    0.0000 O.2     1  LIG1       -0.1727
@<TRIPOS>BOND
     1     1     2    1
     2     1     8    1
     3     1    28    2
     4     1    29    2
     5     2     3    1
     6     3     4    1
     7     3     7    1
     8     4     5    2
     9     5     6    1
    10     5     9    1
    11     6     7    1
    12     7     8    1
    13     9    10    1
    14    10    11   ar
    15    10    27   ar
    16    11    12   ar
    17    12    13   ar
    18    13    14    1
    19    13    26   ar
    20    14    15    1
    21    15    16   am
    22    15    25    2
    23    16    17    1
    24    16    24    1
    25    17    18    1
    26    18    19    1
    27    19    20    1
    28    19    23    1
    29    20    21    2
    30    20    22   am
    31    23    24    1
    32    26    27   ar
