@<TRIPOS>MOLECULE
36014_ChemDiv_C685-0438
 30 34 0 0 0
SMALL
GASTEIGER
Energy = 0

@<TRIPOS>ATOM
      1 S          -5.6000   -0.2290    0.0000 S.O2    1  LIG1       -0.0018
      2 C          -4.6880   -0.6460    0.0000 C.3     1  LIG1        0.2359
      3 C          -4.0040    0.0960    0.0000 C.3     1  LIG1        0.3549
      4 N          -3.0290    0.3040    0.0000 N.2     1  LIG1        0.0735
      5 C          -2.9170    1.2830    0.0000 C.2     1  LIG1        0.3942
      6 S          -3.8290    1.7000    0.0000 S.3     1  LIG1       -0.0135
      7 C          -4.5040    0.9670    0.0000 C.3     1  LIG1        0.1620
      8 C          -5.4880    0.7710    0.0000 C.3     1  LIG1        0.1696
      9 N          -2.0460    1.7750    0.0000 N.pl3   1  LIG1       -0.1424
     10 C          -1.1920    1.2710    0.0000 C.ar    1  LIG1        0.0769
     11 C          -0.3170    1.7710    0.0000 C.ar    1  LIG1        0.0164
     12 C           0.5460    1.2540    0.0000 C.ar    1  LIG1       -0.0024
     13 C           0.5420    0.2580    0.0000 C.ar    1  LIG1       -0.0130
     14 C           1.4040   -0.2420    0.0000 C.3     1  LIG1        0.1116
     15 C           2.2710    0.2460    0.0000 C.2     1  LIG1        0.2303
     16 N           3.1290   -0.2580    0.0000 N.am    1  LIG1       -0.2748
     17 C           3.9960    0.2420    0.0000 C.3     1  LIG1        0.1198
     18 C           4.8580   -0.2670    0.0000 C.ar    1  LIG1       -0.0062
     19 C           4.8580   -1.2710    0.0000 C.ar    1  LIG1       -0.0228
     20 C           3.9920   -1.7710    0.0000 C.3     1  LIG1        0.0476
     21 C           3.1210   -1.2540    0.0000 C.3     1  LIG1        0.0984
     22 C           5.7210   -1.7710    0.0000 C.ar    1  LIG1       -0.0045
     23 C           6.5830   -1.2710    0.0000 C.ar    1  LIG1       -0.0003
     24 C           6.5920   -0.2710    0.0000 C.ar    1  LIG1       -0.0003
     25 C           5.7210    0.2330    0.0000 C.ar    1  LIG1       -0.0029
     26 O           2.2710    1.2460    0.0000 O.2     1  LIG1       -0.2745
     27 C          -0.3290   -0.2290    0.0000 C.ar    1  LIG1       -0.0024
     28 C          -1.1920    0.2750    0.0000 C.ar    1  LIG1        0.0164
     29 O          -6.1040   -1.0920    0.0000 O.2     1  LIG1       -0.1727
     30 O          -6.5920   -0.2210    0.0000 O.2     1  LIG1       -0.1727
@<TRIPOS>BOND
     1     1     2    1
     2     1     8    1
     3     1    29    2
     4     1    30    2
     5     2     3    1
     6     3     4    1
     7     3     7    1
     8     4     5    2
     9     5     6    1
    10     5     9    1
    11     6     7    1
    12     7     8    1
    13     9    10    1
    14    10    11   ar
    15    10    28   ar
    16    11    12   ar
    17    12    13   ar
    18    13    14    1
    19    13    27   ar
    20    14    15    1
    21    15    16   am
    22    15    26    2
    23    16    17    1
    24    16    21    1
    25    17    18    1
    26    18    19   ar
    27    18    25   ar
    28    19    20    1
    29    19    22   ar
    30    20    21    1
    31    22    23   ar
    32    23    24   ar
    33    24    25   ar
    34    27    28   ar
