@<TRIPOS>MOLECULE
36019_ChemDiv_C169-0119
 24 27 0 0 0
SMALL
GASTEIGER
Energy = 0

@<TRIPOS>ATOM
      1 C           0.2080    0.2290    0.0000 C.ar    1  LIG1        0.1516
      2 N           0.0080    1.2210    0.0000 N.ar    1  LIG1       -0.2740
      3 C           0.8630    1.7210    0.0000 C.ar    1  LIG1        0.1585
      4 N           1.6080    1.0460    0.0000 N.ar    1  LIG1       -0.2242
      5 C           1.2080    0.1380    0.0000 C.ar    1  LIG1        0.1145
      6 C           1.7500   -0.7040    0.0000 C.ar    1  LIG1        0.0206
      7 C           1.2830   -1.5630    0.0000 C.ar    1  LIG1        0.0039
      8 C           1.8330   -2.4250    0.0000 C.ar    1  LIG1        0.0297
      9 C           2.8330   -2.3750    0.0000 C.ar    1  LIG1        0.1401
     10 C           3.2830   -1.4790    0.0000 C.ar    1  LIG1        0.0297
     11 C           2.7500   -0.6460    0.0000 C.ar    1  LIG1        0.0039
     12 F           3.3830   -3.2250    0.0000 F       1  LIG1       -0.2042
     13 C           0.8630    2.7210    0.0000 C.ar    1  LIG1        0.0712
     14 N           0.0080    3.2250    0.0000 N.ar    1  LIG1       -0.2476
     15 C          -0.8580    2.7210    0.0000 C.ar    1  LIG1        0.1172
     16 C          -0.8580    1.7210    0.0000 C.ar    1  LIG1        0.1032
     17 N          -0.4500   -0.5130    0.0000 N.pl3   1  LIG1       -0.2219
     18 C          -1.4210   -0.3130    0.0000 C.3     1  LIG1        0.0940
     19 C          -2.0880   -1.0790    0.0000 C.3     1  LIG1        0.0216
     20 C          -3.0540   -0.8790    0.0000 C.3     1  LIG1        0.0018
     21 C          -3.3880    0.0580    0.0000 C.3     1  LIG1        0.0001
     22 C          -2.7250    0.8210    0.0000 C.3     1  LIG1        0.0018
     23 C          -1.7540    0.6210    0.0000 C.3     1  LIG1        0.0216
     24 H           1.7420    3.2290    0.0000 H       1  LIG1        0.0867
@<TRIPOS>BOND
     1     1     2   ar
     2     1     5   ar
     3     1    17    1
     4     2     3   ar
     5     2    16   ar
     6     3     4   ar
     7     3    13   ar
     8     4     5   ar
     9     5     6    1
    10     6     7   ar
    11     6    11   ar
    12     7     8   ar
    13     8     9   ar
    14     9    10   ar
    15     9    12    1
    16    10    11   ar
    17    13    14   ar
    18    13    24    1
    19    14    15   ar
    20    15    16   ar
    21    17    18    1
    22    18    19    1
    23    18    23    1
    24    19    20    1
    25    20    21    1
    26    21    22    1
    27    22    23    1
