@<TRIPOS>MOLECULE
36013_ChemDiv_C151-0004
 29 33 0 0 0
SMALL
GASTEIGER
Energy = 0

@<TRIPOS>ATOM
      1 C          -0.0040    0.8580    0.0000 C.2     1  LIG1        0.1705
      2 C           0.8580    0.3540    0.0000 C.3     1  LIG1        0.1447
      3 C           0.8580   -0.6500    0.0000 C.3     1  LIG1        0.2125
      4 N          -0.0040   -1.1420    0.0000 N.4     1  LIG1        0.4517
      5 C          -0.8670   -0.6500    0.0000 C.3     1  LIG1        0.2125
      6 C          -0.8670    0.3540    0.0000 C.3     1  LIG1        0.1447
      7 C          -1.7380    0.8500    0.0000 C.ar    1  LIG1       -0.0093
      8 C          -2.5960    0.3460    0.0000 C.ar    1  LIG1       -0.0036
      9 C          -3.4630    0.8460    0.0000 C.ar    1  LIG1       -0.0003
     10 C          -3.4710    1.8580    0.0000 C.ar    1  LIG1       -0.0000
     11 C          -2.5960    2.3540    0.0000 C.ar    1  LIG1       -0.0003
     12 C          -1.7380    1.8580    0.0000 C.ar    1  LIG1       -0.0036
     13 C          -1.7380   -1.1500    0.0000 C.ar    1  LIG1        0.1799
     14 O          -1.8290   -2.1460    0.0000 O.2     1  LIG1       -0.4488
     15 C          -2.8080   -2.3500    0.0000 C.ar    1  LIG1        0.1794
     16 C          -3.3080   -1.4880    0.0000 C.ar    1  LIG1        0.0436
     17 C          -2.6420   -0.7500    0.0000 C.ar    1  LIG1        0.0422
     18 C           1.7210   -1.1500    0.0000 C.ar    1  LIG1        0.1799
     19 O           1.8250   -2.1290    0.0000 O.2     1  LIG1       -0.4488
     20 C           2.8040   -2.3420    0.0000 C.ar    1  LIG1        0.1794
     21 C           3.3000   -1.4790    0.0000 C.ar    1  LIG1        0.0436
     22 C           2.6380   -0.7420    0.0000 C.ar    1  LIG1        0.0422
     23 C           1.7290    0.8580    0.0000 C.ar    1  LIG1       -0.0093
     24 C           1.7210    1.8580    0.0000 C.ar    1  LIG1       -0.0036
     25 C           2.5920    2.3540    0.0000 C.ar    1  LIG1       -0.0003
     26 C           3.4670    1.8460    0.0000 C.ar    1  LIG1       -0.0000
     27 C           3.4540    0.8460    0.0000 C.ar    1  LIG1       -0.0003
     28 C           2.5920    0.3460    0.0000 C.ar    1  LIG1       -0.0036
     29 O          -0.0040    1.8630    0.0000 O.2     1  LIG1       -0.2949
@<TRIPOS>BOND
     1     1     2    1
     2     1     6    1
     3     1    29    2
     4     2     3    1
     5     2    23    1
     6     3     4    1
     7     3    18    1
     8     4     5    1
     9     5     6    1
    10     5    13    1
    11     6     7    1
    12     7     8   ar
    13     7    12   ar
    14     8     9   ar
    15     9    10   ar
    16    10    11   ar
    17    11    12   ar
    18    13    14   ar
    19    13    17   ar
    20    14    15   ar
    21    15    16   ar
    22    16    17   ar
    23    18    19   ar
    24    18    22   ar
    25    19    20   ar
    26    20    21   ar
    27    21    22   ar
    28    23    24   ar
    29    23    28   ar
    30    24    25   ar
    31    25    26   ar
    32    26    27   ar
    33    27    28   ar
