@<TRIPOS>MOLECULE
36017_ChemDiv_C169-0066
 23 26 0 0 0
SMALL
GASTEIGER
Energy = 0

@<TRIPOS>ATOM
      1 C           0.0330    0.2290    0.0000 C.ar    1  LIG1        0.1516
      2 N          -0.1670    1.2250    0.0000 N.ar    1  LIG1       -0.2740
      3 C           0.6880    1.7250    0.0000 C.ar    1  LIG1        0.1585
      4 N           1.4380    1.0460    0.0000 N.ar    1  LIG1       -0.2242
      5 C           1.0380    0.1420    0.0000 C.ar    1  LIG1        0.1145
      6 C           1.5750   -0.7080    0.0000 C.ar    1  LIG1        0.0205
      7 C           1.1080   -1.5670    0.0000 C.ar    1  LIG1        0.0025
      8 C           1.6580   -2.4290    0.0000 C.ar    1  LIG1        0.0114
      9 C           2.6630   -2.3790    0.0000 C.ar    1  LIG1        0.0577
     10 C           3.1130   -1.4830    0.0000 C.ar    1  LIG1        0.0114
     11 C           2.5790   -0.6460    0.0000 C.ar    1  LIG1        0.0025
     12 CL          3.2130   -3.2290    0.0000 Cl      1  LIG1       -0.0822
     13 C           0.6880    2.7250    0.0000 C.ar    1  LIG1        0.0712
     14 N          -0.1670    3.2290    0.0000 N.ar    1  LIG1       -0.2476
     15 C          -1.0330    2.7250    0.0000 C.ar    1  LIG1        0.1172
     16 C          -1.0330    1.7250    0.0000 C.ar    1  LIG1        0.1032
     17 N          -0.6290   -0.5130    0.0000 N.pl3   1  LIG1       -0.2219
     18 C          -1.5960   -0.3130    0.0000 C.3     1  LIG1        0.0940
     19 C          -2.4000   -0.9130    0.0000 C.3     1  LIG1        0.0216
     20 C          -3.2170   -0.3290    0.0000 C.3     1  LIG1        0.0018
     21 C          -2.9040    0.6040    0.0000 C.3     1  LIG1        0.0018
     22 C          -1.9290    0.6210    0.0000 C.3     1  LIG1        0.0216
     23 H           1.5710    3.2330    0.0000 H       1  LIG1        0.0867
@<TRIPOS>BOND
     1     1     2   ar
     2     1     5   ar
     3     1    17    1
     4     2     3   ar
     5     2    16   ar
     6     3     4   ar
     7     3    13   ar
     8     4     5   ar
     9     5     6    1
    10     6     7   ar
    11     6    11   ar
    12     7     8   ar
    13     8     9   ar
    14     9    10   ar
    15     9    12    1
    16    10    11   ar
    17    13    14   ar
    18    13    23    1
    19    14    15   ar
    20    15    16   ar
    21    17    18    1
    22    18    19    1
    23    18    22    1
    24    19    20    1
    25    20    21    1
    26    21    22    1
