@<TRIPOS>MOLECULE
36021_ChemDiv_C169-0121
 24 26 0 0 0
SMALL
GASTEIGER
Energy = 0

@<TRIPOS>ATOM
      1 C           0.8380    0.2380    0.0000 C.ar    1  LIG1        0.1521
      2 N           0.6380    1.2330    0.0000 N.ar    1  LIG1       -0.2740
      3 C           1.4880    1.7330    0.0000 C.ar    1  LIG1        0.1585
      4 N           2.2380    1.0540    0.0000 N.ar    1  LIG1       -0.2242
      5 C           1.8380    0.1500    0.0000 C.ar    1  LIG1        0.1145
      6 C           2.3750   -0.6960    0.0000 C.ar    1  LIG1        0.0206
      7 C           3.3790   -0.6380    0.0000 C.ar    1  LIG1        0.0039
      8 C           3.9290   -1.4710    0.0000 C.ar    1  LIG1        0.0297
      9 C           3.4790   -2.3710    0.0000 C.ar    1  LIG1        0.1401
     10 C           2.4750   -2.4330    0.0000 C.ar    1  LIG1        0.0297
     11 C           1.9250   -1.5710    0.0000 C.ar    1  LIG1        0.0039
     12 F           4.0420   -3.2380    0.0000 F       1  LIG1       -0.2042
     13 C           1.4880    2.7330    0.0000 C.ar    1  LIG1        0.0712
     14 N           0.6380    3.2330    0.0000 N.ar    1  LIG1       -0.2476
     15 C          -0.2290    2.7330    0.0000 C.ar    1  LIG1        0.1172
     16 C          -0.2290    1.7330    0.0000 C.ar    1  LIG1        0.1032
     17 N           0.1750   -0.5040    0.0000 N.pl3   1  LIG1       -0.2080
     18 C          -0.7960   -0.3000    0.0000 C.3     1  LIG1        0.2227
     19 C          -1.4630   -1.0710    0.0000 C.2     1  LIG1        0.3393
     20 O          -1.1290   -1.9880    0.0000 O.2     1  LIG1       -0.2481
     21 O          -2.4290   -0.8710    0.0000 O.3     1  LIG1       -0.4473
     22 C          -3.0830   -1.6040    0.0000 C.3     1  LIG1        0.2086
     23 C          -4.0460   -1.4330    0.0000 C.3     1  LIG1        0.0513
     24 H           2.3710    3.2420    0.0000 H       1  LIG1        0.0867
@<TRIPOS>BOND
     1     1     2   ar
     2     1     5   ar
     3     1    17    1
     4     2     3   ar
     5     2    16   ar
     6     3     4   ar
     7     3    13   ar
     8     4     5   ar
     9     5     6    1
    10     6     7   ar
    11     6    11   ar
    12     7     8   ar
    13     8     9   ar
    14     9    10   ar
    15     9    12    1
    16    10    11   ar
    17    13    14   ar
    18    13    24    1
    19    14    15   ar
    20    15    16   ar
    21    17    18    1
    22    18    19    1
    23    19    20    2
    24    19    21    1
    25    21    22    1
    26    22    23    1
