@<TRIPOS>MOLECULE
36020_ChemDiv_C273-0549
 25 29 0 0 0
SMALL
GASTEIGER
Energy = 0

@<TRIPOS>ATOM
      1 C          -0.8670    1.0170    0.0000 C.ar    1  LIG1        0.1558
      2 N          -1.0790    1.9960    0.0000 N.ar    1  LIG1       -0.2760
      3 C          -0.2080    2.4920    0.0000 C.ar    1  LIG1        0.1487
      4 N           0.5380    1.8210    0.0000 N.ar    1  LIG1       -0.2251
      5 C           0.1380    0.9170    0.0000 C.ar    1  LIG1        0.1148
      6 C           0.5960    0.0210    0.0000 C.ar    1  LIG1        0.0205
      7 C           1.5960   -0.0290    0.0000 C.ar    1  LIG1        0.0016
      8 C           2.0540   -0.9130    0.0000 C.ar    1  LIG1        0.0000
      9 C           1.5040   -1.7500    0.0000 C.ar    1  LIG1        0.0000
     10 C           0.5080   -1.7080    0.0000 C.ar    1  LIG1        0.0000
     11 C           0.0500   -0.8130    0.0000 C.ar    1  LIG1        0.0016
     12 C          -0.2080    3.5000    0.0000 C.ar    1  LIG1        0.0375
     13 C          -1.0790    3.9920    0.0000 C.ar    1  LIG1        0.0046
     14 C          -1.9460    3.4920    0.0000 C.ar    1  LIG1        0.0192
     15 C          -1.9460    2.4920    0.0000 C.ar    1  LIG1        0.0826
     16 N          -1.5290    0.2580    0.0000 N.pl3   1  LIG1       -0.1938
     17 C          -1.2210   -0.6880    0.0000 C.ar    1  LIG1        0.0754
     18 C          -1.8830   -1.4330    0.0000 C.ar    1  LIG1        0.0567
     19 C          -1.5710   -2.3880    0.0000 C.ar    1  LIG1        0.1777
     20 C          -0.5920   -2.5830    0.0000 C.ar    1  LIG1        0.1765
     21 O          -0.4880   -3.5750    0.0000 O.3     1  LIG1       -0.4346
     22 C          -1.3750   -3.9880    0.0000 C.3     1  LIG1        0.4294
     23 O          -2.0580   -3.2500    0.0000 O.3     1  LIG1       -0.4346
     24 C           0.0710   -1.8420    0.0000 C.ar    1  LIG1        0.0415
     25 C          -0.2380   -0.8920    0.0000 C.ar    1  LIG1        0.0199
@<TRIPOS>BOND
     1     1     2   ar
     2     1     5   ar
     3     1    16    1
     4     2     3   ar
     5     2    15   ar
     6     3     4   ar
     7     3    12   ar
     8     4     5   ar
     9     5     6    1
    10     6     7   ar
    11     6    11   ar
    12     7     8   ar
    13     8     9   ar
    14     9    10   ar
    15    10    11   ar
    16    12    13   ar
    17    13    14   ar
    18    14    15   ar
    19    16    17    1
    20    17    18   ar
    21    17    25   ar
    22    18    19   ar
    23    19    20   ar
    24    19    23    1
    25    20    21    1
    26    20    24   ar
    27    21    22    1
    28    22    23    1
    29    24    25   ar
