@<TRIPOS>MOLECULE
36024_ChemDiv_C488-1182
 32 37 0 0 0
SMALL
GASTEIGER
Energy = 0

@<TRIPOS>ATOM
      1 C           0.1500    1.1630    0.0000 C.ar    1  LIG1        0.1555
      2 N          -0.0630    2.1460    0.0000 N.ar    1  LIG1       -0.2812
      3 C           0.8040    2.6420    0.0000 C.ar    1  LIG1        0.1485
      4 N           1.5460    1.9670    0.0000 N.ar    1  LIG1       -0.2251
      5 C           1.1420    1.0630    0.0000 C.ar    1  LIG1        0.1148
      6 C           1.6460    0.1960    0.0000 C.ar    1  LIG1        0.0206
      7 C           2.6500    0.1830    0.0000 C.ar    1  LIG1        0.0029
      8 C           3.1420   -0.6830    0.0000 C.ar    1  LIG1        0.0146
      9 C           2.6330   -1.5420    0.0000 C.ar    1  LIG1        0.0480
     10 N           3.1170   -2.4000    0.0000 N.pl3   1  LIG1       -0.3028
     11 C           4.1130   -2.4170    0.0000 C.3     1  LIG1        0.1231
     12 C           4.6040   -3.2830    0.0000 C.3     1  LIG1        0.1636
     13 O           4.0920   -4.1420    0.0000 O.3     1  LIG1       -0.3501
     14 C           3.0880   -4.1250    0.0000 C.3     1  LIG1        0.1636
     15 C           2.6040   -3.2670    0.0000 C.3     1  LIG1        0.1231
     16 C           1.6380   -1.5330    0.0000 C.ar    1  LIG1        0.0146
     17 C           1.1420   -0.6630    0.0000 C.ar    1  LIG1        0.0029
     18 C           0.8040    3.6540    0.0000 C.ar    1  LIG1        0.0374
     19 C          -0.0630    4.1420    0.0000 C.ar    1  LIG1        0.0043
     20 C          -0.9380    3.6540    0.0000 C.ar    1  LIG1        0.0133
     21 C          -0.9380    2.6420    0.0000 C.ar    1  LIG1        0.0443
     22 C          -1.8040    2.1460    0.0000 C.3     1  LIG1        0.0505
     23 N          -0.5170    0.4130    0.0000 N.pl3   1  LIG1       -0.1938
     24 C          -1.5210    0.4130    0.0000 C.ar    1  LIG1        0.0754
     25 C          -2.0250    1.2790    0.0000 C.ar    1  LIG1        0.0567
     26 C          -3.0290    1.2790    0.0000 C.ar    1  LIG1        0.1777
     27 C          -3.5210    0.4130    0.0000 C.ar    1  LIG1        0.1765
     28 O          -4.5000    0.6210    0.0000 O.3     1  LIG1       -0.4346
     29 C          -4.6080    1.6170    0.0000 C.3     1  LIG1        0.4294
     30 O          -3.6960    2.0210    0.0000 O.3     1  LIG1       -0.4346
     31 C          -3.0290   -0.4540    0.0000 C.ar    1  LIG1        0.0415
     32 C          -2.0250   -0.4540    0.0000 C.ar    1  LIG1        0.0199
@<TRIPOS>BOND
     1     1     2   ar
     2     1     5   ar
     3     1    23    1
     4     2     3   ar
     5     2    21   ar
     6     3     4   ar
     7     3    18   ar
     8     4     5   ar
     9     5     6    1
    10     6     7   ar
    11     6    17   ar
    12     7     8   ar
    13     8     9   ar
    14     9    10    1
    15     9    16   ar
    16    10    11    1
    17    10    15    1
    18    11    12    1
    19    12    13    1
    20    13    14    1
    21    14    15    1
    22    16    17   ar
    23    18    19   ar
    24    19    20   ar
    25    20    21   ar
    26    21    22    1
    27    23    24    1
    28    24    25   ar
    29    24    32   ar
    30    25    26   ar
    31    26    27   ar
    32    26    30    1
    33    27    28    1
    34    27    31   ar
    35    28    29    1
    36    29    30    1
    37    31    32   ar
