@<TRIPOS>MOLECULE
36023_ChemDiv_C169-0183
 22 24 0 0 0
SMALL
GASTEIGER
Energy = 0

@<TRIPOS>ATOM
      1 N          -0.8000    2.3920    0.0000 N.ar    1  LIG1       -0.2734
      2 C          -0.5880    1.4130    0.0000 C.ar    1  LIG1        0.1516
      3 C           0.4130    1.3170    0.0000 C.ar    1  LIG1        0.1145
      4 N           0.8170    2.2170    0.0000 N.ar    1  LIG1       -0.2235
      5 C           0.0630    2.8920    0.0000 C.ar    1  LIG1        0.1681
      6 C           0.0630    3.9000    0.0000 C.ar    1  LIG1        0.1362
      7 N          -0.8000    4.3960    0.0000 N.ar    1  LIG1       -0.2376
      8 C          -1.6670    3.9000    0.0000 C.ar    1  LIG1        0.1180
      9 C          -1.6670    2.8920    0.0000 C.ar    1  LIG1        0.1033
     10 C           0.8670    0.4210    0.0000 C.ar    1  LIG1        0.0205
     11 C           0.3290   -0.4130    0.0000 C.ar    1  LIG1        0.0016
     12 C           0.7920   -1.3080    0.0000 C.ar    1  LIG1        0.0000
     13 C           1.7880   -1.3500    0.0000 C.ar    1  LIG1        0.0000
     14 C           2.3330   -0.5170    0.0000 C.ar    1  LIG1        0.0000
     15 C           1.8670    0.3750    0.0000 C.ar    1  LIG1        0.0016
     16 N          -1.2540    0.6670    0.0000 N.pl3   1  LIG1       -0.2200
     17 C          -0.9380   -0.2880    0.0000 C.3     1  LIG1        0.1164
     18 C          -1.6040   -1.0290    0.0000 C.3     1  LIG1        0.0554
     19 C          -1.3000   -1.9750    0.0000 C.3     1  LIG1        0.1440
     20 O          -1.9670   -2.7130    0.0000 O.3     1  LIG1       -0.3537
     21 C          -1.6670   -3.6580    0.0000 C.3     1  LIG1        0.1422
     22 C          -2.3380   -4.3960    0.0000 C.3     1  LIG1        0.0346
@<TRIPOS>BOND
     1     1     2   ar
     2     1     5   ar
     3     1     9   ar
     4     2     3   ar
     5     2    16    1
     6     3     4   ar
     7     3    10    1
     8     4     5   ar
     9     5     6   ar
    10     6     7   ar
    11     7     8   ar
    12     8     9   ar
    13    10    11   ar
    14    10    15   ar
    15    11    12   ar
    16    12    13   ar
    17    13    14   ar
    18    14    15   ar
    19    16    17    1
    20    17    18    1
    21    18    19    1
    22    19    20    1
    23    20    21    1
    24    21    22    1
