@<TRIPOS>MOLECULE
36025_ChemDiv_C169-0192
 22 25 0 0 0
SMALL
GASTEIGER
Energy = 0

@<TRIPOS>ATOM
      1 C          -1.0790    0.1580    0.0000 C.ar    1  LIG1        0.1517
      2 C          -0.0830    0.0630    0.0000 C.ar    1  LIG1        0.1176
      3 N           0.3130    0.9750    0.0000 N.ar    1  LIG1       -0.2234
      4 C          -0.4330    1.6420    0.0000 C.ar    1  LIG1        0.1681
      5 N          -1.2920    1.1460    0.0000 N.ar    1  LIG1       -0.2734
      6 C          -2.1630    1.6420    0.0000 C.ar    1  LIG1        0.1033
      7 C          -2.1630    2.6460    0.0000 C.ar    1  LIG1        0.1180
      8 N          -1.2920    3.1460    0.0000 N.ar    1  LIG1       -0.2376
      9 C          -0.4330    2.6460    0.0000 C.ar    1  LIG1        0.1362
     10 C           0.4580   -0.7830    0.0000 C.ar    1  LIG1        0.0594
     11 C           1.4540   -0.7290    0.0000 C.ar    1  LIG1        0.1972
     12 O           2.1580   -0.0170    0.0000 O.3     1  LIG1       -0.2865
     13 C           2.0000   -1.5670    0.0000 C.ar    1  LIG1        0.0421
     14 C           1.5420   -2.4630    0.0000 C.ar    1  LIG1        0.0033
     15 C           0.5420   -2.5170    0.0000 C.ar    1  LIG1        0.0003
     16 C           0.0000   -1.6710    0.0000 C.ar    1  LIG1        0.0048
     17 N          -1.7380   -0.5920    0.0000 N.pl3   1  LIG1       -0.2219
     18 C          -1.4210   -1.5330    0.0000 C.3     1  LIG1        0.0940
     19 C          -0.4670   -1.8290    0.0000 C.3     1  LIG1        0.0216
     20 C          -0.4580   -2.8250    0.0000 C.3     1  LIG1        0.0018
     21 C          -1.4000   -3.1420    0.0000 C.3     1  LIG1        0.0018
     22 C          -1.9960   -2.3460    0.0000 C.3     1  LIG1        0.0216
@<TRIPOS>BOND
     1     1     2   ar
     2     1     5   ar
     3     1    17    1
     4     2     3   ar
     5     2    10    1
     6     3     4   ar
     7     4     5   ar
     8     4     9   ar
     9     5     6   ar
    10     6     7   ar
    11     7     8   ar
    12     8     9   ar
    13    10    11   ar
    14    10    16   ar
    15    11    12    1
    16    11    13   ar
    17    13    14   ar
    18    14    15   ar
    19    15    16   ar
    20    17    18    1
    21    18    19    1
    22    18    22    1
    23    19    20    1
    24    20    21    1
    25    21    22    1
