@<TRIPOS>MOLECULE
36029_ChemDiv_C169-0229
 23 26 0 0 0
SMALL
GASTEIGER
Energy = 0

@<TRIPOS>ATOM
      1 C          -0.2580    0.0540    0.0000 C.ar    1  LIG1        0.1517
      2 C           0.7210    0.2670    0.0000 C.ar    1  LIG1        0.1176
      3 N           0.8250    1.2500    0.0000 N.ar    1  LIG1       -0.2234
      4 C          -0.0830    1.6670    0.0000 C.ar    1  LIG1        0.1681
      5 N          -0.7580    0.9170    0.0000 N.ar    1  LIG1       -0.2734
      6 C          -1.7250    1.1290    0.0000 C.ar    1  LIG1        0.1033
      7 C          -2.0380    2.0750    0.0000 C.ar    1  LIG1        0.1180
      8 N          -1.3580    2.8290    0.0000 N.ar    1  LIG1       -0.2376
      9 C          -0.3880    2.6170    0.0000 C.ar    1  LIG1        0.1362
     10 C           1.5630   -0.2790    0.0000 C.ar    1  LIG1        0.0599
     11 C           2.4460    0.1750    0.0000 C.ar    1  LIG1        0.1972
     12 C           3.2960   -0.3710    0.0000 C.ar    1  LIG1        0.0426
     13 C           3.2330   -1.3710    0.0000 C.ar    1  LIG1        0.0100
     14 C           2.3420   -1.8250    0.0000 C.ar    1  LIG1        0.0348
     15 C           1.5080   -1.2790    0.0000 C.ar    1  LIG1        0.0115
     16 BR          2.3420   -2.8250    0.0000 Br      1  LIG1       -0.0490
     17 O           2.5040    1.1630    0.0000 O.3     1  LIG1       -0.2865
     18 N          -0.7580   -0.8210    0.0000 N.pl3   1  LIG1       -0.2219
     19 C          -1.7540   -0.8210    0.0000 C.3     1  LIG1        0.0940
     20 C          -2.3540   -0.0040    0.0000 C.3     1  LIG1        0.0216
     21 C          -3.3000   -0.3210    0.0000 C.3     1  LIG1        0.0018
     22 C          -3.3000   -1.3210    0.0000 C.3     1  LIG1        0.0018
     23 C          -2.3540   -1.6290    0.0000 C.3     1  LIG1        0.0216
@<TRIPOS>BOND
     1     1     2   ar
     2     1     5   ar
     3     1    18    1
     4     2     3   ar
     5     2    10    1
     6     3     4   ar
     7     4     5   ar
     8     4     9   ar
     9     5     6   ar
    10     6     7   ar
    11     7     8   ar
    12     8     9   ar
    13    10    11   ar
    14    10    15   ar
    15    11    12   ar
    16    11    17    1
    17    12    13   ar
    18    13    14   ar
    19    14    15   ar
    20    14    16    1
    21    18    19    1
    22    19    20    1
    23    19    23    1
    24    20    21    1
    25    21    22    1
    26    22    23    1
