@<TRIPOS>MOLECULE
36026_ChemDiv_C488-1464
 29 33 0 0 0
SMALL
GASTEIGER
Energy = 0

@<TRIPOS>ATOM
      1 N           0.1630    1.7080    0.0000 N.ar    1  LIG1       -0.2751
      2 C           0.3710    0.7330    0.0000 C.ar    1  LIG1        0.1558
      3 C           1.3710    0.6330    0.0000 C.ar    1  LIG1        0.1148
      4 N           1.7670    1.5330    0.0000 N.ar    1  LIG1       -0.2251
      5 C           1.0290    2.2130    0.0000 C.ar    1  LIG1        0.1488
      6 C           1.0290    3.2130    0.0000 C.ar    1  LIG1        0.0383
      7 C           0.1710    3.7080    0.0000 C.ar    1  LIG1        0.0160
      8 C          -0.7040    3.2130    0.0000 C.ar    1  LIG1        0.0753
      9 C          -0.7040    2.2130    0.0000 C.ar    1  LIG1        0.0940
     10 CL         -1.5710    3.7170    0.0000 Cl      1  LIG1       -0.0807
     11 C           1.8670   -0.2330    0.0000 C.ar    1  LIG1        0.0206
     12 C           1.3630   -1.1000    0.0000 C.ar    1  LIG1        0.0029
     13 C           1.8580   -1.9670    0.0000 C.ar    1  LIG1        0.0146
     14 C           2.8630   -1.9830    0.0000 C.ar    1  LIG1        0.0479
     15 N           3.3500   -2.8500    0.0000 N.pl3   1  LIG1       -0.3041
     16 C           2.8460   -3.7130    0.0000 C.3     1  LIG1        0.1122
     17 C           4.3580   -2.8670    0.0000 C.3     1  LIG1        0.1122
     18 C           3.3750   -1.1170    0.0000 C.ar    1  LIG1        0.0146
     19 C           2.8790   -0.2420    0.0000 C.ar    1  LIG1        0.0029
     20 N          -0.2920   -0.0170    0.0000 N.pl3   1  LIG1       -0.1938
     21 C          -1.2920   -0.0170    0.0000 C.ar    1  LIG1        0.0754
     22 C          -1.7960    0.8500    0.0000 C.ar    1  LIG1        0.0567
     23 C          -2.7880    0.8420    0.0000 C.ar    1  LIG1        0.1777
     24 C          -3.2960   -0.0170    0.0000 C.ar    1  LIG1        0.1765
     25 O          -4.2630    0.1880    0.0000 O.3     1  LIG1       -0.4346
     26 C          -4.3630    1.1880    0.0000 C.3     1  LIG1        0.4294
     27 O          -3.4540    1.5920    0.0000 O.3     1  LIG1       -0.4346
     28 C          -2.7880   -0.8790    0.0000 C.ar    1  LIG1        0.0415
     29 C          -1.7880   -0.8790    0.0000 C.ar    1  LIG1        0.0199
@<TRIPOS>BOND
     1     1     2   ar
     2     1     5   ar
     3     1     9   ar
     4     2     3   ar
     5     2    20    1
     6     3     4   ar
     7     3    11    1
     8     4     5   ar
     9     5     6   ar
    10     6     7   ar
    11     7     8   ar
    12     8     9   ar
    13     8    10    1
    14    11    12   ar
    15    11    19   ar
    16    12    13   ar
    17    13    14   ar
    18    14    15    1
    19    14    18   ar
    20    15    16    1
    21    15    17    1
    22    18    19   ar
    23    20    21    1
    24    21    22   ar
    25    21    29   ar
    26    22    23   ar
    27    23    24   ar
    28    23    27    1
    29    24    25    1
    30    24    28   ar
    31    25    26    1
    32    26    27    1
    33    28    29   ar
