@<TRIPOS>MOLECULE
36022_ChemDiv_C488-0896
 32 37 0 0 0
SMALL
GASTEIGER
Energy = 0

@<TRIPOS>ATOM
      1 N          -2.3920    1.0500    0.0000 N.ar    1  LIG1       -0.2763
      2 C          -1.4540    0.7040    0.0000 C.ar    1  LIG1        0.1558
      3 C          -0.8380    1.4790    0.0000 C.ar    1  LIG1        0.1148
      4 N          -1.3880    2.3210    0.0000 N.ar    1  LIG1       -0.2251
      5 C          -2.3460    2.0420    0.0000 C.ar    1  LIG1        0.1487
      6 C          -3.1750    2.5750    0.0000 C.ar    1  LIG1        0.0371
      7 C          -4.0580    2.1250    0.0000 C.ar    1  LIG1        0.0003
      8 C          -4.1080    1.1330    0.0000 C.ar    1  LIG1       -0.0041
      9 C          -3.2710    0.5920    0.0000 C.ar    1  LIG1        0.0783
     10 C          -4.9960    0.6790    0.0000 C.3     1  LIG1        0.0326
     11 C           0.1670    1.4790    0.0000 C.ar    1  LIG1        0.0206
     12 C           0.6710    0.6130    0.0000 C.ar    1  LIG1        0.0029
     13 C           1.6630    0.6040    0.0000 C.ar    1  LIG1        0.0146
     14 C           2.1880    1.4880    0.0000 C.ar    1  LIG1        0.0480
     15 N           3.2000    1.5040    0.0000 N.pl3   1  LIG1       -0.3028
     16 C           3.6830    2.3880    0.0000 C.3     1  LIG1        0.1231
     17 C           4.6960    2.4040    0.0000 C.3     1  LIG1        0.1636
     18 O           5.2210    1.5290    0.0000 O.3     1  LIG1       -0.3501
     19 C           4.7210    0.6500    0.0000 C.3     1  LIG1        0.1636
     20 C           3.7130    0.6290    0.0000 C.3     1  LIG1        0.1231
     21 C           1.6750    2.3500    0.0000 C.ar    1  LIG1        0.0146
     22 C           0.6750    2.3500    0.0000 C.ar    1  LIG1        0.0029
     23 N          -1.3000   -0.2880    0.0000 N.pl3   1  LIG1       -0.1938
     24 C          -2.0790   -0.9290    0.0000 C.ar    1  LIG1        0.0754
     25 C          -2.9750   -0.5580    0.0000 C.ar    1  LIG1        0.0567
     26 C          -3.7790   -1.1710    0.0000 C.ar    1  LIG1        0.1777
     27 C          -3.6500   -2.1500    0.0000 C.ar    1  LIG1        0.1765
     28 O          -4.5460   -2.5710    0.0000 O.3     1  LIG1       -0.4346
     29 C          -5.2250   -1.8500    0.0000 C.3     1  LIG1        0.4294
     30 O          -4.7460   -0.9880    0.0000 O.3     1  LIG1       -0.4346
     31 C          -2.7290   -2.5290    0.0000 C.ar    1  LIG1        0.0415
     32 C          -1.9460   -1.9250    0.0000 C.ar    1  LIG1        0.0199
@<TRIPOS>BOND
     1     1     2   ar
     2     1     5   ar
     3     1     9   ar
     4     2     3   ar
     5     2    23    1
     6     3     4   ar
     7     3    11    1
     8     4     5   ar
     9     5     6   ar
    10     6     7   ar
    11     7     8   ar
    12     8     9   ar
    13     8    10    1
    14    11    12   ar
    15    11    22   ar
    16    12    13   ar
    17    13    14   ar
    18    14    15    1
    19    14    21   ar
    20    15    16    1
    21    15    20    1
    22    16    17    1
    23    17    18    1
    24    18    19    1
    25    19    20    1
    26    21    22   ar
    27    23    24    1
    28    24    25   ar
    29    24    32   ar
    30    25    26   ar
    31    26    27   ar
    32    26    30    1
    33    27    28    1
    34    27    31   ar
    35    28    29    1
    36    29    30    1
    37    31    32   ar
