@<TRIPOS>MOLECULE
36039_ChemDiv_C151-0763
 31 35 0 0 0
SMALL
GASTEIGER
Energy = 0

@<TRIPOS>ATOM
      1 C          -0.0080    1.0080    0.0000 C.2     1  LIG1        0.1703
      2 C          -0.8630    0.5080    0.0000 C.3     1  LIG1        0.1415
      3 C          -0.8630   -0.4920    0.0000 C.3     1  LIG1        0.1792
      4 N          -0.0080   -0.9920    0.0000 N.4     1  LIG1        0.4467
      5 C           0.8540   -0.4920    0.0000 C.3     1  LIG1        0.1792
      6 C           0.8540    0.5080    0.0000 C.3     1  LIG1        0.1415
      7 C           1.7170    1.0080    0.0000 C.ar    1  LIG1       -0.0095
      8 C           2.5920    0.4960    0.0000 C.ar    1  LIG1       -0.0036
      9 C           3.4580    0.9920    0.0000 C.ar    1  LIG1       -0.0003
     10 C           3.4630    2.0000    0.0000 C.ar    1  LIG1       -0.0000
     11 C           2.5830    2.5000    0.0000 C.ar    1  LIG1       -0.0003
     12 C           1.7170    2.0000    0.0000 C.ar    1  LIG1       -0.0036
     13 C           1.7170   -0.9920    0.0000 C.ar    1  LIG1        0.0537
     14 C           1.7170   -1.9960    0.0000 C.ar    1  LIG1        0.1003
     15 N           2.5830   -2.4960    0.0000 N.ar    1  LIG1       -0.2424
     16 C           3.4580   -1.9960    0.0000 C.ar    1  LIG1        0.0989
     17 C           3.4460   -0.9920    0.0000 C.ar    1  LIG1        0.0206
     18 C           2.5830   -0.4920    0.0000 C.ar    1  LIG1        0.0046
     19 C          -1.7380   -0.9920    0.0000 C.ar    1  LIG1        0.0537
     20 C          -1.7290   -1.9960    0.0000 C.ar    1  LIG1        0.1003
     21 N          -2.5880   -2.4960    0.0000 N.ar    1  LIG1       -0.2424
     22 C          -3.4670   -1.9960    0.0000 C.ar    1  LIG1        0.0989
     23 C          -3.4670   -0.9920    0.0000 C.ar    1  LIG1        0.0206
     24 C          -2.6000   -0.4920    0.0000 C.ar    1  LIG1        0.0046
     25 C          -1.7380    0.9960    0.0000 C.ar    1  LIG1       -0.0095
     26 C          -2.5920    0.4960    0.0000 C.ar    1  LIG1       -0.0036
     27 C          -3.4670    0.9920    0.0000 C.ar    1  LIG1       -0.0003
     28 C          -3.4670    1.9920    0.0000 C.ar    1  LIG1       -0.0000
     29 C          -2.6000    2.5000    0.0000 C.ar    1  LIG1       -0.0003
     30 C          -1.7380    2.0000    0.0000 C.ar    1  LIG1       -0.0036
     31 O          -0.0080    2.0080    0.0000 O.2     1  LIG1       -0.2949
@<TRIPOS>BOND
     1     1     2    1
     2     1     6    1
     3     1    31    2
     4     2     3    1
     5     2    25    1
     6     3     4    1
     7     3    19    1
     8     4     5    1
     9     5     6    1
    10     5    13    1
    11     6     7    1
    12     7     8   ar
    13     7    12   ar
    14     8     9   ar
    15     9    10   ar
    16    10    11   ar
    17    11    12   ar
    18    13    14   ar
    19    13    18   ar
    20    14    15   ar
    21    15    16   ar
    22    16    17   ar
    23    17    18   ar
    24    19    20   ar
    25    19    24   ar
    26    20    21   ar
    27    21    22   ar
    28    22    23   ar
    29    23    24   ar
    30    25    26   ar
    31    25    30   ar
    32    26    27   ar
    33    27    28   ar
    34    28    29   ar
    35    29    30   ar
