@<TRIPOS>MOLECULE
36034_ChemDiv_C685-0497
 28 31 0 0 0
SMALL
GASTEIGER
Energy = 0

@<TRIPOS>ATOM
      1 S          -4.7540   -0.2210    0.0000 S.O2    1  LIG1       -0.0018
      2 C          -3.8420   -0.6380    0.0000 C.3     1  LIG1        0.2359
      3 C          -3.1630    0.1040    0.0000 C.3     1  LIG1        0.3549
      4 N          -2.1830    0.3080    0.0000 N.2     1  LIG1        0.0735
      5 C          -2.0710    1.2960    0.0000 C.2     1  LIG1        0.3942
      6 S          -2.9830    1.7080    0.0000 S.3     1  LIG1       -0.0135
      7 C          -3.6630    0.9750    0.0000 C.3     1  LIG1        0.1620
      8 C          -4.6460    0.7790    0.0000 C.3     1  LIG1        0.1696
      9 N          -1.2000    1.7830    0.0000 N.pl3   1  LIG1       -0.1424
     10 C          -0.3460    1.2790    0.0000 C.ar    1  LIG1        0.0769
     11 C          -0.3460    0.2830    0.0000 C.ar    1  LIG1        0.0164
     12 C           0.5170   -0.2210    0.0000 C.ar    1  LIG1       -0.0024
     13 C           1.3920    0.2630    0.0000 C.ar    1  LIG1       -0.0130
     14 C           2.2540   -0.2330    0.0000 C.3     1  LIG1        0.1116
     15 C           3.1210    0.2540    0.0000 C.2     1  LIG1        0.2300
     16 N           3.9790   -0.2500    0.0000 N.am    1  LIG1       -0.2825
     17 C           4.8880    0.2330    0.0000 C.3     1  LIG1        0.0753
     18 C           5.7500   -0.2790    0.0000 C.3     1  LIG1        0.0199
     19 C           5.7380   -1.2790    0.0000 C.3     1  LIG1        0.0034
     20 C           4.8710   -1.7790    0.0000 C.3     1  LIG1        0.0199
     21 C           4.0080   -1.2790    0.0000 C.3     1  LIG1        0.0753
     22 C           3.1630   -1.7500    0.0000 C.3     1  LIG1        0.0215
     23 C           4.8790    1.2040    0.0000 C.3     1  LIG1        0.0215
     24 O           3.1210    1.2540    0.0000 O.2     1  LIG1       -0.2745
     25 C           1.3960    1.2630    0.0000 C.ar    1  LIG1       -0.0024
     26 C           0.5330    1.7790    0.0000 C.ar    1  LIG1        0.0164
     27 O          -5.7540   -0.2170    0.0000 O.2     1  LIG1       -0.1727
     28 O          -5.2670   -1.0830    0.0000 O.2     1  LIG1       -0.1727
@<TRIPOS>BOND
     1     1     2    1
     2     1     8    1
     3     1    27    2
     4     1    28    2
     5     2     3    1
     6     3     4    1
     7     3     7    1
     8     4     5    2
     9     5     6    1
    10     5     9    1
    11     6     7    1
    12     7     8    1
    13     9    10    1
    14    10    11   ar
    15    10    26   ar
    16    11    12   ar
    17    12    13   ar
    18    13    14    1
    19    13    25   ar
    20    14    15    1
    21    15    16   am
    22    15    24    2
    23    16    17    1
    24    16    21    1
    25    17    18    1
    26    17    23    1
    27    18    19    1
    28    19    20    1
    29    20    21    1
    30    21    22    1
    31    25    26   ar
