@<TRIPOS>MOLECULE
36032_ChemDiv_C188-0307
 32 35 0 0 0
SMALL
GASTEIGER
Energy = 0

@<TRIPOS>ATOM
      1 C          -0.2380    2.5540    0.0000 C.ar    1  LIG1        0.1593
      2 C           0.3580    3.3710    0.0000 C.ar    1  LIG1        0.1208
      3 N          -0.2380    4.1960    0.0000 N.ar    1  LIG1       -0.2246
      4 C          -1.2000    3.8790    0.0000 C.ar    1  LIG1        0.1488
      5 N          -1.2000    2.8710    0.0000 N.ar    1  LIG1       -0.2759
      6 C          -2.0710    2.3630    0.0000 C.ar    1  LIG1        0.0826
      7 C          -2.9460    2.8710    0.0000 C.ar    1  LIG1        0.0192
      8 C          -2.9460    3.8790    0.0000 C.ar    1  LIG1        0.0046
      9 C          -2.0710    4.3790    0.0000 C.ar    1  LIG1        0.0375
     10 C           1.3630    3.3710    0.0000 C.ar    1  LIG1        0.0499
     11 S           1.9460    2.5630    0.0000 S.2     1  LIG1       -0.0848
     12 C           2.9250    2.9290    0.0000 C.ar    1  LIG1        0.0355
     13 C           2.8920    3.9000    0.0000 C.ar    1  LIG1        0.0075
     14 C           1.9330    4.1790    0.0000 C.ar    1  LIG1        0.0086
     15 N           0.0830    1.5880    0.0000 N.am    1  LIG1       -0.1563
     16 C          -0.5920    0.8420    0.0000 C.2     1  LIG1        0.2705
     17 C          -0.3960   -0.1380    0.0000 C.ar    1  LIG1        0.0617
     18 C           0.5670   -0.4630    0.0000 C.ar    1  LIG1        0.0448
     19 C           0.7500   -1.4210    0.0000 C.ar    1  LIG1        0.1754
     20 C           0.0170   -2.0830    0.0000 C.ar    1  LIG1        0.2059
     21 C          -0.9420   -1.7790    0.0000 C.ar    1  LIG1        0.1754
     22 C          -1.1290   -0.7960    0.0000 C.ar    1  LIG1        0.0448
     23 O          -1.6920   -2.4500    0.0000 O.3     1  LIG1       -0.4723
     24 C          -2.6380   -2.1420    0.0000 C.3     1  LIG1        0.2057
     25 C          -3.4040   -2.8040    0.0000 C.3     1  LIG1        0.0512
     26 O           0.2170   -3.0630    0.0000 O.3     1  LIG1       -0.4695
     27 C           1.1630   -3.3830    0.0000 C.3     1  LIG1        0.2058
     28 C           1.3670   -4.3790    0.0000 C.3     1  LIG1        0.0512
     29 O           1.7210   -1.7420    0.0000 O.3     1  LIG1       -0.4723
     30 C           2.4500   -1.0880    0.0000 C.3     1  LIG1        0.2057
     31 C           3.4000   -1.3960    0.0000 C.3     1  LIG1        0.0512
     32 O          -1.3750    1.2040    0.0000 O.2     1  LIG1       -0.2680
@<TRIPOS>BOND
     1     1     2   ar
     2     1     5   ar
     3     1    15    1
     4     2     3   ar
     5     2    10    1
     6     3     4   ar
     7     4     5   ar
     8     4     9   ar
     9     5     6   ar
    10     6     7   ar
    11     7     8   ar
    12     8     9   ar
    13    10    11   ar
    14    10    14   ar
    15    11    12   ar
    16    12    13   ar
    17    13    14   ar
    18    15    16   am
    19    16    17    1
    20    16    32    2
    21    17    18   ar
    22    17    22   ar
    23    18    19   ar
    24    19    20   ar
    25    19    29    1
    26    20    21   ar
    27    20    26    1
    28    21    22   ar
    29    21    23    1
    30    23    24    1
    31    24    25    1
    32    26    27    1
    33    27    28    1
    34    29    30    1
    35    30    31    1
