@<TRIPOS>MOLECULE
36031_ChemDiv_C169-0231
 20 23 0 0 0
SMALL
GASTEIGER
Energy = 0

@<TRIPOS>ATOM
      1 C          -0.1710   -0.5420    0.0000 C.ar    1  LIG1        0.1521
      2 C           0.8040   -0.3290    0.0000 C.ar    1  LIG1        0.1205
      3 N           0.9080    0.6540    0.0000 N.ar    1  LIG1       -0.2230
      4 C           0.0000    1.0670    0.0000 C.ar    1  LIG1        0.1681
      5 N          -0.6710    0.3210    0.0000 N.ar    1  LIG1       -0.2734
      6 C          -1.6420    0.5330    0.0000 C.ar    1  LIG1        0.1033
      7 C          -1.9540    1.4790    0.0000 C.ar    1  LIG1        0.1180
      8 N          -1.2750    2.2290    0.0000 N.ar    1  LIG1       -0.2376
      9 C          -0.3040    2.0210    0.0000 C.ar    1  LIG1        0.1362
     10 C           1.6460   -0.8750    0.0000 C.ar    1  LIG1        0.0499
     11 S           1.6960   -1.8750    0.0000 S.2     1  LIG1       -0.0848
     12 C           2.6670   -2.1330    0.0000 C.ar    1  LIG1        0.0355
     13 C           3.2130   -1.3000    0.0000 C.ar    1  LIG1        0.0075
     14 C           2.5920   -0.5210    0.0000 C.ar    1  LIG1        0.0086
     15 N          -0.6710   -1.4170    0.0000 N.pl3   1  LIG1       -0.2219
     16 C          -1.6750   -1.4170    0.0000 C.3     1  LIG1        0.0940
     17 C          -2.2750   -0.6040    0.0000 C.3     1  LIG1        0.0216
     18 C          -3.2170   -0.9170    0.0000 C.3     1  LIG1        0.0018
     19 C          -3.2170   -1.9170    0.0000 C.3     1  LIG1        0.0018
     20 C          -2.2750   -2.2250    0.0000 C.3     1  LIG1        0.0216
@<TRIPOS>BOND
     1     1     2   ar
     2     1     5   ar
     3     1    15    1
     4     2     3   ar
     5     2    10    1
     6     3     4   ar
     7     4     5   ar
     8     4     9   ar
     9     5     6   ar
    10     6     7   ar
    11     7     8   ar
    12     8     9   ar
    13    10    11   ar
    14    10    14   ar
    15    11    12   ar
    16    12    13   ar
    17    13    14   ar
    18    15    16    1
    19    16    17    1
    20    16    20    1
    21    17    18    1
    22    18    19    1
    23    19    20    1
