@<TRIPOS>MOLECULE
36046_ChemDiv_K248-0053
 28 31 0 0 0
SMALL
GASTEIGER
Energy = 0

@<TRIPOS>ATOM
      1 S          -5.1790    1.0210    0.0000 S.O2    1  LIG1       -0.0018
      2 C          -4.2670    1.4290    0.0000 C.3     1  LIG1        0.2359
      3 C          -3.6040    0.6880    0.0000 C.3     1  LIG1        0.3549
      4 N          -2.6250    0.4790    0.0000 N.2     1  LIG1        0.0735
      5 C          -2.5290   -0.5170    0.0000 C.2     1  LIG1        0.3942
      6 S          -3.4380   -0.9250    0.0000 S.3     1  LIG1       -0.0135
      7 C          -4.1000   -0.1750    0.0000 C.3     1  LIG1        0.1620
      8 C          -5.0710    0.0380    0.0000 C.3     1  LIG1        0.1696
      9 N          -1.6670   -1.0170    0.0000 N.pl3   1  LIG1       -0.1424
     10 C          -0.7960   -0.5170    0.0000 C.ar    1  LIG1        0.0769
     11 C          -0.7960    0.4790    0.0000 C.ar    1  LIG1        0.0169
     12 C           0.0710    0.9920    0.0000 C.ar    1  LIG1        0.0059
     13 C           0.9330    0.4880    0.0000 C.ar    1  LIG1        0.0537
     14 C           1.7920    0.9920    0.0000 C.2     1  LIG1        0.2490
     15 N           2.6630    0.4880    0.0000 N.am    1  LIG1       -0.2761
     16 C           3.5250    1.0080    0.0000 C.3     1  LIG1        0.0942
     17 C           4.4000    0.5080    0.0000 C.3     1  LIG1        0.0307
     18 C           4.4000   -0.4880    0.0000 C.3     1  LIG1        0.0833
     19 C           5.2750   -0.9790    0.0000 C.2     1  LIG1        0.2604
     20 O           5.2920   -1.9830    0.0000 O.2     1  LIG1       -0.2717
     21 N           6.1420   -0.4670    0.0000 N.am    1  LIG1       -0.0878
     22 C           3.5330   -1.0080    0.0000 C.3     1  LIG1        0.0307
     23 C           2.6750   -0.5080    0.0000 C.3     1  LIG1        0.0942
     24 O           1.7920    1.9880    0.0000 O.2     1  LIG1       -0.2699
     25 C           0.9330   -0.5170    0.0000 C.ar    1  LIG1        0.0059
     26 C           0.0710   -1.0170    0.0000 C.ar    1  LIG1        0.0169
     27 O          -6.1420    0.7630    0.0000 O.2     1  LIG1       -0.1727
     28 O          -5.4420    1.9880    0.0000 O.2     1  LIG1       -0.1727
@<TRIPOS>BOND
     1     1     2    1
     2     1     8    1
     3     1    27    2
     4     1    28    2
     5     2     3    1
     6     3     4    1
     7     3     7    1
     8     4     5    2
     9     5     6    1
    10     5     9    1
    11     6     7    1
    12     7     8    1
    13     9    10    1
    14    10    11   ar
    15    10    26   ar
    16    11    12   ar
    17    12    13   ar
    18    13    14    1
    19    13    25   ar
    20    14    15   am
    21    14    24    2
    22    15    16    1
    23    15    23    1
    24    16    17    1
    25    17    18    1
    26    18    19    1
    27    18    22    1
    28    19    20    2
    29    19    21   am
    30    22    23    1
    31    25    26   ar
