@<TRIPOS>MOLECULE
36040_ChemDiv_C998-0207
 30 33 0 0 0
SMALL
GASTEIGER
Energy = 0

@<TRIPOS>ATOM
      1 C           1.0130    1.4790    0.0000 C.2     1  LIG1        0.3783
      2 N           1.9710    1.8250    0.0000 N.2     1  LIG1        0.0719
      3 C           1.9130    2.8210    0.0000 C.3     1  LIG1        0.3548
      4 C           0.9420    3.0830    0.0000 C.3     1  LIG1        0.1619
      5 S           0.4250    2.2170    0.0000 S.3     1  LIG1       -0.0150
      6 C           0.8790    4.0790    0.0000 C.3     1  LIG1        0.1696
      7 S           1.7710    4.4420    0.0000 S.O2    1  LIG1       -0.0018
      8 C           2.4330    3.6920    0.0000 C.3     1  LIG1        0.2359
      9 O           2.5880    5.0500    0.0000 O.2     1  LIG1       -0.1727
     10 O           1.2460    5.3000    0.0000 O.2     1  LIG1       -0.1727
     11 N           0.7290    0.5130    0.0000 N.pl3   1  LIG1       -0.2160
     12 C          -0.2580    0.2710    0.0000 C.ar    1  LIG1        0.0570
     13 C          -0.9250    1.0080    0.0000 C.ar    1  LIG1        0.0108
     14 C          -1.8960    0.7830    0.0000 C.ar    1  LIG1       -0.0209
     15 C          -2.1960   -0.1750    0.0000 C.ar    1  LIG1       -0.0084
     16 C          -1.5290   -0.9000    0.0000 C.ar    1  LIG1       -0.0209
     17 C          -0.5630   -0.6880    0.0000 C.ar    1  LIG1        0.0108
     18 C          -1.8630   -1.8500    0.0000 C.3     1  LIG1        0.0311
     19 C          -2.5920    1.5210    0.0000 C.3     1  LIG1        0.0311
     20 C           1.4040   -0.2330    0.0000 C.3     1  LIG1        0.1886
     21 C           1.1040   -1.1830    0.0000 C.2     1  LIG1        0.2663
     22 N           1.7710   -1.9080    0.0000 N.am    1  LIG1       -0.1778
     23 C           1.4670   -2.8710    0.0000 C.ar    1  LIG1        0.0731
     24 C           2.1540   -3.6040    0.0000 C.ar    1  LIG1        0.0123
     25 C           1.8500   -4.5460    0.0000 C.ar    1  LIG1       -0.0206
     26 C           0.8920   -4.7880    0.0000 C.ar    1  LIG1       -0.0042
     27 C           0.1960   -4.0500    0.0000 C.ar    1  LIG1        0.0010
     28 C           0.4960   -3.0920    0.0000 C.ar    1  LIG1        0.0166
     29 C           2.5170   -5.3000    0.0000 C.3     1  LIG1        0.0311
     30 O           0.1250   -1.3960    0.0000 O.2     1  LIG1       -0.2711
@<TRIPOS>BOND
     1     1     2    2
     2     1     5    1
     3     1    11    1
     4     2     3    1
     5     3     4    1
     6     3     8    1
     7     4     5    1
     8     4     6    1
     9     6     7    1
    10     7     8    1
    11     7     9    2
    12     7    10    2
    13    11    12    1
    14    11    20    1
    15    12    13   ar
    16    12    17   ar
    17    13    14   ar
    18    14    15   ar
    19    14    19    1
    20    15    16   ar
    21    16    17   ar
    22    16    18    1
    23    20    21    1
    24    21    22   am
    25    21    30    2
    26    22    23    1
    27    23    24   ar
    28    23    28   ar
    29    24    25   ar
    30    25    26   ar
    31    25    29    1
    32    26    27   ar
    33    27    28   ar
