@<TRIPOS>MOLECULE
36044_ChemDiv_K248-0031
 27 30 0 0 0
SMALL
GASTEIGER
Energy = 0

@<TRIPOS>ATOM
      1 S          -4.9130    0.9080    0.0000 S.O2    1  LIG1       -0.0018
      2 C          -3.9500    1.1670    0.0000 C.3     1  LIG1        0.2359
      3 C          -3.4040    0.3420    0.0000 C.3     1  LIG1        0.3549
      4 N          -2.4670   -0.0080    0.0000 N.2     1  LIG1        0.0735
      5 C          -2.5080   -1.0000    0.0000 C.2     1  LIG1        0.3942
      6 S          -3.4710   -1.2540    0.0000 S.3     1  LIG1       -0.0135
      7 C          -4.0290   -0.4330    0.0000 C.3     1  LIG1        0.1620
      8 C          -4.9580   -0.0750    0.0000 C.3     1  LIG1        0.1696
      9 N          -1.7290   -1.6330    0.0000 N.pl3   1  LIG1       -0.1424
     10 C          -0.7960   -1.2670    0.0000 C.ar    1  LIG1        0.0769
     11 C          -0.0250   -1.8960    0.0000 C.ar    1  LIG1        0.0169
     12 C           0.9170   -1.5290    0.0000 C.ar    1  LIG1        0.0059
     13 C           1.0670   -0.5420    0.0000 C.ar    1  LIG1        0.0551
     14 C           2.0000   -0.1750    0.0000 C.2     1  LIG1        0.2647
     15 N           2.7790   -0.8040    0.0000 N.am    1  LIG1       -0.2034
     16 C           3.7210   -0.4380    0.0000 C.3     1  LIG1        0.0956
     17 C           3.7210    0.5670    0.0000 C.3     1  LIG1        0.0217
     18 C           4.5000    1.1880    0.0000 C.3     1  LIG1        0.0018
     19 C           5.4670    0.9750    0.0000 C.3     1  LIG1        0.0001
     20 C           5.9080    0.0380    0.0000 C.3     1  LIG1        0.0001
     21 C           5.4750   -0.8460    0.0000 C.3     1  LIG1        0.0018
     22 C           4.5000   -1.0630    0.0000 C.3     1  LIG1        0.0217
     23 O           2.1630    0.8170    0.0000 O.2     1  LIG1       -0.2684
     24 C           0.2880    0.0920    0.0000 C.ar    1  LIG1        0.0059
     25 C          -0.6460   -0.2710    0.0000 C.ar    1  LIG1        0.0169
     26 O          -5.9130    0.7710    0.0000 O.2     1  LIG1       -0.1727
     27 O          -5.0460    1.9000    0.0000 O.2     1  LIG1       -0.1727
@<TRIPOS>BOND
     1     1     2    1
     2     1     8    1
     3     1    26    2
     4     1    27    2
     5     2     3    1
     6     3     4    1
     7     3     7    1
     8     4     5    2
     9     5     6    1
    10     5     9    1
    11     6     7    1
    12     7     8    1
    13     9    10    1
    14    10    11   ar
    15    10    25   ar
    16    11    12   ar
    17    12    13   ar
    18    13    14    1
    19    13    24   ar
    20    14    15   am
    21    14    23    2
    22    15    16    1
    23    16    17    1
    24    16    22    1
    25    17    18    1
    26    18    19    1
    27    19    20    1
    28    20    21    1
    29    21    22    1
    30    24    25   ar
