@<TRIPOS>MOLECULE
36049_ChemDiv_C169-0232
 23 26 0 0 0
SMALL
GASTEIGER
Energy = 0

@<TRIPOS>ATOM
      1 C          -0.4790   -0.3330    0.0000 C.ar    1  LIG1        0.1516
      2 N          -0.9330    0.5500    0.0000 N.ar    1  LIG1       -0.2734
      3 C          -0.2330    1.2500    0.0000 C.ar    1  LIG1        0.1681
      4 N           0.6460    0.7920    0.0000 N.ar    1  LIG1       -0.2235
      5 C           0.4880   -0.1960    0.0000 C.ar    1  LIG1        0.1145
      6 C           1.2670   -0.8330    0.0000 C.ar    1  LIG1        0.0213
      7 C           2.2080   -0.4790    0.0000 C.ar    1  LIG1        0.0130
      8 C           2.9880   -1.1170    0.0000 C.ar    1  LIG1        0.0577
      9 CL          3.9330   -0.7750    0.0000 Cl      1  LIG1       -0.0822
     10 C           2.8170   -2.1040    0.0000 C.ar    1  LIG1        0.0114
     11 C           1.8750   -2.4630    0.0000 C.ar    1  LIG1        0.0009
     12 C           1.0960   -1.8250    0.0000 C.ar    1  LIG1        0.0016
     13 C          -0.4920    2.2040    0.0000 C.ar    1  LIG1        0.1362
     14 N          -1.4670    2.4630    0.0000 N.ar    1  LIG1       -0.2376
     15 C          -2.1500    1.7830    0.0000 C.ar    1  LIG1        0.1180
     16 C          -1.8920    0.8080    0.0000 C.ar    1  LIG1        0.1033
     17 N          -0.9330   -1.2460    0.0000 N.pl3   1  LIG1       -0.2219
     18 C          -1.9380   -1.3080    0.0000 C.3     1  LIG1        0.0940
     19 C          -2.4830   -0.4710    0.0000 C.3     1  LIG1        0.0216
     20 C          -3.4880   -0.5290    0.0000 C.3     1  LIG1        0.0018
     21 C          -3.9380   -1.4290    0.0000 C.3     1  LIG1        0.0001
     22 C          -3.3830   -2.2630    0.0000 C.3     1  LIG1        0.0018
     23 C          -2.3790   -2.2040    0.0000 C.3     1  LIG1        0.0216
@<TRIPOS>BOND
     1     1     2   ar
     2     1     5   ar
     3     1    17    1
     4     2     3   ar
     5     2    16   ar
     6     3     4   ar
     7     3    13   ar
     8     4     5   ar
     9     5     6    1
    10     6     7   ar
    11     6    12   ar
    12     7     8   ar
    13     8     9    1
    14     8    10   ar
    15    10    11   ar
    16    11    12   ar
    17    13    14   ar
    18    14    15   ar
    19    15    16   ar
    20    17    18    1
    21    18    19    1
    22    18    23    1
    23    19    20    1
    24    20    21    1
    25    21    22    1
    26    22    23    1
