@<TRIPOS>MOLECULE
36048_ChemDiv_K248-0071
 32 36 0 0 0
SMALL
GASTEIGER
Energy = 0

@<TRIPOS>ATOM
      1 S          -6.0290    0.5380    0.0000 S.O2    1  LIG1       -0.0018
      2 C          -5.1290    0.9460    0.0000 C.3     1  LIG1        0.2359
      3 C          -4.4630    0.2040    0.0000 C.3     1  LIG1        0.3549
      4 N          -3.4830   -0.0080    0.0000 N.2     1  LIG1        0.0735
      5 C          -3.3830   -1.0000    0.0000 C.2     1  LIG1        0.3942
      6 S          -4.2960   -1.4130    0.0000 S.3     1  LIG1       -0.0135
      7 C          -4.9630   -0.6540    0.0000 C.3     1  LIG1        0.1620
      8 C          -5.9330   -0.4460    0.0000 C.3     1  LIG1        0.1696
      9 N          -2.5250   -1.5000    0.0000 N.pl3   1  LIG1       -0.1424
     10 C          -1.6460   -1.0000    0.0000 C.ar    1  LIG1        0.0769
     11 C          -1.6460    0.0000    0.0000 C.ar    1  LIG1        0.0169
     12 C          -0.7830    0.5040    0.0000 C.ar    1  LIG1        0.0059
     13 C           0.0830    0.0130    0.0000 C.ar    1  LIG1        0.0537
     14 C           0.9460    0.5040    0.0000 C.2     1  LIG1        0.2490
     15 N           1.8130    0.0130    0.0000 N.am    1  LIG1       -0.2761
     16 C           2.6750    0.5130    0.0000 C.3     1  LIG1        0.0937
     17 C           3.5380    0.0130    0.0000 C.3     1  LIG1        0.0219
     18 C           3.5380   -0.9920    0.0000 C.3     1  LIG1        0.0078
     19 C           4.4000   -1.4790    0.0000 C.3     1  LIG1        0.0265
     20 C           5.2630   -0.9790    0.0000 C.ar    1  LIG1       -0.0222
     21 C           5.2630    0.0250    0.0000 C.ar    1  LIG1       -0.0043
     22 C           6.1420    0.5250    0.0000 C.ar    1  LIG1       -0.0003
     23 C           7.0040    0.0250    0.0000 C.ar    1  LIG1       -0.0000
     24 C           7.0040   -0.9790    0.0000 C.ar    1  LIG1       -0.0003
     25 C           6.1420   -1.4790    0.0000 C.ar    1  LIG1       -0.0043
     26 C           2.6750   -1.4920    0.0000 C.3     1  LIG1        0.0219
     27 C           1.8130   -0.9920    0.0000 C.3     1  LIG1        0.0937
     28 O           0.9420    1.5040    0.0000 O.2     1  LIG1       -0.2699
     29 C           0.0830   -1.0000    0.0000 C.ar    1  LIG1        0.0059
     30 C          -0.7830   -1.5000    0.0000 C.ar    1  LIG1        0.0169
     31 O          -7.0040    0.2790    0.0000 O.2     1  LIG1       -0.1727
     32 O          -6.2920    1.5040    0.0000 O.2     1  LIG1       -0.1727
@<TRIPOS>BOND
     1     1     2    1
     2     1     8    1
     3     1    31    2
     4     1    32    2
     5     2     3    1
     6     3     4    1
     7     3     7    1
     8     4     5    2
     9     5     6    1
    10     5     9    1
    11     6     7    1
    12     7     8    1
    13     9    10    1
    14    10    11   ar
    15    10    30   ar
    16    11    12   ar
    17    12    13   ar
    18    13    14    1
    19    13    29   ar
    20    14    15   am
    21    14    28    2
    22    15    16    1
    23    15    27    1
    24    16    17    1
    25    17    18    1
    26    18    19    1
    27    18    26    1
    28    19    20    1
    29    20    21   ar
    30    20    25   ar
    31    21    22   ar
    32    22    23   ar
    33    23    24   ar
    34    24    25   ar
    35    26    27    1
    36    29    30   ar
