@<TRIPOS>MOLECULE
36042_ChemDiv_C998-0631
 27 30 0 0 0
SMALL
GASTEIGER
Energy = 0

@<TRIPOS>ATOM
      1 C           1.3000    0.8710    0.0000 C.2     1  LIG1        0.3782
      2 N           2.2580    1.2130    0.0000 N.2     1  LIG1        0.0719
      3 C           2.2000    2.2130    0.0000 C.3     1  LIG1        0.3548
      4 C           1.2290    2.4750    0.0000 C.3     1  LIG1        0.1619
      5 S           0.7170    1.6080    0.0000 S.3     1  LIG1       -0.0150
      6 C           1.1710    3.4750    0.0000 C.3     1  LIG1        0.1696
      7 S           2.0580    3.8420    0.0000 S.O2    1  LIG1       -0.0018
      8 C           2.7250    3.0830    0.0000 C.3     1  LIG1        0.2359
      9 O           2.8750    4.4420    0.0000 O.2     1  LIG1       -0.1727
     10 O           1.5330    4.6960    0.0000 O.2     1  LIG1       -0.1727
     11 N           1.0170   -0.1000    0.0000 N.pl3   1  LIG1       -0.2209
     12 C           0.0290   -0.3420    0.0000 C.ar    1  LIG1        0.0572
     13 C          -0.2750   -1.2790    0.0000 C.ar    1  LIG1        0.0105
     14 C          -1.2460   -1.5130    0.0000 C.ar    1  LIG1       -0.0246
     15 C          -1.9130   -0.7880    0.0000 C.ar    1  LIG1       -0.0257
     16 C          -1.6080    0.1750    0.0000 C.ar    1  LIG1       -0.0033
     17 C          -0.6380    0.3960    0.0000 C.ar    1  LIG1        0.0147
     18 C          -2.8790   -1.0380    0.0000 C.3     1  LIG1        0.0307
     19 C          -1.5790   -2.4630    0.0000 C.3     1  LIG1        0.0307
     20 C           1.6960   -0.8460    0.0000 C.3     1  LIG1        0.1283
     21 C           1.3920   -1.7960    0.0000 C.ar    1  LIG1       -0.0019
     22 C           0.4130   -2.0080    0.0000 C.ar    1  LIG1       -0.0029
     23 C           0.1210   -2.9790    0.0000 C.ar    1  LIG1       -0.0045
     24 C           0.8170   -3.7040    0.0000 C.ar    1  LIG1       -0.0219
     25 C           1.7540   -3.4830    0.0000 C.ar    1  LIG1       -0.0045
     26 C           2.0580   -2.5250    0.0000 C.ar    1  LIG1       -0.0029
     27 C           0.5420   -4.6960    0.0000 C.3     1  LIG1        0.0310
@<TRIPOS>BOND
     1     1     2    2
     2     1     5    1
     3     1    11    1
     4     2     3    1
     5     3     4    1
     6     3     8    1
     7     4     5    1
     8     4     6    1
     9     6     7    1
    10     7     8    1
    11     7     9    2
    12     7    10    2
    13    11    12    1
    14    11    20    1
    15    12    13   ar
    16    12    17   ar
    17    13    14   ar
    18    14    15   ar
    19    14    19    1
    20    15    16   ar
    21    15    18    1
    22    16    17   ar
    23    20    21    1
    24    21    22   ar
    25    21    26   ar
    26    22    23   ar
    27    23    24   ar
    28    24    25   ar
    29    24    27    1
    30    25    26   ar
