@<TRIPOS>MOLECULE
36059_ChemDiv_C169-0197
 22 25 0 0 0
SMALL
GASTEIGER
Energy = 0

@<TRIPOS>ATOM
      1 C           0.3960   -0.2380    0.0000 C.ar    1  LIG1        0.1564
      2 C           1.3920   -0.3380    0.0000 C.ar    1  LIG1        0.1208
      3 N           1.7880    0.5750    0.0000 N.ar    1  LIG1       -0.2230
      4 C           1.0460    1.2460    0.0000 C.ar    1  LIG1        0.1682
      5 N           0.1830    0.7500    0.0000 N.ar    1  LIG1       -0.2731
      6 C          -0.6880    1.2460    0.0000 C.ar    1  LIG1        0.1033
      7 C          -0.6880    2.2460    0.0000 C.ar    1  LIG1        0.1180
      8 N           0.1830    2.7500    0.0000 N.ar    1  LIG1       -0.2376
      9 C           1.0460    2.2460    0.0000 C.ar    1  LIG1        0.1362
     10 C           1.9380   -1.1790    0.0000 C.ar    1  LIG1        0.0499
     11 S           1.5750   -2.1130    0.0000 S.2     1  LIG1       -0.0848
     12 C           2.3500   -2.7460    0.0000 C.ar    1  LIG1        0.0355
     13 C           3.1960   -2.2000    0.0000 C.ar    1  LIG1        0.0075
     14 C           2.9330   -1.2330    0.0000 C.ar    1  LIG1        0.0086
     15 N          -0.2670   -0.9880    0.0000 N.pl3   1  LIG1       -0.1942
     16 C          -1.2420   -0.7960    0.0000 C.ar    1  LIG1        0.0681
     17 C          -1.8960   -1.5420    0.0000 C.ar    1  LIG1       -0.0065
     18 C          -1.5710   -2.4830    0.0000 C.3     1  LIG1        0.0324
     19 C          -2.8710   -1.3460    0.0000 C.ar    1  LIG1       -0.0030
     20 C          -3.2000   -0.4000    0.0000 C.ar    1  LIG1       -0.0002
     21 C          -2.5380    0.3500    0.0000 C.ar    1  LIG1        0.0013
     22 C          -1.5630    0.1540    0.0000 C.ar    1  LIG1        0.0162
@<TRIPOS>BOND
     1     1     2   ar
     2     1     5   ar
     3     1    15    1
     4     2     3   ar
     5     2    10    1
     6     3     4   ar
     7     4     5   ar
     8     4     9   ar
     9     5     6   ar
    10     6     7   ar
    11     7     8   ar
    12     8     9   ar
    13    10    11   ar
    14    10    14   ar
    15    11    12   ar
    16    12    13   ar
    17    13    14   ar
    18    15    16    1
    19    16    17   ar
    20    16    22   ar
    21    17    18    1
    22    17    19   ar
    23    19    20   ar
    24    20    21   ar
    25    21    22   ar
