@<TRIPOS>MOLECULE
36054_ChemDiv_C191-0054
 32 35 0 0 0
SMALL
GASTEIGER
Energy = 0

@<TRIPOS>ATOM
      1 N           0.8500    0.5040    0.0000 N.ar    1  LIG1       -0.2469
      2 C           1.7080    0.9790    0.0000 C.ar    1  LIG1        0.2658
      3 C           1.7170    2.0000    0.0000 C.ar    1  LIG1        0.0773
      4 C           0.8500    2.4830    0.0000 C.ar    1  LIG1        0.0938
      5 N          -0.0170    2.0000    0.0000 N.ar    1  LIG1       -0.1919
      6 C          -0.0170    0.9790    0.0000 C.ar    1  LIG1        0.3524
      7 O          -0.8920    0.4920    0.0000 O.2     1  LIG1       -0.2444
      8 C           0.8710    3.5000    0.0000 C.ar    1  LIG1        0.0594
      9 C           1.7170    3.9790    0.0000 C.ar    1  LIG1        0.1739
     10 C           2.5920    3.5000    0.0000 C.ar    1  LIG1        0.1726
     11 C           2.5920    2.4830    0.0000 C.ar    1  LIG1        0.0463
     12 O           3.4580    4.0040    0.0000 O.3     1  LIG1       -0.4684
     13 C           3.4500    4.9920    0.0000 C.3     1  LIG1        0.2526
     14 O           1.7170    4.9920    0.0000 O.3     1  LIG1       -0.4683
     15 C           2.5920    5.4960    0.0000 C.3     1  LIG1        0.2526
     16 O           2.5790    0.4710    0.0000 O.2     1  LIG1       -0.2668
     17 C           0.8500   -0.5210    0.0000 C.3     1  LIG1        0.1232
     18 C           1.7080   -1.0000    0.0000 C.3     1  LIG1        0.1099
     19 C           1.6920   -2.0170    0.0000 C.2     1  LIG1        0.2279
     20 N           0.8380   -2.5000    0.0000 N.am    1  LIG1       -0.2750
     21 C          -0.0170   -2.0170    0.0000 C.3     1  LIG1        0.1195
     22 C          -0.8920   -2.5000    0.0000 C.2     1  LIG1       -0.0089
     23 C          -0.8920   -3.5170    0.0000 C.2     1  LIG1       -0.0231
     24 C          -0.0170   -4.0000    0.0000 C.3     1  LIG1        0.0476
     25 C           0.8500   -3.5170    0.0000 C.3     1  LIG1        0.0984
     26 C          -1.7380   -4.0000    0.0000 C.ar    1  LIG1       -0.0042
     27 C          -2.5960   -3.5170    0.0000 C.ar    1  LIG1       -0.0003
     28 C          -3.4630   -4.0000    0.0000 C.ar    1  LIG1       -0.0000
     29 C          -3.4630   -5.0170    0.0000 C.ar    1  LIG1       -0.0000
     30 C          -2.5960   -5.4960    0.0000 C.ar    1  LIG1       -0.0000
     31 C          -1.7250   -5.0170    0.0000 C.ar    1  LIG1       -0.0003
     32 O           2.5580   -2.5000    0.0000 O.2     1  LIG1       -0.2748
@<TRIPOS>BOND
     1     1     2   ar
     2     1     6   ar
     3     1    17    1
     4     2     3   ar
     5     2    16    2
     6     3     4   ar
     7     3    11   ar
     8     4     5   ar
     9     4     8   ar
    10     5     6   ar
    11     6     7    2
    12     8     9   ar
    13     9    10   ar
    14     9    14    1
    15    10    11   ar
    16    10    12    1
    17    12    13    1
    18    14    15    1
    19    17    18    1
    20    18    19    1
    21    19    20   am
    22    19    32    2
    23    20    21    1
    24    20    25    1
    25    21    22    1
    26    22    23    2
    27    23    24    1
    28    23    26    1
    29    24    25    1
    30    26    27   ar
    31    26    31   ar
    32    27    28   ar
    33    28    29   ar
    34    29    30   ar
    35    30    31   ar
