@<TRIPOS>MOLECULE
36055_ChemDiv_C169-0331
 27 30 0 0 0
SMALL
GASTEIGER
Energy = 0

@<TRIPOS>ATOM
      1 C          -1.0380   -0.5750    0.0000 C.ar    1  LIG1        0.1518
      2 N          -0.9880    0.4130    0.0000 N.ar    1  LIG1       -0.2658
      3 C          -0.0330    0.6710    0.0000 C.ar    1  LIG1        0.2203
      4 N           0.5210   -0.1500    0.0000 N.ar    1  LIG1       -0.2196
      5 C          -0.1130   -0.9380    0.0000 C.ar    1  LIG1        0.1146
      6 C           0.3000   -1.8460    0.0000 C.ar    1  LIG1        0.0205
      7 C           1.2960   -1.9420    0.0000 C.ar    1  LIG1        0.0021
      8 C           1.7130   -2.8540    0.0000 C.ar    1  LIG1        0.0062
      9 C           1.1290   -3.6710    0.0000 C.ar    1  LIG1        0.0252
     10 S           1.6250   -4.5330    0.0000 S.3     1  LIG1       -0.1127
     11 C           2.6210   -4.5330    0.0000 C.3     1  LIG1        0.0742
     12 C           0.1330   -3.5710    0.0000 C.ar    1  LIG1        0.0062
     13 C          -0.2830   -2.6630    0.0000 C.ar    1  LIG1        0.0021
     14 C           0.2330    1.6330    0.0000 C.ar    1  LIG1        0.3282
     15 N          -0.4750    2.3420    0.0000 N.ar    1  LIG1       -0.1474
     16 C          -1.4420    2.0710    0.0000 C.ar    1  LIG1        0.3099
     17 C          -1.7000    1.1250    0.0000 C.ar    1  LIG1        0.1591
     18 C          -0.2170    3.3130    0.0000 C.3     1  LIG1        0.4115
     19 C           0.7500    3.5670    0.0000 C.2     1  LIG1        0.3403
     20 O           1.0040    4.5330    0.0000 O.2     1  LIG1       -0.2640
     21 N           1.4580    2.8630    0.0000 N.am    1  LIG1       -0.0817
     22 N          -1.8830   -1.1210    0.0000 N.pl3   1  LIG1       -0.2219
     23 C          -1.8420   -2.1290    0.0000 C.3     1  LIG1        0.0940
     24 C          -2.6250   -2.7540    0.0000 C.3     1  LIG1        0.0216
     25 C          -2.2710   -3.6920    0.0000 C.3     1  LIG1        0.0018
     26 C          -1.2670   -3.6460    0.0000 C.3     1  LIG1        0.0018
     27 C          -1.0040   -2.6790    0.0000 C.3     1  LIG1        0.0216
@<TRIPOS>BOND
     1     1     2   ar
     2     1     5   ar
     3     1    22    1
     4     2     3   ar
     5     2    17   ar
     6     3     4   ar
     7     3    14   ar
     8     4     5   ar
     9     5     6    1
    10     6     7   ar
    11     6    13   ar
    12     7     8   ar
    13     8     9   ar
    14     9    10    1
    15     9    12   ar
    16    10    11    1
    17    12    13   ar
    18    14    15   ar
    19    15    16   ar
    20    15    18    1
    21    16    17   ar
    22    18    19    1
    23    19    20    2
    24    19    21   am
    25    22    23    1
    26    23    24    1
    27    23    27    1
    28    24    25    1
    29    25    26    1
    30    26    27    1
