@<TRIPOS>MOLECULE
36056_ChemDiv_C191-0327
 35 38 0 0 0
SMALL
GASTEIGER
Energy = 0

@<TRIPOS>ATOM
      1 N          -0.8790    3.2500    0.0000 N.ar    1  LIG1       -0.2474
      2 C          -0.0080    2.7500    0.0000 C.ar    1  LIG1        0.2658
      3 C           0.8460    3.2500    0.0000 C.ar    1  LIG1        0.0773
      4 C           0.8460    4.2330    0.0000 C.ar    1  LIG1        0.0938
      5 N          -0.0080    4.7460    0.0000 N.ar    1  LIG1       -0.1919
      6 C          -0.8790    4.2330    0.0000 C.ar    1  LIG1        0.3524
      7 O          -1.7670    4.7460    0.0000 O.2     1  LIG1       -0.2444
      8 C           1.7130    4.7460    0.0000 C.ar    1  LIG1        0.0594
      9 C           2.5830    4.2330    0.0000 C.ar    1  LIG1        0.1739
     10 C           2.5830    3.2500    0.0000 C.ar    1  LIG1        0.1726
     11 C           1.7130    2.7500    0.0000 C.ar    1  LIG1        0.0463
     12 O           3.4540    2.7500    0.0000 O.3     1  LIG1       -0.4684
     13 C           4.3210    3.2500    0.0000 C.3     1  LIG1        0.2526
     14 O           3.4540    4.7460    0.0000 O.3     1  LIG1       -0.4683
     15 C           4.3210    4.2330    0.0000 C.3     1  LIG1        0.2526
     16 O          -0.0080    1.7580    0.0000 O.2     1  LIG1       -0.2668
     17 C          -1.7670    2.7500    0.0000 C.3     1  LIG1        0.1136
     18 C          -1.7670    1.7380    0.0000 C.3     1  LIG1        0.0248
     19 C          -2.6380    1.2500    0.0000 C.3     1  LIG1        0.0025
     20 C          -2.6170    0.2420    0.0000 C.3     1  LIG1        0.0096
     21 C          -3.4750   -0.2500    0.0000 C.3     1  LIG1        0.0853
     22 C          -3.4750   -1.2580    0.0000 C.2     1  LIG1        0.2259
     23 N          -2.6080   -1.7500    0.0000 N.am    1  LIG1       -0.2751
     24 C          -2.5880   -2.7580    0.0000 C.3     1  LIG1        0.1195
     25 C          -1.7380   -3.2500    0.0000 C.2     1  LIG1       -0.0089
     26 C          -0.8670   -2.7580    0.0000 C.2     1  LIG1       -0.0231
     27 C          -0.8670   -1.7500    0.0000 C.3     1  LIG1        0.0476
     28 C          -1.7380   -1.2580    0.0000 C.3     1  LIG1        0.0984
     29 C          -0.0080   -3.2500    0.0000 C.ar    1  LIG1       -0.0042
     30 C          -0.0080   -4.2580    0.0000 C.ar    1  LIG1       -0.0003
     31 C           0.8460   -4.7460    0.0000 C.ar    1  LIG1       -0.0000
     32 C           1.7130   -4.2580    0.0000 C.ar    1  LIG1       -0.0000
     33 C           1.7130   -3.2500    0.0000 C.ar    1  LIG1       -0.0000
     34 C           0.8630   -2.7580    0.0000 C.ar    1  LIG1       -0.0003
     35 O          -4.3250   -1.7500    0.0000 O.2     1  LIG1       -0.2749
@<TRIPOS>BOND
     1     1     2   ar
     2     1     6   ar
     3     1    17    1
     4     2     3   ar
     5     2    16    2
     6     3     4   ar
     7     3    11   ar
     8     4     5   ar
     9     4     8   ar
    10     5     6   ar
    11     6     7    2
    12     8     9   ar
    13     9    10   ar
    14     9    14    1
    15    10    11   ar
    16    10    12    1
    17    12    13    1
    18    14    15    1
    19    17    18    1
    20    18    19    1
    21    19    20    1
    22    20    21    1
    23    21    22    1
    24    22    23   am
    25    22    35    2
    26    23    24    1
    27    23    28    1
    28    24    25    1
    29    25    26    2
    30    26    27    1
    31    26    29    1
    32    27    28    1
    33    29    30   ar
    34    29    34   ar
    35    30    31   ar
    36    31    32   ar
    37    32    33   ar
    38    33    34   ar
