@<TRIPOS>MOLECULE
36051_ChemDiv_C169-0259
 23 26 0 0 0
SMALL
GASTEIGER
Energy = 0

@<TRIPOS>ATOM
      1 C          -0.1500   -0.1420    0.0000 C.ar    1  LIG1        0.1516
      2 N          -0.3540    0.8330    0.0000 N.ar    1  LIG1       -0.2734
      3 C           0.5040    1.3290    0.0000 C.ar    1  LIG1        0.1681
      4 N           1.2540    0.6670    0.0000 N.ar    1  LIG1       -0.2235
      5 C           0.8460   -0.2420    0.0000 C.ar    1  LIG1        0.1145
      6 C           1.3540   -1.1040    0.0000 C.ar    1  LIG1        0.0210
      7 C           2.3460   -1.1000    0.0000 C.ar    1  LIG1        0.0083
      8 C           2.8540   -1.9630    0.0000 C.ar    1  LIG1        0.0346
      9 BR          3.8500   -1.9630    0.0000 Br      1  LIG1       -0.0490
     10 C           2.3540   -2.8330    0.0000 C.ar    1  LIG1        0.0067
     11 C           1.3540   -2.8330    0.0000 C.ar    1  LIG1        0.0006
     12 C           0.8500   -1.9710    0.0000 C.ar    1  LIG1        0.0016
     13 C           0.5040    2.3380    0.0000 C.ar    1  LIG1        0.1362
     14 N          -0.3630    2.8380    0.0000 N.ar    1  LIG1       -0.2376
     15 C          -1.2290    2.3380    0.0000 C.ar    1  LIG1        0.1180
     16 C          -1.2290    1.3290    0.0000 C.ar    1  LIG1        0.1033
     17 N          -0.8580   -0.8500    0.0000 N.pl3   1  LIG1       -0.2219
     18 C          -1.8540   -0.8420    0.0000 C.3     1  LIG1        0.0940
     19 C          -2.3580   -1.7040    0.0000 C.3     1  LIG1        0.0216
     20 C          -3.3630   -1.6960    0.0000 C.3     1  LIG1        0.0018
     21 C          -3.8540   -0.8250    0.0000 C.3     1  LIG1        0.0001
     22 C          -3.3460    0.0330    0.0000 C.3     1  LIG1        0.0018
     23 C          -2.3540    0.0290    0.0000 C.3     1  LIG1        0.0216
@<TRIPOS>BOND
     1     1     2   ar
     2     1     5   ar
     3     1    17    1
     4     2     3   ar
     5     2    16   ar
     6     3     4   ar
     7     3    13   ar
     8     4     5   ar
     9     5     6    1
    10     6     7   ar
    11     6    12   ar
    12     7     8   ar
    13     8     9    1
    14     8    10   ar
    15    10    11   ar
    16    11    12   ar
    17    13    14   ar
    18    14    15   ar
    19    15    16   ar
    20    17    18    1
    21    18    19    1
    22    18    23    1
    23    19    20    1
    24    20    21    1
    25    21    22    1
    26    22    23    1
