@<TRIPOS>MOLECULE
36062_ChemDiv_C260-1363
 38 42 0 0 0
SMALL
GASTEIGER
Energy = 0

@<TRIPOS>ATOM
      1 N           0.4290   -0.6210    0.0000 N.ar    1  LIG1       -0.2482
      2 C           0.4290   -1.6170    0.0000 C.ar    1  LIG1        0.3342
      3 N          -0.4380   -2.1170    0.0000 N.ar    1  LIG1       -0.2720
      4 C          -1.3000   -1.6170    0.0000 C.ar    1  LIG1        0.0689
      5 C          -1.3000   -0.6210    0.0000 C.ar    1  LIG1        0.0722
      6 C          -0.4380   -0.1210    0.0000 C.ar    1  LIG1        0.2656
      7 O          -0.4380    0.8790    0.0000 O.2     1  LIG1       -0.2668
      8 C          -2.1630   -0.1210    0.0000 C.ar    1  LIG1        0.0062
      9 C          -3.0380   -0.6210    0.0000 C.ar    1  LIG1        0.0003
     10 C          -3.0380   -1.6170    0.0000 C.ar    1  LIG1        0.0015
     11 C          -2.1630   -2.1170    0.0000 C.ar    1  LIG1        0.0175
     12 C          -0.4380   -3.1170    0.0000 C.3     1  LIG1        0.1975
     13 C           0.4250   -3.6130    0.0000 C.2     1  LIG1        0.2701
     14 N           0.4250   -4.6170    0.0000 N.am    1  LIG1       -0.1569
     15 C           1.2880   -5.1130    0.0000 C.ar    1  LIG1        0.1771
     16 N           2.2290   -4.8080    0.0000 N.ar    1  LIG1       -0.1313
     17 N           2.8210   -5.6210    0.0000 N.ar    1  LIG1       -0.1510
     18 C           2.2290   -6.4290    0.0000 C.ar    1  LIG1        0.0838
     19 C           1.2880   -6.1210    0.0000 C.ar    1  LIG1        0.0545
     20 C           2.5420   -7.3830    0.0000 C.3     1  LIG1        0.0541
     21 O           1.2880   -3.1170    0.0000 O.2     1  LIG1       -0.2708
     22 O           1.3040   -2.1250    0.0000 O.2     1  LIG1       -0.2462
     23 C           1.3040   -0.1210    0.0000 C.3     1  LIG1        0.1231
     24 C           1.3040    0.8790    0.0000 C.3     1  LIG1        0.1099
     25 C           2.1710    1.3790    0.0000 C.2     1  LIG1        0.2279
     26 N           2.1710    2.3830    0.0000 N.am    1  LIG1       -0.2750
     27 C           3.0330    2.8790    0.0000 C.3     1  LIG1        0.1195
     28 C           3.0330    3.8920    0.0000 C.2     1  LIG1       -0.0089
     29 C           2.1710    4.3830    0.0000 C.2     1  LIG1       -0.0231
     30 C           1.3040    3.8920    0.0000 C.3     1  LIG1        0.0476
     31 C           1.3040    2.8790    0.0000 C.3     1  LIG1        0.0984
     32 C           2.1710    5.3830    0.0000 C.ar    1  LIG1       -0.0042
     33 C           1.3040    5.8830    0.0000 C.ar    1  LIG1       -0.0003
     34 C           1.3040    6.8880    0.0000 C.ar    1  LIG1       -0.0000
     35 C           2.1710    7.3830    0.0000 C.ar    1  LIG1       -0.0000
     36 C           3.0330    6.8880    0.0000 C.ar    1  LIG1       -0.0000
     37 C           3.0330    5.8830    0.0000 C.ar    1  LIG1       -0.0003
     38 O           3.0330    0.8790    0.0000 O.2     1  LIG1       -0.2748
@<TRIPOS>BOND
     1     1     2   ar
     2     1     6   ar
     3     1    23    1
     4     2     3   ar
     5     2    22    2
     6     3     4   ar
     7     3    12    1
     8     4     5   ar
     9     4    11   ar
    10     5     6   ar
    11     5     8   ar
    12     6     7    2
    13     8     9   ar
    14     9    10   ar
    15    10    11   ar
    16    12    13    1
    17    13    14   am
    18    13    21    2
    19    14    15    1
    20    15    16   ar
    21    15    19   ar
    22    16    17   ar
    23    17    18   ar
    24    18    19   ar
    25    18    20    1
    26    23    24    1
    27    24    25    1
    28    25    26   am
    29    25    38    2
    30    26    27    1
    31    26    31    1
    32    27    28    1
    33    28    29    2
    34    29    30    1
    35    29    32    1
    36    30    31    1
    37    32    33   ar
    38    32    37   ar
    39    33    34   ar
    40    34    35   ar
    41    35    36   ar
    42    36    37   ar
