@<TRIPOS>MOLECULE
36068_ChemDiv_K248-0112
 31 35 0 0 0
SMALL
GASTEIGER
Energy = 0

@<TRIPOS>ATOM
      1 S          -5.5040    1.3330    0.0000 S.O2    1  LIG1       -0.0018
      2 C          -4.5960    1.7420    0.0000 C.3     1  LIG1        0.2359
      3 C          -3.9210    1.0000    0.0000 C.3     1  LIG1        0.3549
      4 N          -2.9460    0.7880    0.0000 N.2     1  LIG1        0.0735
      5 C          -2.8460   -0.2080    0.0000 C.2     1  LIG1        0.3942
      6 S          -3.7460   -0.6130    0.0000 S.3     1  LIG1       -0.0135
      7 C          -4.4210    0.1380    0.0000 C.3     1  LIG1        0.1620
      8 C          -5.3960    0.3500    0.0000 C.3     1  LIG1        0.1696
      9 N          -1.9830   -0.7250    0.0000 N.pl3   1  LIG1       -0.1415
     10 C          -1.1130   -0.2330    0.0000 C.ar    1  LIG1        0.0876
     11 C          -0.2500   -0.7420    0.0000 C.ar    1  LIG1        0.0221
     12 C           0.6250   -0.2540    0.0000 C.ar    1  LIG1        0.0564
     13 C           1.4880   -0.7790    0.0000 C.2     1  LIG1        0.2651
     14 N           1.4670   -1.7830    0.0000 N.am    1  LIG1       -0.1968
     15 C           2.3380   -2.2920    0.0000 C.3     1  LIG1        0.1419
     16 C           3.2000   -1.7960    0.0000 C.ar    1  LIG1        0.0027
     17 C           4.0630   -2.3000    0.0000 C.ar    1  LIG1        0.0376
     18 C           4.9330   -1.8000    0.0000 C.ar    1  LIG1        0.1762
     19 C           4.9330   -0.8000    0.0000 C.ar    1  LIG1        0.1764
     20 O           5.8790   -0.4960    0.0000 O.3     1  LIG1       -0.4346
     21 C           6.4670   -1.3000    0.0000 C.3     1  LIG1        0.4294
     22 O           5.8790   -2.1130    0.0000 O.3     1  LIG1       -0.4346
     23 C           4.0630   -0.3000    0.0000 C.ar    1  LIG1        0.0399
     24 C           3.2000   -0.8000    0.0000 C.ar    1  LIG1        0.0008
     25 O           2.3500   -0.2830    0.0000 O.2     1  LIG1       -0.2684
     26 C           0.6420    0.7460    0.0000 C.ar    1  LIG1        0.0055
     27 C          -0.2250    1.2630    0.0000 C.ar    1  LIG1        0.0129
     28 C          -1.1000    0.7630    0.0000 C.ar    1  LIG1        0.0731
     29 CL         -1.9500    1.2750    0.0000 Cl      1  LIG1       -0.0809
     30 O          -6.4670    1.0670    0.0000 O.2     1  LIG1       -0.1727
     31 O          -5.7670    2.3040    0.0000 O.2     1  LIG1       -0.1727
@<TRIPOS>BOND
     1     1     2    1
     2     1     8    1
     3     1    30    2
     4     1    31    2
     5     2     3    1
     6     3     4    1
     7     3     7    1
     8     4     5    2
     9     5     6    1
    10     5     9    1
    11     6     7    1
    12     7     8    1
    13     9    10    1
    14    10    11   ar
    15    10    28   ar
    16    11    12   ar
    17    12    13    1
    18    12    26   ar
    19    13    14   am
    20    13    25    2
    21    14    15    1
    22    15    16    1
    23    16    17   ar
    24    16    24   ar
    25    17    18   ar
    26    18    19   ar
    27    18    22    1
    28    19    20    1
    29    19    23   ar
    30    20    21    1
    31    21    22    1
    32    23    24   ar
    33    26    27   ar
    34    27    28   ar
    35    28    29    1
