@<TRIPOS>MOLECULE
36061_ChemDiv_C169-0276
 23 26 0 0 0
SMALL
GASTEIGER
Energy = 0

@<TRIPOS>ATOM
      1 C           0.5170   -0.1960    0.0000 C.ar    1  LIG1        0.1564
      2 C           1.5080   -0.2960    0.0000 C.ar    1  LIG1        0.1208
      3 N           1.9170    0.6080    0.0000 N.ar    1  LIG1       -0.2230
      4 C           1.1670    1.2880    0.0000 C.ar    1  LIG1        0.1682
      5 N           0.3040    0.7880    0.0000 N.ar    1  LIG1       -0.2731
      6 C          -0.5580    1.2880    0.0000 C.ar    1  LIG1        0.1033
      7 C          -0.5580    2.2880    0.0000 C.ar    1  LIG1        0.1180
      8 N           0.3040    2.7880    0.0000 N.ar    1  LIG1       -0.2376
      9 C           1.1670    2.2880    0.0000 C.ar    1  LIG1        0.1362
     10 C           1.9670   -1.1880    0.0000 C.ar    1  LIG1        0.0499
     11 S           1.5250   -2.0830    0.0000 S.2     1  LIG1       -0.0848
     12 C           2.2420   -2.7830    0.0000 C.ar    1  LIG1        0.0355
     13 C           3.1330   -2.3250    0.0000 C.ar    1  LIG1        0.0075
     14 C           2.9670   -1.3290    0.0000 C.ar    1  LIG1        0.0086
     15 N          -0.1420   -0.9380    0.0000 N.pl3   1  LIG1       -0.1946
     16 C          -1.1420   -0.9380    0.0000 C.ar    1  LIG1        0.0642
     17 C          -1.6380   -1.7960    0.0000 C.ar    1  LIG1       -0.0069
     18 C          -2.6380   -1.7960    0.0000 C.ar    1  LIG1       -0.0030
     19 C          -3.1380   -0.9210    0.0000 C.ar    1  LIG1       -0.0006
     20 C          -2.6330   -0.0580    0.0000 C.ar    1  LIG1       -0.0030
     21 C          -1.6330   -0.0580    0.0000 C.ar    1  LIG1       -0.0069
     22 C          -1.6380    0.9420    0.0000 C.3     1  LIG1        0.0324
     23 C          -1.1500   -2.6540    0.0000 C.3     1  LIG1        0.0324
@<TRIPOS>BOND
     1     1     2   ar
     2     1     5   ar
     3     1    15    1
     4     2     3   ar
     5     2    10    1
     6     3     4   ar
     7     4     5   ar
     8     4     9   ar
     9     5     6   ar
    10     6     7   ar
    11     7     8   ar
    12     8     9   ar
    13    10    11   ar
    14    10    14   ar
    15    11    12   ar
    16    12    13   ar
    17    13    14   ar
    18    15    16    1
    19    16    17   ar
    20    16    21   ar
    21    17    18   ar
    22    17    23    1
    23    18    19   ar
    24    19    20   ar
    25    20    21   ar
    26    21    22    1
