@<TRIPOS>MOLECULE
36063_ChemDiv_C169-0279
 24 27 0 0 0
SMALL
GASTEIGER
Energy = 0

@<TRIPOS>ATOM
      1 C           0.5170    0.3000    0.0000 C.ar    1  LIG1        0.1564
      2 C           1.5080    0.2000    0.0000 C.ar    1  LIG1        0.1208
      3 N           1.9170    1.1040    0.0000 N.ar    1  LIG1       -0.2230
      4 C           1.1670    1.7830    0.0000 C.ar    1  LIG1        0.1682
      5 N           0.3040    1.2880    0.0000 N.ar    1  LIG1       -0.2731
      6 C          -0.5580    1.7830    0.0000 C.ar    1  LIG1        0.1033
      7 C          -0.5580    2.7830    0.0000 C.ar    1  LIG1        0.1180
      8 N           0.3040    3.2830    0.0000 N.ar    1  LIG1       -0.2376
      9 C           1.1670    2.7830    0.0000 C.ar    1  LIG1        0.1362
     10 C           1.9670   -0.6920    0.0000 C.ar    1  LIG1        0.0496
     11 S           1.5250   -1.5830    0.0000 S.2     1  LIG1       -0.0897
     12 C           2.2420   -2.2830    0.0000 C.ar    1  LIG1        0.0077
     13 C           3.1330   -1.8250    0.0000 C.ar    1  LIG1        0.0027
     14 C           2.9670   -0.8330    0.0000 C.ar    1  LIG1        0.0083
     15 C           2.0880   -3.2790    0.0000 C.3     1  LIG1        0.0382
     16 N          -0.1420   -0.4380    0.0000 N.pl3   1  LIG1       -0.1946
     17 C          -1.1380   -0.4380    0.0000 C.ar    1  LIG1        0.0642
     18 C          -1.6330    0.4380    0.0000 C.ar    1  LIG1       -0.0069
     19 C          -2.6330    0.4380    0.0000 C.ar    1  LIG1       -0.0030
     20 C          -3.1380   -0.4250    0.0000 C.ar    1  LIG1       -0.0006
     21 C          -2.6380   -1.2960    0.0000 C.ar    1  LIG1       -0.0030
     22 C          -1.6380   -1.2960    0.0000 C.ar    1  LIG1       -0.0069
     23 C          -1.1500   -2.1580    0.0000 C.3     1  LIG1        0.0324
     24 C          -1.6380    1.4380    0.0000 C.3     1  LIG1        0.0324
@<TRIPOS>BOND
     1     1     2   ar
     2     1     5   ar
     3     1    16    1
     4     2     3   ar
     5     2    10    1
     6     3     4   ar
     7     4     5   ar
     8     4     9   ar
     9     5     6   ar
    10     6     7   ar
    11     7     8   ar
    12     8     9   ar
    13    10    11   ar
    14    10    14   ar
    15    11    12   ar
    16    12    13   ar
    17    12    15    1
    18    13    14   ar
    19    16    17    1
    20    17    18   ar
    21    17    22   ar
    22    18    19   ar
    23    18    24    1
    24    19    20   ar
    25    20    21   ar
    26    21    22   ar
    27    22    23    1
