@<TRIPOS>MOLECULE
36072_ChemDiv_K248-0131
 28 31 0 0 0
SMALL
GASTEIGER
Energy = 0

@<TRIPOS>ATOM
      1 S          -3.4460    2.1830    0.0000 S.O2    1  LIG1       -0.0018
      2 C          -2.5380    2.5920    0.0000 C.3     1  LIG1        0.2359
      3 C          -1.8630    1.8500    0.0000 C.3     1  LIG1        0.3549
      4 N          -0.8880    1.6380    0.0000 N.2     1  LIG1        0.0735
      5 C          -0.7880    0.6380    0.0000 C.2     1  LIG1        0.3942
      6 S          -1.6880    0.2330    0.0000 S.3     1  LIG1       -0.0135
      7 C          -2.3580    0.9880    0.0000 C.3     1  LIG1        0.1620
      8 C          -3.3380    1.1960    0.0000 C.3     1  LIG1        0.1696
      9 N           0.0750    0.1250    0.0000 N.pl3   1  LIG1       -0.1415
     10 C           0.9460    0.6130    0.0000 C.ar    1  LIG1        0.0876
     11 C           1.8080    0.1080    0.0000 C.ar    1  LIG1        0.0221
     12 C           2.6830    0.5920    0.0000 C.ar    1  LIG1        0.0564
     13 C           3.5460    0.0790    0.0000 C.2     1  LIG1        0.2648
     14 N           3.5420   -0.9210    0.0000 N.am    1  LIG1       -0.2034
     15 C           2.6790   -1.4210    0.0000 C.3     1  LIG1        0.0956
     16 C           1.8170   -0.9210    0.0000 C.3     1  LIG1        0.0217
     17 C           0.8790   -1.2960    0.0000 C.3     1  LIG1        0.0018
     18 C           0.5920   -2.2460    0.0000 C.3     1  LIG1        0.0001
     19 C           1.1540   -3.0670    0.0000 C.3     1  LIG1        0.0001
     20 C           2.1380   -3.1460    0.0000 C.3     1  LIG1        0.0018
     21 C           2.8290   -2.4210    0.0000 C.3     1  LIG1        0.0217
     22 O           4.4080    0.5790    0.0000 O.2     1  LIG1       -0.2684
     23 C           2.6960    1.5920    0.0000 C.ar    1  LIG1        0.0055
     24 C           1.8330    2.1040    0.0000 C.ar    1  LIG1        0.0129
     25 C           0.9580    1.6130    0.0000 C.ar    1  LIG1        0.0731
     26 CL          0.0960    2.1380    0.0000 Cl      1  LIG1       -0.0809
     27 O          -3.7080    3.1500    0.0000 O.2     1  LIG1       -0.1727
     28 O          -4.4130    1.9130    0.0000 O.2     1  LIG1       -0.1727
@<TRIPOS>BOND
     1     1     2    1
     2     1     8    1
     3     1    27    2
     4     1    28    2
     5     2     3    1
     6     3     4    1
     7     3     7    1
     8     4     5    2
     9     5     6    1
    10     5     9    1
    11     6     7    1
    12     7     8    1
    13     9    10    1
    14    10    11   ar
    15    10    25   ar
    16    11    12   ar
    17    12    13    1
    18    12    23   ar
    19    13    14   am
    20    13    22    2
    21    14    15    1
    22    15    16    1
    23    15    21    1
    24    16    17    1
    25    17    18    1
    26    18    19    1
    27    19    20    1
    28    20    21    1
    29    23    24   ar
    30    24    25   ar
    31    25    26    1
