@<TRIPOS>MOLECULE
36076_ChemDiv_K248-0208
 32 37 0 0 0
SMALL
GASTEIGER
Energy = 0

@<TRIPOS>ATOM
      1 S          -3.7040   -3.2040    0.0000 S.O2    1  LIG1       -0.0018
      2 C          -2.9040   -2.6170    0.0000 C.3     1  LIG1        0.2359
      3 C          -3.2210   -1.6630    0.0000 C.3     1  LIG1        0.3549
      4 N          -2.9210   -0.7130    0.0000 N.2     1  LIG1        0.0735
      5 C          -3.7250   -0.1380    0.0000 C.2     1  LIG1        0.3942
      6 S          -4.5380   -0.7250    0.0000 S.3     1  LIG1       -0.0135
      7 C          -4.2210   -1.6750    0.0000 C.3     1  LIG1        0.1620
      8 C          -4.5210   -2.6250    0.0000 C.3     1  LIG1        0.1696
      9 N          -3.7380    0.8630    0.0000 N.pl3   1  LIG1       -0.1424
     10 C          -2.8750    1.3670    0.0000 C.ar    1  LIG1        0.0769
     11 C          -2.0130    0.8750    0.0000 C.ar    1  LIG1        0.0169
     12 C          -1.1500    1.3750    0.0000 C.ar    1  LIG1        0.0059
     13 C          -1.1540    2.3710    0.0000 C.ar    1  LIG1        0.0551
     14 C          -0.3040    2.8880    0.0000 C.2     1  LIG1        0.2647
     15 N           0.5710    2.3880    0.0000 N.am    1  LIG1       -0.2034
     16 C           1.4210    2.9210    0.0000 C.3     1  LIG1        0.0956
     17 C           2.3040    2.4540    0.0000 C.3     1  LIG1        0.0185
     18 C           3.2630    2.7500    0.0000 C.3     1  LIG1        0.0017
     19 C           3.5630    1.8000    0.0000 C.3     1  LIG1        0.0001
     20 C           2.8830    1.0580    0.0000 C.3     1  LIG1        0.0000
     21 C           1.9330    0.7460    0.0000 C.3     1  LIG1        0.0001
     22 C           1.6250    1.7130    0.0000 C.3     1  LIG1        0.0017
     23 C           2.9000    0.5420    0.0000 C.3     1  LIG1        0.0000
     24 C           3.5790    1.2830    0.0000 C.3     1  LIG1        0.0001
     25 C           3.2790    2.2380    0.0000 C.3     1  LIG1        0.0017
     26 C           4.5330    1.5750    0.0000 C.3     1  LIG1        0.0000
     27 C           1.3830    3.9290    0.0000 C.3     1  LIG1        0.0234
     28 O          -0.3040    3.8830    0.0000 O.2     1  LIG1       -0.2684
     29 C          -2.0330    2.8710    0.0000 C.ar    1  LIG1        0.0059
     30 C          -2.8880    2.3580    0.0000 C.ar    1  LIG1        0.0169
     31 O          -2.9830   -3.9130    0.0000 O.2     1  LIG1       -0.1727
     32 O          -4.4000   -3.9250    0.0000 O.2     1  LIG1       -0.1727
@<TRIPOS>BOND
     1     1     2    1
     2     1     8    1
     3     1    31    2
     4     1    32    2
     5     2     3    1
     6     3     4    1
     7     3     7    1
     8     4     5    2
     9     5     6    1
    10     5     9    1
    11     6     7    1
    12     7     8    1
    13     9    10    1
    14    10    11   ar
    15    10    30   ar
    16    11    12   ar
    17    12    13   ar
    18    13    14    1
    19    13    29   ar
    20    14    15   am
    21    14    28    2
    22    15    16    1
    23    16    17    1
    24    16    27    1
    25    17    18    1
    26    17    22    1
    27    17    25    1
    28    18    19    1
    29    19    20    1
    30    19    26    1
    31    20    21    1
    32    21    22    1
    33    21    23    1
    34    23    24    1
    35    24    25    1
    36    24    26    1
    37    29    30   ar
