@<TRIPOS>MOLECULE
36074_ChemDiv_K248-0143
 29 32 0 0 0
SMALL
GASTEIGER
Energy = 0

@<TRIPOS>ATOM
      1 S          -3.4420    2.3670    0.0000 S.O2    1  LIG1       -0.0018
      2 C          -2.5330    2.7750    0.0000 C.3     1  LIG1        0.2359
      3 C          -1.8580    2.0330    0.0000 C.3     1  LIG1        0.3549
      4 N          -0.8880    1.8210    0.0000 N.2     1  LIG1        0.0735
      5 C          -0.7880    0.8250    0.0000 C.2     1  LIG1        0.3942
      6 S          -1.6880    0.4210    0.0000 S.3     1  LIG1       -0.0135
      7 C          -2.3580    1.1710    0.0000 C.3     1  LIG1        0.1620
      8 C          -3.3380    1.3830    0.0000 C.3     1  LIG1        0.1696
      9 N           0.0750    0.3080    0.0000 N.pl3   1  LIG1       -0.1415
     10 C           0.9420    0.8000    0.0000 C.ar    1  LIG1        0.0876
     11 C           1.8040    0.2960    0.0000 C.ar    1  LIG1        0.0221
     12 C           2.6830    0.7790    0.0000 C.ar    1  LIG1        0.0564
     13 C           3.5460    0.2630    0.0000 C.2     1  LIG1        0.2648
     14 N           3.5380   -0.7330    0.0000 N.am    1  LIG1       -0.2034
     15 C           2.6750   -1.2330    0.0000 C.3     1  LIG1        0.0956
     16 C           2.9380   -2.2000    0.0000 C.3     1  LIG1        0.0217
     17 C           2.4420   -3.0630    0.0000 C.3     1  LIG1        0.0018
     18 C           1.4710   -3.3290    0.0000 C.3     1  LIG1        0.0001
     19 C           0.6040   -2.8290    0.0000 C.3     1  LIG1        0.0000
     20 C           0.3380   -1.8630    0.0000 C.3     1  LIG1        0.0001
     21 C           0.8380   -1.0000    0.0000 C.3     1  LIG1        0.0018
     22 C           1.8040   -0.7330    0.0000 C.3     1  LIG1        0.0217
     23 O           4.4040    0.7630    0.0000 O.2     1  LIG1       -0.2684
     24 C           2.6920    1.7750    0.0000 C.ar    1  LIG1        0.0055
     25 C           1.8290    2.2920    0.0000 C.ar    1  LIG1        0.0129
     26 C           0.9580    1.7960    0.0000 C.ar    1  LIG1        0.0731
     27 CL          0.0960    2.3210    0.0000 Cl      1  LIG1       -0.0809
     28 O          -3.7040    3.3330    0.0000 O.2     1  LIG1       -0.1727
     29 O          -4.4080    2.1000    0.0000 O.2     1  LIG1       -0.1727
@<TRIPOS>BOND
     1     1     2    1
     2     1     8    1
     3     1    28    2
     4     1    29    2
     5     2     3    1
     6     3     4    1
     7     3     7    1
     8     4     5    2
     9     5     6    1
    10     5     9    1
    11     6     7    1
    12     7     8    1
    13     9    10    1
    14    10    11   ar
    15    10    26   ar
    16    11    12   ar
    17    12    13    1
    18    12    24   ar
    19    13    14   am
    20    13    23    2
    21    14    15    1
    22    15    16    1
    23    15    22    1
    24    16    17    1
    25    17    18    1
    26    18    19    1
    27    19    20    1
    28    20    21    1
    29    21    22    1
    30    24    25   ar
    31    25    26   ar
    32    26    27    1
