@<TRIPOS>MOLECULE
36070_ChemDiv_K248-0121
 25 28 0 0 0
SMALL
GASTEIGER
Energy = 0

@<TRIPOS>ATOM
      1 S          -3.4420    1.8380    0.0000 S.O2    1  LIG1       -0.0018
      2 C          -2.5330    2.2460    0.0000 C.3     1  LIG1        0.2359
      3 C          -1.8580    1.5080    0.0000 C.3     1  LIG1        0.3549
      4 N          -0.8880    1.2960    0.0000 N.2     1  LIG1        0.0735
      5 C          -0.7880    0.2960    0.0000 C.2     1  LIG1        0.3942
      6 S          -1.6880   -0.1080    0.0000 S.3     1  LIG1       -0.0135
      7 C          -2.3580    0.6460    0.0000 C.3     1  LIG1        0.1620
      8 C          -3.3380    0.8540    0.0000 C.3     1  LIG1        0.1696
      9 N           0.0750   -0.2170    0.0000 N.pl3   1  LIG1       -0.1415
     10 C           0.9420    0.2710    0.0000 C.ar    1  LIG1        0.0876
     11 C           1.8040   -0.2330    0.0000 C.ar    1  LIG1        0.0221
     12 C           2.6830    0.2500    0.0000 C.ar    1  LIG1        0.0549
     13 C           3.5420   -0.2630    0.0000 C.2     1  LIG1        0.2491
     14 N           3.5380   -1.2630    0.0000 N.am    1  LIG1       -0.2761
     15 C           2.7210   -1.8330    0.0000 C.3     1  LIG1        0.0938
     16 C           3.0250   -2.7960    0.0000 C.3     1  LIG1        0.0233
     17 C           4.0290   -2.8040    0.0000 C.3     1  LIG1        0.0233
     18 C           4.3460   -1.8500    0.0000 C.3     1  LIG1        0.0938
     19 O           4.4040    0.2380    0.0000 O.2     1  LIG1       -0.2699
     20 C           2.6920    1.2500    0.0000 C.ar    1  LIG1        0.0055
     21 C           1.8290    1.7630    0.0000 C.ar    1  LIG1        0.0129
     22 C           0.9580    1.2710    0.0000 C.ar    1  LIG1        0.0731
     23 CL          0.0960    1.7920    0.0000 Cl      1  LIG1       -0.0809
     24 O          -3.7040    2.8080    0.0000 O.2     1  LIG1       -0.1727
     25 O          -4.4080    1.5710    0.0000 O.2     1  LIG1       -0.1727
@<TRIPOS>BOND
     1     1     2    1
     2     1     8    1
     3     1    24    2
     4     1    25    2
     5     2     3    1
     6     3     4    1
     7     3     7    1
     8     4     5    2
     9     5     6    1
    10     5     9    1
    11     6     7    1
    12     7     8    1
    13     9    10    1
    14    10    11   ar
    15    10    22   ar
    16    11    12   ar
    17    12    13    1
    18    12    20   ar
    19    13    14   am
    20    13    19    2
    21    14    15    1
    22    14    18    1
    23    15    16    1
    24    16    17    1
    25    17    18    1
    26    20    21   ar
    27    21    22   ar
    28    22    23    1
