@<TRIPOS>MOLECULE
36078_ChemDiv_K248-0239
 35 40 0 0 0
SMALL
GASTEIGER
Energy = 0

@<TRIPOS>ATOM
      1 S          -5.1040   -2.6920    0.0000 S.O2    1  LIG1       -0.0018
      2 C          -4.3000   -2.0960    0.0000 C.3     1  LIG1        0.2359
      3 C          -4.6080   -1.1500    0.0000 C.3     1  LIG1        0.3549
      4 N          -4.3040   -0.1960    0.0000 N.2     1  LIG1        0.0735
      5 C          -5.1170    0.3880    0.0000 C.2     1  LIG1        0.3942
      6 S          -5.9250   -0.2040    0.0000 S.3     1  LIG1       -0.0135
      7 C          -5.6080   -1.1500    0.0000 C.3     1  LIG1        0.1620
      8 C          -5.9080   -2.1040    0.0000 C.3     1  LIG1        0.1696
      9 N          -5.1330    1.3830    0.0000 N.pl3   1  LIG1       -0.1424
     10 C          -4.2710    1.8960    0.0000 C.ar    1  LIG1        0.0770
     11 C          -3.4080    1.3960    0.0000 C.ar    1  LIG1        0.0212
     12 C          -2.5420    1.9000    0.0000 C.ar    1  LIG1        0.0549
     13 C          -1.6710    1.4080    0.0000 C.2     1  LIG1        0.2494
     14 N          -0.8080    1.9170    0.0000 N.am    1  LIG1       -0.2645
     15 C           0.0540    1.4080    0.0000 C.3     1  LIG1        0.1567
     16 C           0.9250    1.9080    0.0000 C.3     1  LIG1        0.1610
     17 N           0.9250    2.9080    0.0000 N.4     1  LIG1        0.3834
     18 C           1.7880    3.4080    0.0000 C.3     1  LIG1        0.1664
     19 C           2.6500    2.9080    0.0000 C.ar    1  LIG1        0.0376
     20 C           3.5130    3.4080    0.0000 C.ar    1  LIG1        0.0416
     21 C           4.3750    2.9080    0.0000 C.ar    1  LIG1        0.1763
     22 C           4.3920    1.9080    0.0000 C.ar    1  LIG1        0.1764
     23 O           5.3460    1.6080    0.0000 O.3     1  LIG1       -0.4346
     24 C           5.9210    2.4170    0.0000 C.3     1  LIG1        0.4294
     25 O           5.3290    3.2290    0.0000 O.3     1  LIG1       -0.4346
     26 C           3.5130    1.4000    0.0000 C.ar    1  LIG1        0.0401
     27 C           2.6500    1.9000    0.0000 C.ar    1  LIG1        0.0048
     28 C           0.0630    3.4080    0.0000 C.3     1  LIG1        0.1610
     29 C          -0.8040    2.9130    0.0000 C.3     1  LIG1        0.1567
     30 O          -1.6670    0.4130    0.0000 O.2     1  LIG1       -0.2699
     31 C          -2.5420    2.9000    0.0000 C.ar    1  LIG1        0.0046
     32 C          -3.4210    3.3960    0.0000 C.ar    1  LIG1        0.0015
     33 C          -4.2830    2.8830    0.0000 C.ar    1  LIG1        0.0167
     34 O          -5.8000   -3.4040    0.0000 O.2     1  LIG1       -0.1727
     35 O          -4.3750   -3.3920    0.0000 O.2     1  LIG1       -0.1727
@<TRIPOS>BOND
     1     1     2    1
     2     1     8    1
     3     1    34    2
     4     1    35    2
     5     2     3    1
     6     3     4    1
     7     3     7    1
     8     4     5    2
     9     5     6    1
    10     5     9    1
    11     6     7    1
    12     7     8    1
    13     9    10    1
    14    10    11   ar
    15    10    33   ar
    16    11    12   ar
    17    12    13    1
    18    12    31   ar
    19    13    14   am
    20    13    30    2
    21    14    15    1
    22    14    29    1
    23    15    16    1
    24    16    17    1
    25    17    18    1
    26    17    28    1
    27    18    19    1
    28    19    20   ar
    29    19    27   ar
    30    20    21   ar
    31    21    22   ar
    32    21    25    1
    33    22    23    1
    34    22    26   ar
    35    23    24    1
    36    24    25    1
    37    26    27   ar
    38    28    29    1
    39    31    32   ar
    40    32    33   ar
