@<TRIPOS>MOLECULE
36081_ChemDiv_C169-0299
 28 31 0 0 0
SMALL
GASTEIGER
Energy = 0

@<TRIPOS>ATOM
      1 C           0.0380   -1.4380    0.0000 C.ar    1  LIG1        0.1566
      2 C           1.0330   -1.5420    0.0000 C.ar    1  LIG1        0.1209
      3 N           1.4420   -0.6330    0.0000 N.ar    1  LIG1       -0.2191
      4 C           0.6880    0.0420    0.0000 C.ar    1  LIG1        0.2203
      5 N          -0.1750   -0.4540    0.0000 N.ar    1  LIG1       -0.2655
      6 C          -1.0380    0.0420    0.0000 C.ar    1  LIG1        0.1591
      7 C          -1.0380    1.0380    0.0000 C.ar    1  LIG1        0.3099
      8 N          -0.1750    1.5540    0.0000 N.ar    1  LIG1       -0.1474
      9 C           0.6880    1.0540    0.0000 C.ar    1  LIG1        0.3282
     10 C          -0.1790    2.5500    0.0000 C.3     1  LIG1        0.4115
     11 C           0.6830    3.0540    0.0000 C.2     1  LIG1        0.3403
     12 O           0.6710    4.0460    0.0000 O.2     1  LIG1       -0.2640
     13 N           1.5500    2.5630    0.0000 N.am    1  LIG1       -0.0817
     14 C           1.4960   -2.4330    0.0000 C.ar    1  LIG1        0.0496
     15 S           2.5000   -2.5710    0.0000 S.2     1  LIG1       -0.0897
     16 C           2.6670   -3.5750    0.0000 C.ar    1  LIG1        0.0077
     17 C           1.7710   -4.0460    0.0000 C.ar    1  LIG1        0.0027
     18 C           1.0500   -3.3330    0.0000 C.ar    1  LIG1        0.0083
     19 C           3.5580   -4.0210    0.0000 C.3     1  LIG1        0.0382
     20 N          -0.6250   -2.1920    0.0000 N.pl3   1  LIG1       -0.1946
     21 C          -1.5960   -1.9960    0.0000 C.ar    1  LIG1        0.0642
     22 C          -1.9130   -1.0540    0.0000 C.ar    1  LIG1       -0.0069
     23 C          -2.9040   -0.8580    0.0000 C.ar    1  LIG1       -0.0030
     24 C          -3.5630   -1.6040    0.0000 C.ar    1  LIG1       -0.0006
     25 C          -3.2380   -2.5540    0.0000 C.ar    1  LIG1       -0.0030
     26 C          -2.2580   -2.7460    0.0000 C.ar    1  LIG1       -0.0069
     27 C          -1.9290   -3.6960    0.0000 C.3     1  LIG1        0.0324
     28 C          -1.8540   -0.1170    0.0000 C.3     1  LIG1        0.0324
@<TRIPOS>BOND
     1     1     2   ar
     2     1     5   ar
     3     1    20    1
     4     2     3   ar
     5     2    14    1
     6     3     4   ar
     7     4     5   ar
     8     4     9   ar
     9     5     6   ar
    10     6     7   ar
    11     7     8   ar
    12     8     9   ar
    13     8    10    1
    14    10    11    1
    15    11    12    2
    16    11    13   am
    17    14    15   ar
    18    14    18   ar
    19    15    16   ar
    20    16    17   ar
    21    16    19    1
    22    17    18   ar
    23    20    21    1
    24    21    22   ar
    25    21    26   ar
    26    22    23   ar
    27    22    28    1
    28    23    24   ar
    29    24    25   ar
    30    25    26   ar
    31    26    27    1
