@<TRIPOS>MOLECULE
36083_ChemDiv_C169-0303
 23 26 0 0 0
SMALL
GASTEIGER
Energy = 0

@<TRIPOS>ATOM
      1 C           1.8880   -0.0170    0.0000 C.ar    1  LIG1        0.1208
      2 C           0.9000    0.0830    0.0000 C.ar    1  LIG1        0.1564
      3 N           0.6830    1.0630    0.0000 N.ar    1  LIG1       -0.2731
      4 C           1.5540    1.5710    0.0000 C.ar    1  LIG1        0.1682
      5 N           2.3040    0.8880    0.0000 N.ar    1  LIG1       -0.2230
      6 C           1.5540    2.5710    0.0000 C.ar    1  LIG1        0.1362
      7 N           0.6830    3.0710    0.0000 N.ar    1  LIG1       -0.2376
      8 C          -0.1790    2.5710    0.0000 C.ar    1  LIG1        0.1180
      9 C          -0.1790    1.5710    0.0000 C.ar    1  LIG1        0.1033
     10 N           0.2380   -0.6580    0.0000 N.pl3   1  LIG1       -0.1939
     11 C          -0.7330   -0.4670    0.0000 C.ar    1  LIG1        0.0722
     12 C          -1.3960   -1.2170    0.0000 C.ar    1  LIG1        0.0174
     13 C          -2.3750   -1.0250    0.0000 C.ar    1  LIG1        0.0127
     14 C          -2.6920   -0.0790    0.0000 C.ar    1  LIG1        0.0578
     15 CL         -3.6460    0.1790    0.0000 Cl      1  LIG1       -0.0822
     16 C          -2.0380    0.6790    0.0000 C.ar    1  LIG1        0.0127
     17 C          -1.0580    0.4830    0.0000 C.ar    1  LIG1        0.0174
     18 C           2.0960   -1.0000    0.0000 C.ar    1  LIG1        0.0496
     19 S           3.0170   -1.4000    0.0000 S.2     1  LIG1       -0.0897
     20 C           2.9130   -2.4130    0.0000 C.ar    1  LIG1        0.0077
     21 C           1.9330   -2.6210    0.0000 C.ar    1  LIG1        0.0027
     22 C           1.4250   -1.7420    0.0000 C.ar    1  LIG1        0.0083
     23 C           3.6420   -3.0670    0.0000 C.3     1  LIG1        0.0382
@<TRIPOS>BOND
     1     1     2   ar
     2     1     5   ar
     3     1    18    1
     4     2     3   ar
     5     2    10    1
     6     3     4   ar
     7     3     9   ar
     8     4     5   ar
     9     4     6   ar
    10     6     7   ar
    11     7     8   ar
    12     8     9   ar
    13    10    11    1
    14    11    12   ar
    15    11    17   ar
    16    12    13   ar
    17    13    14   ar
    18    14    15    1
    19    14    16   ar
    20    16    17   ar
    21    18    19   ar
    22    18    22   ar
    23    19    20   ar
    24    20    21   ar
    25    20    23    1
    26    21    22   ar
