@<TRIPOS>MOLECULE
36085_ChemDiv_C169-0362
 24 27 0 0 0
SMALL
GASTEIGER
Energy = 0

@<TRIPOS>ATOM
      1 C           0.5130   -0.2170    0.0000 C.ar    1  LIG1        0.1564
      2 C           1.4960   -0.3130    0.0000 C.ar    1  LIG1        0.1208
      3 N           1.8960    0.5920    0.0000 N.ar    1  LIG1       -0.2230
      4 C           1.1630    1.2580    0.0000 C.ar    1  LIG1        0.1682
      5 N           0.3040    0.7580    0.0000 N.ar    1  LIG1       -0.2731
      6 C          -0.5750    1.2580    0.0000 C.ar    1  LIG1        0.1033
      7 C          -0.5750    2.2580    0.0000 C.ar    1  LIG1        0.1180
      8 N           0.2960    2.7630    0.0000 N.ar    1  LIG1       -0.2376
      9 C           1.1630    2.2580    0.0000 C.ar    1  LIG1        0.1362
     10 C           2.0000   -1.1790    0.0000 C.ar    1  LIG1        0.0499
     11 S           1.5880   -2.0960    0.0000 S.2     1  LIG1       -0.0848
     12 C           2.3290   -2.7580    0.0000 C.ar    1  LIG1        0.0355
     13 C           3.2080   -2.2460    0.0000 C.ar    1  LIG1        0.0075
     14 C           2.9880   -1.2790    0.0000 C.ar    1  LIG1        0.0086
     15 N          -0.2080   -0.9210    0.0000 N.pl3   1  LIG1       -0.1946
     16 C          -1.2130   -0.9130    0.0000 C.ar    1  LIG1        0.0641
     17 C          -1.7080   -1.7790    0.0000 C.ar    1  LIG1       -0.0069
     18 C          -2.7040   -1.7750    0.0000 C.ar    1  LIG1       -0.0030
     19 C          -3.2130   -0.9000    0.0000 C.ar    1  LIG1       -0.0006
     20 C          -2.7040   -0.0380    0.0000 C.ar    1  LIG1       -0.0030
     21 C          -1.7040   -0.0380    0.0000 C.ar    1  LIG1       -0.0072
     22 C          -1.1960    0.8250    0.0000 C.3     1  LIG1        0.0277
     23 C          -1.6920    1.6920    0.0000 C.3     1  LIG1        0.0051
     24 C          -1.2130   -2.6460    0.0000 C.3     1  LIG1        0.0324
@<TRIPOS>BOND
     1     1     2   ar
     2     1     5   ar
     3     1    15    1
     4     2     3   ar
     5     2    10    1
     6     3     4   ar
     7     4     5   ar
     8     4     9   ar
     9     5     6   ar
    10     6     7   ar
    11     7     8   ar
    12     8     9   ar
    13    10    11   ar
    14    10    14   ar
    15    11    12   ar
    16    12    13   ar
    17    13    14   ar
    18    15    16    1
    19    16    17   ar
    20    16    21   ar
    21    17    18   ar
    22    17    24    1
    23    18    19   ar
    24    19    20   ar
    25    20    21   ar
    26    21    22    1
    27    22    23    1
