@<TRIPOS>MOLECULE
36087_ChemDiv_C169-0201
 29 33 0 0 0
SMALL
GASTEIGER
Energy = 0

@<TRIPOS>ATOM
      1 C          -0.4630    1.1080    0.0000 C.ar    1  LIG1        0.1559
      2 N          -0.7080    2.0790    0.0000 N.ar    1  LIG1       -0.2732
      3 C           0.1380    2.6080    0.0000 C.ar    1  LIG1        0.1681
      4 N           0.9000    1.9670    0.0000 N.ar    1  LIG1       -0.2235
      5 C           0.5330    1.0420    0.0000 C.ar    1  LIG1        0.1148
      6 C           1.0630    0.1960    0.0000 C.ar    1  LIG1        0.0206
      7 C           0.5830   -0.6880    0.0000 C.ar    1  LIG1        0.0029
      8 C           1.1130   -1.5330    0.0000 C.ar    1  LIG1        0.0146
      9 C           2.1250   -1.5000    0.0000 C.ar    1  LIG1        0.0480
     10 N           2.6540   -2.3380    0.0000 N.pl3   1  LIG1       -0.3028
     11 C           3.6460   -2.2960    0.0000 C.3     1  LIG1        0.1231
     12 C           4.1750   -3.1540    0.0000 C.3     1  LIG1        0.1636
     13 O           3.7080   -4.0370    0.0000 O.3     1  LIG1       -0.3501
     14 C           2.7130   -4.0710    0.0000 C.3     1  LIG1        0.1636
     15 C           2.1880   -3.2170    0.0000 C.3     1  LIG1        0.1231
     16 C           2.5830   -0.6080    0.0000 C.ar    1  LIG1        0.0146
     17 C           2.0540    0.2380    0.0000 C.ar    1  LIG1        0.0029
     18 C           0.1080    3.6040    0.0000 C.ar    1  LIG1        0.1362
     19 N          -0.7790    4.0710    0.0000 N.ar    1  LIG1       -0.2376
     20 C          -1.6290    3.5420    0.0000 C.ar    1  LIG1        0.1180
     21 C          -1.6000    2.5420    0.0000 C.ar    1  LIG1        0.1033
     22 N          -1.1750    0.4040    0.0000 N.pl3   1  LIG1       -0.1943
     23 C          -2.1750    0.4040    0.0000 C.ar    1  LIG1        0.0681
     24 C          -2.6750   -0.4540    0.0000 C.ar    1  LIG1       -0.0065
     25 C          -2.1790   -1.3170    0.0000 C.3     1  LIG1        0.0324
     26 C          -3.6750   -0.4540    0.0000 C.ar    1  LIG1       -0.0030
     27 C          -4.1790    0.4170    0.0000 C.ar    1  LIG1       -0.0002
     28 C          -3.6750    1.2830    0.0000 C.ar    1  LIG1        0.0013
     29 C          -2.6750    1.2830    0.0000 C.ar    1  LIG1        0.0162
@<TRIPOS>BOND
     1     1     2   ar
     2     1     5   ar
     3     1    22    1
     4     2     3   ar
     5     2    21   ar
     6     3     4   ar
     7     3    18   ar
     8     4     5   ar
     9     5     6    1
    10     6     7   ar
    11     6    17   ar
    12     7     8   ar
    13     8     9   ar
    14     9    10    1
    15     9    16   ar
    16    10    11    1
    17    10    15    1
    18    11    12    1
    19    12    13    1
    20    13    14    1
    21    14    15    1
    22    16    17   ar
    23    18    19   ar
    24    19    20   ar
    25    20    21   ar
    26    22    23    1
    27    23    24   ar
    28    23    29   ar
    29    24    25    1
    30    24    26   ar
    31    26    27   ar
    32    27    28   ar
    33    28    29   ar
