@<TRIPOS>MOLECULE
36080_ChemDiv_K248-0246
 34 37 0 0 0
SMALL
GASTEIGER
Energy = 0

@<TRIPOS>ATOM
      1 S          -3.7500   -2.6960    0.0000 S.O2    1  LIG1       -0.0018
      2 C          -2.9500   -2.0960    0.0000 C.3     1  LIG1        0.2359
      3 C          -3.2630   -1.1540    0.0000 C.3     1  LIG1        0.3549
      4 N          -2.9580   -0.2000    0.0000 N.2     1  LIG1        0.0735
      5 C          -3.7750    0.3830    0.0000 C.2     1  LIG1        0.3942
      6 S          -4.5790   -0.2040    0.0000 S.3     1  LIG1       -0.0135
      7 C          -4.2630   -1.1580    0.0000 C.3     1  LIG1        0.1620
      8 C          -4.5630   -2.1130    0.0000 C.3     1  LIG1        0.1696
      9 N          -3.7790    1.3830    0.0000 N.pl3   1  LIG1       -0.1424
     10 C          -2.9210    1.8830    0.0000 C.ar    1  LIG1        0.0769
     11 C          -2.0580    1.3880    0.0000 C.ar    1  LIG1        0.0164
     12 C          -1.1960    1.9000    0.0000 C.ar    1  LIG1       -0.0024
     13 C          -1.2040    2.8960    0.0000 C.ar    1  LIG1       -0.0129
     14 C          -0.3420    3.4000    0.0000 C.3     1  LIG1        0.1131
     15 C           0.5210    2.9130    0.0000 C.2     1  LIG1        0.2460
     16 O           1.3920    3.4170    0.0000 O.2     1  LIG1       -0.2730
     17 N           0.5330    1.9130    0.0000 N.am    1  LIG1       -0.1988
     18 C           1.3960    1.4040    0.0000 C.3     1  LIG1        0.1775
     19 C           1.3920    0.4000    0.0000 C.3     1  LIG1        0.1627
     20 N           2.2540   -0.1080    0.0000 N.4     1  LIG1        0.3803
     21 C           2.2460   -1.1130    0.0000 C.3     1  LIG1        0.2038
     22 C           3.1000   -1.6250    0.0000 C.ar    1  LIG1        0.1798
     23 O           4.0920   -1.4290    0.0000 O.2     1  LIG1       -0.4488
     24 C           4.5750   -2.3080    0.0000 C.ar    1  LIG1        0.1794
     25 C           3.8790   -3.0420    0.0000 C.ar    1  LIG1        0.0436
     26 C           2.9710   -2.6210    0.0000 C.ar    1  LIG1        0.0422
     27 C           3.1210    0.3750    0.0000 C.3     1  LIG1        0.0878
     28 C           3.1330    1.3750    0.0000 C.3     1  LIG1        0.0567
     29 C           4.0080    1.8580    0.0000 C.3     1  LIG1        0.0061
     30 C           3.9790   -0.1290    0.0000 C.3     1  LIG1        0.0626
     31 C          -2.0830    3.3830    0.0000 C.ar    1  LIG1       -0.0024
     32 C          -2.9330    2.8830    0.0000 C.ar    1  LIG1        0.0164
     33 O          -4.4460   -3.4130    0.0000 O.2     1  LIG1       -0.1727
     34 O          -3.0330   -3.3960    0.0000 O.2     1  LIG1       -0.1727
@<TRIPOS>BOND
     1     1     2    1
     2     1     8    1
     3     1    33    2
     4     1    34    2
     5     2     3    1
     6     3     4    1
     7     3     7    1
     8     4     5    2
     9     5     6    1
    10     5     9    1
    11     6     7    1
    12     7     8    1
    13     9    10    1
    14    10    11   ar
    15    10    32   ar
    16    11    12   ar
    17    12    13   ar
    18    13    14    1
    19    13    31   ar
    20    14    15    1
    21    15    16    2
    22    15    17   am
    23    17    18    1
    24    18    19    1
    25    19    20    1
    26    20    21    1
    27    20    27    1
    28    21    22    1
    29    22    23   ar
    30    22    26   ar
    31    23    24   ar
    32    24    25   ar
    33    25    26   ar
    34    27    28    1
    35    27    30    1
    36    28    29    1
    37    31    32   ar
