@<TRIPOS>MOLECULE
36095_ChemDiv_C169-0344
 33 37 0 0 0
SMALL
GASTEIGER
Energy = 0

@<TRIPOS>ATOM
      1 C          -0.7790    0.5170    0.0000 C.ar    1  LIG1        0.1561
      2 N          -0.7290    1.5170    0.0000 N.ar    1  LIG1       -0.2655
      3 C           0.2250    1.7710    0.0000 C.ar    1  LIG1        0.2203
      4 N           0.7790    0.9380    0.0000 N.ar    1  LIG1       -0.2196
      5 C           0.1500    0.1540    0.0000 C.ar    1  LIG1        0.1150
      6 C           0.4080   -0.8040    0.0000 C.ar    1  LIG1        0.0206
      7 C          -0.2960   -1.5170    0.0000 C.ar    1  LIG1        0.0029
      8 C          -0.0330   -2.4790    0.0000 C.ar    1  LIG1        0.0146
      9 C           0.9380   -2.7380    0.0000 C.ar    1  LIG1        0.0480
     10 N           1.1960   -3.7000    0.0000 N.pl3   1  LIG1       -0.3028
     11 C           0.4920   -4.4080    0.0000 C.3     1  LIG1        0.1231
     12 C           0.7500   -5.3670    0.0000 C.3     1  LIG1        0.1636
     13 O           1.7080   -5.6330    0.0000 O.3     1  LIG1       -0.3501
     14 C           2.4210   -4.9210    0.0000 C.3     1  LIG1        0.1636
     15 C           2.1670   -3.9500    0.0000 C.3     1  LIG1        0.1231
     16 C           1.6330   -2.0170    0.0000 C.ar    1  LIG1        0.0146
     17 C           1.3750   -1.0630    0.0000 C.ar    1  LIG1        0.0029
     18 C           0.4920    2.7330    0.0000 C.ar    1  LIG1        0.3282
     19 N          -0.2130    3.4380    0.0000 N.ar    1  LIG1       -0.1474
     20 C          -1.1830    3.1710    0.0000 C.ar    1  LIG1        0.3099
     21 C          -1.4420    2.2250    0.0000 C.ar    1  LIG1        0.1591
     22 C           0.0420    4.4040    0.0000 C.3     1  LIG1        0.4115
     23 C           1.0130    4.6630    0.0000 C.2     1  LIG1        0.3403
     24 O           1.2670    5.6330    0.0000 O.2     1  LIG1       -0.2640
     25 N           1.7210    3.9710    0.0000 N.am    1  LIG1       -0.0817
     26 N          -1.6290   -0.0290    0.0000 N.pl3   1  LIG1       -0.1939
     27 C          -1.5830   -1.0290    0.0000 C.ar    1  LIG1        0.0721
     28 C          -2.4250   -1.5630    0.0000 C.ar    1  LIG1        0.0162
     29 C          -2.3960   -2.5710    0.0000 C.ar    1  LIG1       -0.0029
     30 C          -1.5170   -3.0460    0.0000 C.ar    1  LIG1       -0.0218
     31 C          -0.6580   -2.5000    0.0000 C.ar    1  LIG1       -0.0029
     32 C          -0.7000   -1.5000    0.0000 C.ar    1  LIG1        0.0162
     33 C          -1.4880   -4.0420    0.0000 C.3     1  LIG1        0.0310
@<TRIPOS>BOND
     1     1     2   ar
     2     1     5   ar
     3     1    26    1
     4     2     3   ar
     5     2    21   ar
     6     3     4   ar
     7     3    18   ar
     8     4     5   ar
     9     5     6    1
    10     6     7   ar
    11     6    17   ar
    12     7     8   ar
    13     8     9   ar
    14     9    10    1
    15     9    16   ar
    16    10    11    1
    17    10    15    1
    18    11    12    1
    19    12    13    1
    20    13    14    1
    21    14    15    1
    22    16    17   ar
    23    18    19   ar
    24    19    20   ar
    25    19    22    1
    26    20    21   ar
    27    22    23    1
    28    23    24    2
    29    23    25   am
    30    26    27    1
    31    27    28   ar
    32    27    32   ar
    33    28    29   ar
    34    29    30   ar
    35    30    31   ar
    36    30    33    1
    37    31    32   ar
