@<TRIPOS>MOLECULE
36093_ChemDiv_C169-0343
 30 34 0 0 0
SMALL
GASTEIGER
Energy = 0

@<TRIPOS>ATOM
      1 C          -0.7790    1.6130    0.0000 C.ar    1  LIG1        0.1559
      2 N          -0.7290    2.6130    0.0000 N.ar    1  LIG1       -0.2732
      3 C           0.2250    2.8710    0.0000 C.ar    1  LIG1        0.1681
      4 N           0.7790    2.0380    0.0000 N.ar    1  LIG1       -0.2235
      5 C           0.1500    1.2540    0.0000 C.ar    1  LIG1        0.1148
      6 C           0.4080    0.2960    0.0000 C.ar    1  LIG1        0.0206
      7 C           1.3790    0.0380    0.0000 C.ar    1  LIG1        0.0029
      8 C           1.6330   -0.9170    0.0000 C.ar    1  LIG1        0.0146
      9 C           0.9380   -1.6420    0.0000 C.ar    1  LIG1        0.0480
     10 N           1.1960   -2.6000    0.0000 N.pl3   1  LIG1       -0.3028
     11 C           0.4920   -3.3130    0.0000 C.3     1  LIG1        0.1231
     12 C           0.7500   -4.2670    0.0000 C.3     1  LIG1        0.1636
     13 O           1.7130   -4.5330    0.0000 O.3     1  LIG1       -0.3501
     14 C           2.4250   -3.8210    0.0000 C.3     1  LIG1        0.1636
     15 C           2.1670   -2.8540    0.0000 C.3     1  LIG1        0.1231
     16 C          -0.0330   -1.3830    0.0000 C.ar    1  LIG1        0.0146
     17 C          -0.2960   -0.4170    0.0000 C.ar    1  LIG1        0.0029
     18 C           0.4920    3.8330    0.0000 C.ar    1  LIG1        0.1362
     19 N          -0.2130    4.5330    0.0000 N.ar    1  LIG1       -0.2376
     20 C          -1.1830    4.2670    0.0000 C.ar    1  LIG1        0.1180
     21 C          -1.4420    3.3250    0.0000 C.ar    1  LIG1        0.1033
     22 N          -1.6290    1.0670    0.0000 N.pl3   1  LIG1       -0.1939
     23 C          -1.5830    0.0670    0.0000 C.ar    1  LIG1        0.0723
     24 C          -2.4290   -0.4630    0.0000 C.ar    1  LIG1        0.0197
     25 C          -2.3960   -1.4750    0.0000 C.ar    1  LIG1        0.0382
     26 C          -1.5170   -1.9500    0.0000 C.ar    1  LIG1        0.1388
     27 C          -0.6580   -1.4040    0.0000 C.ar    1  LIG1        0.0382
     28 C          -0.7000   -0.4000    0.0000 C.ar    1  LIG1        0.0197
     29 O          -1.4880   -2.9330    0.0000 O.3     1  LIG1       -0.4714
     30 C          -2.3380   -3.4630    0.0000 C.3     1  LIG1        0.2525
@<TRIPOS>BOND
     1     1     2   ar
     2     1     5   ar
     3     1    22    1
     4     2     3   ar
     5     2    21   ar
     6     3     4   ar
     7     3    18   ar
     8     4     5   ar
     9     5     6    1
    10     6     7   ar
    11     6    17   ar
    12     7     8   ar
    13     8     9   ar
    14     9    10    1
    15     9    16   ar
    16    10    11    1
    17    10    15    1
    18    11    12    1
    19    12    13    1
    20    13    14    1
    21    14    15    1
    22    16    17   ar
    23    18    19   ar
    24    19    20   ar
    25    20    21   ar
    26    22    23    1
    27    23    24   ar
    28    23    28   ar
    29    24    25   ar
    30    25    26   ar
    31    26    27   ar
    32    26    29    1
    33    27    28   ar
    34    29    30    1
