@<TRIPOS>MOLECULE
36092_ChemDiv_K221-2465
 31 34 0 0 0
SMALL
GASTEIGER
Energy = 0

@<TRIPOS>ATOM
      1 N           2.1630    3.2460    0.0000 N.ar    1  LIG1       -0.2474
      2 C           2.1630    4.2420    0.0000 C.ar    1  LIG1        0.3524
      3 N           3.0250    4.7420    0.0000 N.ar    1  LIG1       -0.1920
      4 C           3.8880    4.2420    0.0000 C.ar    1  LIG1        0.0906
      5 C           3.8880    3.2460    0.0000 C.ar    1  LIG1        0.0740
      6 C           3.0250    2.7500    0.0000 C.ar    1  LIG1        0.2657
      7 O           3.0250    1.7500    0.0000 O.2     1  LIG1       -0.2668
      8 C           4.7500    2.7500    0.0000 C.ar    1  LIG1        0.0063
      9 C           5.6250    3.2460    0.0000 C.ar    1  LIG1        0.0003
     10 C           5.6250    4.2420    0.0000 C.ar    1  LIG1        0.0016
     11 C           4.7500    4.7420    0.0000 C.ar    1  LIG1        0.0194
     12 O           1.2880    4.7540    0.0000 O.2     1  LIG1       -0.2444
     13 C           1.2880    2.7500    0.0000 C.3     1  LIG1        0.1136
     14 C           1.2880    1.7500    0.0000 C.3     1  LIG1        0.0248
     15 C           0.4250    1.2500    0.0000 C.3     1  LIG1        0.0025
     16 C           0.4250    0.2500    0.0000 C.3     1  LIG1        0.0096
     17 C          -0.4380   -0.2460    0.0000 C.3     1  LIG1        0.0853
     18 C          -0.4380   -1.2580    0.0000 C.2     1  LIG1        0.2259
     19 N          -1.3000   -1.7540    0.0000 N.am    1  LIG1       -0.2751
     20 C          -2.1630   -1.2580    0.0000 C.3     1  LIG1        0.1195
     21 C          -3.0290   -1.7540    0.0000 C.2     1  LIG1       -0.0089
     22 C          -3.0290   -2.7580    0.0000 C.2     1  LIG1       -0.0231
     23 C          -2.1630   -3.2580    0.0000 C.3     1  LIG1        0.0476
     24 C          -1.3000   -2.7580    0.0000 C.3     1  LIG1        0.0984
     25 C          -3.8920   -3.2580    0.0000 C.ar    1  LIG1       -0.0042
     26 C          -4.7540   -2.7580    0.0000 C.ar    1  LIG1       -0.0003
     27 C          -5.6290   -3.2580    0.0000 C.ar    1  LIG1       -0.0000
     28 C          -5.6290   -4.2580    0.0000 C.ar    1  LIG1       -0.0000
     29 C          -4.7540   -4.7540    0.0000 C.ar    1  LIG1       -0.0000
     30 C          -3.8920   -4.2580    0.0000 C.ar    1  LIG1       -0.0003
     31 O           0.4250   -1.7540    0.0000 O.2     1  LIG1       -0.2749
@<TRIPOS>BOND
     1     1     2   ar
     2     1     6   ar
     3     1    13    1
     4     2     3   ar
     5     2    12    2
     6     3     4   ar
     7     4     5   ar
     8     4    11   ar
     9     5     6   ar
    10     5     8   ar
    11     6     7    2
    12     8     9   ar
    13     9    10   ar
    14    10    11   ar
    15    13    14    1
    16    14    15    1
    17    15    16    1
    18    16    17    1
    19    17    18    1
    20    18    19   am
    21    18    31    2
    22    19    20    1
    23    19    24    1
    24    20    21    1
    25    21    22    2
    26    22    23    1
    27    22    25    1
    28    23    24    1
    29    25    26   ar
    30    25    30   ar
    31    26    27   ar
    32    27    28   ar
    33    28    29   ar
    34    29    30   ar
