@<TRIPOS>MOLECULE
36090_ChemDiv_C648-0452
 34 37 0 0 0
SMALL
GASTEIGER
Energy = 0

@<TRIPOS>ATOM
      1 N          -5.7170    1.7330    0.0000 N.ar    1  LIG1       -0.2467
      2 C          -6.2080    0.8580    0.0000 C.ar    1  LIG1        0.3339
      3 N          -5.7080   -0.0130    0.0000 N.ar    1  LIG1       -0.2791
      4 C          -4.6960   -0.0040    0.0000 C.ar    1  LIG1        0.0686
      5 C          -4.1960    0.8580    0.0000 C.ar    1  LIG1        0.0735
      6 C          -4.7040    1.7330    0.0000 C.ar    1  LIG1        0.2657
      7 O          -4.1920    2.6130    0.0000 O.2     1  LIG1       -0.2668
      8 C          -3.1830    0.8670    0.0000 C.ar    1  LIG1        0.0261
      9 C          -2.6790    0.0000    0.0000 C.ar    1  LIG1        0.1238
     10 S          -1.6750    0.0000    0.0000 S.O2    1  LIG1        0.0768
     11 O          -1.6830    1.0040    0.0000 O.2     1  LIG1       -0.1516
     12 O          -1.6710   -1.0040    0.0000 O.2     1  LIG1       -0.1516
     13 N          -0.6670    0.0000    0.0000 N.3     1  LIG1       -0.0773
     14 C          -0.1630   -0.8580    0.0000 C.3     1  LIG1        0.1250
     15 C           0.8540   -0.8580    0.0000 C.3     1  LIG1        0.1060
     16 C           1.3540   -1.7250    0.0000 C.2     1  LIG1        0.2274
     17 N           2.3630   -1.7250    0.0000 N.am    1  LIG1       -0.2751
     18 C           2.9040   -2.5420    0.0000 C.3     1  LIG1        0.1195
     19 C           3.8330   -2.5750    0.0000 C.2     1  LIG1       -0.0089
     20 C           4.3380   -1.7040    0.0000 C.2     1  LIG1       -0.0231
     21 C           3.8750   -0.8670    0.0000 C.3     1  LIG1        0.0476
     22 C           2.8710   -0.8540    0.0000 C.3     1  LIG1        0.0984
     23 C           5.2460   -1.7080    0.0000 C.ar    1  LIG1       -0.0042
     24 C           5.7330   -2.6080    0.0000 C.ar    1  LIG1       -0.0003
     25 C           6.7170   -2.5630    0.0000 C.ar    1  LIG1       -0.0000
     26 C           7.2250   -1.6880    0.0000 C.ar    1  LIG1       -0.0000
     27 C           6.7460   -0.8500    0.0000 C.ar    1  LIG1       -0.0000
     28 C           5.7460   -0.8380    0.0000 C.ar    1  LIG1       -0.0003
     29 O           0.8540   -2.6040    0.0000 O.2     1  LIG1       -0.2748
     30 C          -3.1830   -0.8790    0.0000 C.ar    1  LIG1        0.0214
     31 C          -4.1960   -0.8790    0.0000 C.ar    1  LIG1        0.0188
     32 C          -6.2210   -0.8880    0.0000 C.3     1  LIG1        0.1351
     33 O          -7.2250    0.8500    0.0000 O.2     1  LIG1       -0.2462
     34 C          -6.2210    2.6130    0.0000 C.3     1  LIG1        0.1382
@<TRIPOS>BOND
     1     1     2   ar
     2     1     6   ar
     3     1    34    1
     4     2     3   ar
     5     2    33    2
     6     3     4   ar
     7     3    32    1
     8     4     5   ar
     9     4    31   ar
    10     5     6   ar
    11     5     8   ar
    12     6     7    2
    13     8     9   ar
    14     9    10    1
    15     9    30   ar
    16    10    11    2
    17    10    12    2
    18    10    13    1
    19    13    14    1
    20    14    15    1
    21    15    16    1
    22    16    17   am
    23    16    29    2
    24    17    18    1
    25    17    22    1
    26    18    19    1
    27    19    20    2
    28    20    21    1
    29    20    23    1
    30    21    22    1
    31    23    24   ar
    32    23    28   ar
    33    24    25   ar
    34    25    26   ar
    35    26    27   ar
    36    27    28   ar
    37    30    31   ar
