@<TRIPOS>MOLECULE
36094_ChemDiv_K221-2740
 29 32 0 0 0
SMALL
GASTEIGER
Energy = 0

@<TRIPOS>ATOM
      1 N           1.7380    2.5000    0.0000 N.ar    1  LIG1       -0.2474
      2 C           1.7380    3.5000    0.0000 C.ar    1  LIG1        0.3524
      3 N           2.6000    4.0000    0.0000 N.ar    1  LIG1       -0.1920
      4 C           3.4630    3.5000    0.0000 C.ar    1  LIG1        0.0906
      5 C           3.4630    2.5000    0.0000 C.ar    1  LIG1        0.0740
      6 C           2.6000    2.0040    0.0000 C.ar    1  LIG1        0.2657
      7 O           2.6000    1.0040    0.0000 O.2     1  LIG1       -0.2668
      8 C           4.3250    2.0040    0.0000 C.ar    1  LIG1        0.0063
      9 C           5.1960    2.5000    0.0000 C.ar    1  LIG1        0.0003
     10 C           5.1960    3.5000    0.0000 C.ar    1  LIG1        0.0016
     11 C           4.3250    4.0000    0.0000 C.ar    1  LIG1        0.0194
     12 O           0.8630    4.0040    0.0000 O.2     1  LIG1       -0.2444
     13 C           0.8630    2.0040    0.0000 C.3     1  LIG1        0.1141
     14 C           0.8630    1.0040    0.0000 C.3     1  LIG1        0.0343
     15 C           0.0000    0.5040    0.0000 C.3     1  LIG1        0.0873
     16 C           0.0000   -0.4960    0.0000 C.2     1  LIG1        0.2259
     17 N          -0.8630   -0.9960    0.0000 N.am    1  LIG1       -0.2751
     18 C          -0.8630   -1.9920    0.0000 C.3     1  LIG1        0.1195
     19 C          -1.7210   -2.4920    0.0000 C.2     1  LIG1       -0.0089
     20 C          -2.6000   -1.9920    0.0000 C.2     1  LIG1       -0.0231
     21 C          -2.6000   -0.9960    0.0000 C.3     1  LIG1        0.0476
     22 C          -1.7290   -0.4960    0.0000 C.3     1  LIG1        0.0984
     23 C          -3.4630   -2.5040    0.0000 C.ar    1  LIG1       -0.0042
     24 C          -3.4460   -3.5040    0.0000 C.ar    1  LIG1       -0.0003
     25 C          -4.3080   -4.0040    0.0000 C.ar    1  LIG1       -0.0000
     26 C          -5.1920   -3.5170    0.0000 C.ar    1  LIG1       -0.0000
     27 C          -5.2000   -2.5170    0.0000 C.ar    1  LIG1       -0.0000
     28 C          -4.3290   -2.0080    0.0000 C.ar    1  LIG1       -0.0003
     29 O           0.8630   -0.9960    0.0000 O.2     1  LIG1       -0.2749
@<TRIPOS>BOND
     1     1     2   ar
     2     1     6   ar
     3     1    13    1
     4     2     3   ar
     5     2    12    2
     6     3     4   ar
     7     4     5   ar
     8     4    11   ar
     9     5     6   ar
    10     5     8   ar
    11     6     7    2
    12     8     9   ar
    13     9    10   ar
    14    10    11   ar
    15    13    14    1
    16    14    15    1
    17    15    16    1
    18    16    17   am
    19    16    29    2
    20    17    18    1
    21    17    22    1
    22    18    19    1
    23    19    20    2
    24    20    21    1
    25    20    23    1
    26    21    22    1
    27    23    24   ar
    28    23    28   ar
    29    24    25   ar
    30    25    26   ar
    31    26    27   ar
    32    27    28   ar
