@<TRIPOS>MOLECULE
36091_ChemDiv_C169-0291
 30 34 0 0 0
SMALL
GASTEIGER
Energy = 0

@<TRIPOS>ATOM
      1 C          -0.3130    1.2210    0.0000 C.ar    1  LIG1        0.1559
      2 N          -0.5250    2.2000    0.0000 N.ar    1  LIG1       -0.2732
      3 C           0.3380    2.7000    0.0000 C.ar    1  LIG1        0.1681
      4 N           1.0790    2.0250    0.0000 N.ar    1  LIG1       -0.2235
      5 C           0.6710    1.1250    0.0000 C.ar    1  LIG1        0.1148
      6 C           1.1330    0.2330    0.0000 C.ar    1  LIG1        0.0206
      7 C           2.1380    0.1880    0.0000 C.ar    1  LIG1        0.0029
      8 C           2.6040   -0.7000    0.0000 C.ar    1  LIG1        0.0146
      9 C           2.0630   -1.5500    0.0000 C.ar    1  LIG1        0.0480
     10 N           2.5170   -2.4290    0.0000 N.pl3   1  LIG1       -0.3028
     11 C           1.9830   -3.2750    0.0000 C.3     1  LIG1        0.1231
     12 C           2.4420   -4.1540    0.0000 C.3     1  LIG1        0.1636
     13 O           3.4420   -4.2080    0.0000 O.3     1  LIG1       -0.3501
     14 C           3.9710   -3.3670    0.0000 C.3     1  LIG1        0.1636
     15 C           3.5170   -2.4750    0.0000 C.3     1  LIG1        0.1231
     16 C           1.0500   -1.5040    0.0000 C.ar    1  LIG1        0.0146
     17 C           0.5920   -0.6130    0.0000 C.ar    1  LIG1        0.0029
     18 C           0.3380    3.7040    0.0000 C.ar    1  LIG1        0.1362
     19 N          -0.5250    4.2080    0.0000 N.ar    1  LIG1       -0.2376
     20 C          -1.3920    3.7040    0.0000 C.ar    1  LIG1        0.1180
     21 C          -1.3920    2.7000    0.0000 C.ar    1  LIG1        0.1033
     22 N          -0.9790    0.4750    0.0000 N.pl3   1  LIG1       -0.1946
     23 C          -1.9750    0.4830    0.0000 C.ar    1  LIG1        0.0642
     24 C          -2.4670    1.3540    0.0000 C.ar    1  LIG1       -0.0069
     25 C          -3.4670    1.3580    0.0000 C.ar    1  LIG1       -0.0030
     26 C          -3.9750    0.4960    0.0000 C.ar    1  LIG1       -0.0006
     27 C          -3.4750   -0.3710    0.0000 C.ar    1  LIG1       -0.0030
     28 C          -2.4750   -0.3710    0.0000 C.ar    1  LIG1       -0.0069
     29 C          -1.9750   -1.2330    0.0000 C.3     1  LIG1        0.0324
     30 C          -2.4750    2.3540    0.0000 C.3     1  LIG1        0.0324
@<TRIPOS>BOND
     1     1     2   ar
     2     1     5   ar
     3     1    22    1
     4     2     3   ar
     5     2    21   ar
     6     3     4   ar
     7     3    18   ar
     8     4     5   ar
     9     5     6    1
    10     6     7   ar
    11     6    17   ar
    12     7     8   ar
    13     8     9   ar
    14     9    10    1
    15     9    16   ar
    16    10    11    1
    17    10    15    1
    18    11    12    1
    19    12    13    1
    20    13    14    1
    21    14    15    1
    22    16    17   ar
    23    18    19   ar
    24    19    20   ar
    25    20    21   ar
    26    22    23    1
    27    23    24   ar
    28    23    28   ar
    29    24    25   ar
    30    24    30    1
    31    25    26   ar
    32    26    27   ar
    33    27    28   ar
    34    28    29    1
