@<TRIPOS>MOLECULE
36102_ChemDiv_K248-0309
 33 37 0 0 0
SMALL
GASTEIGER
Energy = 0

@<TRIPOS>ATOM
      1 S          -6.0210    2.0540    0.0000 S.O2    1  LIG1       -0.0018
      2 C          -5.1290    2.4630    0.0000 C.3     1  LIG1        0.2359
      3 C          -4.4540    1.7210    0.0000 C.3     1  LIG1        0.3549
      4 N          -3.4670    1.5170    0.0000 N.2     1  LIG1        0.0735
      5 C          -3.3630    0.5170    0.0000 C.2     1  LIG1        0.3942
      6 S          -4.2830    0.1040    0.0000 S.3     1  LIG1       -0.0135
      7 C          -4.9460    0.8630    0.0000 C.3     1  LIG1        0.1620
      8 C          -5.9210    1.0580    0.0000 C.3     1  LIG1        0.1696
      9 N          -2.5000    0.0170    0.0000 N.pl3   1  LIG1       -0.1427
     10 C          -1.6250    0.5170    0.0000 C.ar    1  LIG1        0.0731
     11 C          -0.7630    0.0170    0.0000 C.ar    1  LIG1        0.0210
     12 C           0.1130    0.5170    0.0000 C.ar    1  LIG1        0.0567
     13 C           0.9750    0.0210    0.0000 C.2     1  LIG1        0.2690
     14 N           1.8380    0.5170    0.0000 N.am    1  LIG1       -0.1754
     15 C           2.6960    0.0170    0.0000 C.ar    1  LIG1        0.0737
     16 C           3.5580    0.5000    0.0000 C.ar    1  LIG1        0.0166
     17 C           4.4290   -0.0170    0.0000 C.ar    1  LIG1        0.0013
     18 C           4.4210   -1.0080    0.0000 C.ar    1  LIG1        0.0001
     19 C           5.2750   -1.5130    0.0000 C.ar    1  LIG1        0.0000
     20 C           5.2670   -2.5080    0.0000 C.ar    1  LIG1        0.0000
     21 C           6.1250   -3.0170    0.0000 C.ar    1  LIG1        0.0000
     22 C           6.9880   -2.5250    0.0000 C.ar    1  LIG1        0.0000
     23 C           6.9960   -1.5250    0.0000 C.ar    1  LIG1        0.0000
     24 C           6.1420   -1.0210    0.0000 C.ar    1  LIG1        0.0000
     25 C           3.5420   -1.4960    0.0000 C.ar    1  LIG1        0.0013
     26 C           2.6830   -0.9920    0.0000 C.ar    1  LIG1        0.0166
     27 O           0.9750   -0.9790    0.0000 O.2     1  LIG1       -0.2680
     28 C           0.1130    1.5250    0.0000 C.ar    1  LIG1        0.0043
     29 C          -0.7630    2.0250    0.0000 C.ar    1  LIG1       -0.0028
     30 C          -1.6250    1.5250    0.0000 C.ar    1  LIG1       -0.0064
     31 C          -2.4920    2.0290    0.0000 C.3     1  LIG1        0.0324
     32 O          -6.9960    1.7960    0.0000 O.2     1  LIG1       -0.1727
     33 O          -6.2880    3.0210    0.0000 O.2     1  LIG1       -0.1727
@<TRIPOS>BOND
     1     1     2    1
     2     1     8    1
     3     1    32    2
     4     1    33    2
     5     2     3    1
     6     3     4    1
     7     3     7    1
     8     4     5    2
     9     5     6    1
    10     5     9    1
    11     6     7    1
    12     7     8    1
    13     9    10    1
    14    10    11   ar
    15    10    30   ar
    16    11    12   ar
    17    12    13    1
    18    12    28   ar
    19    13    14   am
    20    13    27    2
    21    14    15    1
    22    15    16   ar
    23    15    26   ar
    24    16    17   ar
    25    17    18   ar
    26    18    19    1
    27    18    25   ar
    28    19    20   ar
    29    19    24   ar
    30    20    21   ar
    31    21    22   ar
    32    22    23   ar
    33    23    24   ar
    34    25    26   ar
    35    28    29   ar
    36    29    30   ar
    37    30    31    1
