@<TRIPOS>MOLECULE
36100_ChemDiv_K248-0302
 32 36 0 0 0
SMALL
GASTEIGER
Energy = 0

@<TRIPOS>ATOM
      1 S          -3.8880    2.7670    0.0000 S.O2    1  LIG1       -0.0018
      2 C          -2.9960    3.1750    0.0000 C.3     1  LIG1        0.2359
      3 C          -2.3170    2.4330    0.0000 C.3     1  LIG1        0.3549
      4 N          -1.3330    2.2330    0.0000 N.2     1  LIG1        0.0735
      5 C          -1.2290    1.2330    0.0000 C.2     1  LIG1        0.3942
      6 S          -2.1460    0.8250    0.0000 S.3     1  LIG1       -0.0135
      7 C          -2.8130    1.5830    0.0000 C.3     1  LIG1        0.1620
      8 C          -3.7830    1.7790    0.0000 C.3     1  LIG1        0.1696
      9 N          -0.3630    0.7330    0.0000 N.pl3   1  LIG1       -0.1424
     10 C           0.5040    1.2330    0.0000 C.ar    1  LIG1        0.0769
     11 C           1.3710    0.7330    0.0000 C.ar    1  LIG1        0.0169
     12 C           2.2330    1.2330    0.0000 C.ar    1  LIG1        0.0059
     13 C           2.2330    2.2420    0.0000 C.ar    1  LIG1        0.0555
     14 C           3.0960    2.7500    0.0000 C.2     1  LIG1        0.2690
     15 N           3.9710    2.2500    0.0000 N.am    1  LIG1       -0.1754
     16 C           3.9710    1.2500    0.0000 C.ar    1  LIG1        0.0737
     17 C           4.8380    0.7670    0.0000 C.ar    1  LIG1        0.0166
     18 C           4.8500   -0.2330    0.0000 C.ar    1  LIG1        0.0013
     19 C           3.9750   -0.7500    0.0000 C.ar    1  LIG1        0.0001
     20 C           3.9880   -1.7460    0.0000 C.ar    1  LIG1        0.0000
     21 C           3.1130   -2.2460    0.0000 C.ar    1  LIG1        0.0000
     22 C           3.1210   -3.2460    0.0000 C.ar    1  LIG1        0.0000
     23 C           3.9920   -3.7460    0.0000 C.ar    1  LIG1        0.0000
     24 C           4.8540   -3.2380    0.0000 C.ar    1  LIG1        0.0000
     25 C           4.8500   -2.2380    0.0000 C.ar    1  LIG1        0.0000
     26 C           3.1130   -0.2500    0.0000 C.ar    1  LIG1        0.0013
     27 C           3.1130    0.7500    0.0000 C.ar    1  LIG1        0.0166
     28 O           3.0960    3.7500    0.0000 O.2     1  LIG1       -0.2680
     29 C           1.3710    2.7420    0.0000 C.ar    1  LIG1        0.0059
     30 C           0.5040    2.2420    0.0000 C.ar    1  LIG1        0.0169
     31 O          -4.8580    2.5080    0.0000 O.2     1  LIG1       -0.1727
     32 O          -4.1500    3.7330    0.0000 O.2     1  LIG1       -0.1727
@<TRIPOS>BOND
     1     1     2    1
     2     1     8    1
     3     1    31    2
     4     1    32    2
     5     2     3    1
     6     3     4    1
     7     3     7    1
     8     4     5    2
     9     5     6    1
    10     5     9    1
    11     6     7    1
    12     7     8    1
    13     9    10    1
    14    10    11   ar
    15    10    30   ar
    16    11    12   ar
    17    12    13   ar
    18    13    14    1
    19    13    29   ar
    20    14    15   am
    21    14    28    2
    22    15    16    1
    23    16    17   ar
    24    16    27   ar
    25    17    18   ar
    26    18    19   ar
    27    19    20    1
    28    19    26   ar
    29    20    21   ar
    30    20    25   ar
    31    21    22   ar
    32    22    23   ar
    33    23    24   ar
    34    24    25   ar
    35    26    27   ar
    36    29    30   ar
