@<TRIPOS>MOLECULE
36104_ChemDiv_K248-0328
 33 38 0 0 0
SMALL
GASTEIGER
Energy = 0

@<TRIPOS>ATOM
      1 S          -6.1130    1.2330    0.0000 S.O2    1  LIG1       -0.0018
      2 C          -5.2210    1.6420    0.0000 C.3     1  LIG1        0.2359
      3 C          -4.5460    0.9000    0.0000 C.3     1  LIG1        0.3549
      4 N          -3.5630    0.6960    0.0000 N.2     1  LIG1        0.0735
      5 C          -3.4540   -0.2920    0.0000 C.2     1  LIG1        0.3942
      6 S          -4.3750   -0.7170    0.0000 S.3     1  LIG1       -0.0135
      7 C          -5.0420    0.0420    0.0000 C.3     1  LIG1        0.1620
      8 C          -6.0080    0.2380    0.0000 C.3     1  LIG1        0.1696
      9 N          -2.5960   -0.8040    0.0000 N.pl3   1  LIG1       -0.1427
     10 C          -1.7210   -0.2920    0.0000 C.ar    1  LIG1        0.0731
     11 C          -0.8580   -0.8040    0.0000 C.ar    1  LIG1        0.0210
     12 C           0.0170   -0.2920    0.0000 C.ar    1  LIG1        0.0563
     13 C           0.8750   -0.8000    0.0000 C.2     1  LIG1        0.2648
     14 O           0.8750   -1.7960    0.0000 O.2     1  LIG1       -0.2684
     15 N           1.7290   -0.2920    0.0000 N.am    1  LIG1       -0.2017
     16 C           2.6250   -0.7460    0.0000 C.3     1  LIG1        0.1155
     17 C           3.4710   -0.1880    0.0000 C.3     1  LIG1        0.0234
     18 C           4.3750   -0.6380    0.0000 C.3     1  LIG1        0.0017
     19 C           5.2790   -0.1130    0.0000 C.3     1  LIG1        0.0001
     20 C           6.0830   -0.7170    0.0000 C.3     1  LIG1        0.0000
     21 C           5.7670   -1.6750    0.0000 C.3     1  LIG1        0.0000
     22 C           4.9000   -2.1920    0.0000 C.3     1  LIG1        0.0000
     23 C           4.2210   -1.6460    0.0000 C.3     1  LIG1        0.0001
     24 C           5.9130   -2.1750    0.0000 C.3     1  LIG1        0.0000
     25 C           6.2040   -1.1960    0.0000 C.3     1  LIG1        0.0000
     26 C           5.3880   -0.6250    0.0000 C.3     1  LIG1        0.0001
     27 C           7.0880   -0.8790    0.0000 C.3     1  LIG1        0.0000
     28 C           0.0170    0.7040    0.0000 C.ar    1  LIG1        0.0043
     29 C          -0.8580    1.2000    0.0000 C.ar    1  LIG1       -0.0028
     30 C          -1.7210    0.7040    0.0000 C.ar    1  LIG1       -0.0064
     31 C          -2.5880    1.2080    0.0000 C.3     1  LIG1        0.0324
     32 O          -7.0880    0.9750    0.0000 O.2     1  LIG1       -0.1727
     33 O          -6.3790    2.1960    0.0000 O.2     1  LIG1       -0.1727
@<TRIPOS>BOND
     1     1     2    1
     2     1     8    1
     3     1    32    2
     4     1    33    2
     5     2     3    1
     6     3     4    1
     7     3     7    1
     8     4     5    2
     9     5     6    1
    10     5     9    1
    11     6     7    1
    12     7     8    1
    13     9    10    1
    14    10    11   ar
    15    10    30   ar
    16    11    12   ar
    17    12    13    1
    18    12    28   ar
    19    13    14    2
    20    13    15   am
    21    15    16    1
    22    16    17    1
    23    17    18    1
    24    18    19    1
    25    18    23    1
    26    18    26    1
    27    19    20    1
    28    20    21    1
    29    20    27    1
    30    21    22    1
    31    22    23    1
    32    22    24    1
    33    24    25    1
    34    25    26    1
    35    25    27    1
    36    28    29   ar
    37    29    30   ar
    38    30    31    1
