@<TRIPOS>MOLECULE
36106_ChemDiv_C200-2104
 32 35 0 0 0
SMALL
GASTEIGER
Energy = 0

@<TRIPOS>ATOM
      1 S          -6.0460    1.6920    0.0000 S.O2    1  LIG1       -0.0018
      2 C          -5.0500    1.6000    0.0000 C.3     1  LIG1        0.2359
      3 C          -4.8250    0.6170    0.0000 C.3     1  LIG1        0.3549
      4 N          -4.0750   -0.0460    0.0000 N.2     1  LIG1        0.0735
      5 C          -4.4580   -0.9630    0.0000 C.2     1  LIG1        0.3942
      6 S          -5.4630   -0.8790    0.0000 S.3     1  LIG1       -0.0135
      7 C          -5.6880    0.1000    0.0000 C.3     1  LIG1        0.1620
      8 C          -6.4380    0.7670    0.0000 C.3     1  LIG1        0.1696
      9 N          -3.9460   -1.8250    0.0000 N.pl3   1  LIG1       -0.1424
     10 C          -2.9420   -1.8080    0.0000 C.ar    1  LIG1        0.0769
     11 C          -2.4250   -2.6580    0.0000 C.ar    1  LIG1        0.0169
     12 C          -1.4250   -2.6380    0.0000 C.ar    1  LIG1        0.0059
     13 C          -0.9460   -1.7500    0.0000 C.ar    1  LIG1        0.0551
     14 C           0.0630   -1.7170    0.0000 C.2     1  LIG1        0.2648
     15 O           0.5290   -0.8330    0.0000 O.2     1  LIG1       -0.2684
     16 N           0.5920   -2.5670    0.0000 N.am    1  LIG1       -0.2013
     17 C           1.5920   -2.5380    0.0000 C.3     1  LIG1        0.1201
     18 C           2.0580   -1.6540    0.0000 C.3     1  LIG1        0.0498
     19 C           3.0460   -1.6210    0.0000 C.ar    1  LIG1       -0.0203
     20 C           3.5710   -2.4630    0.0000 C.ar    1  LIG1       -0.0028
     21 C           4.5630   -2.4290    0.0000 C.ar    1  LIG1        0.0197
     22 C           5.0330   -1.5500    0.0000 C.ar    1  LIG1        0.1250
     23 S           6.0330   -1.5210    0.0000 S.O2    1  LIG1        0.0935
     24 O           6.0130   -0.5210    0.0000 O.2     1  LIG1       -0.1503
     25 O           6.0500   -2.5170    0.0000 O.2     1  LIG1       -0.1503
     26 N           7.0330   -1.5170    0.0000 N.3     1  LIG1        0.0392
     27 C           4.5000   -0.7040    0.0000 C.ar    1  LIG1        0.0197
     28 C           3.5130   -0.7500    0.0000 C.ar    1  LIG1       -0.0028
     29 C          -1.4710   -0.9080    0.0000 C.ar    1  LIG1        0.0059
     30 C          -2.4710   -0.9290    0.0000 C.ar    1  LIG1        0.0169
     31 O          -7.0330    1.9330    0.0000 O.2     1  LIG1       -0.1727
     32 O          -5.8210    2.6630    0.0000 O.2     1  LIG1       -0.1727
@<TRIPOS>BOND
     1     1     2    1
     2     1     8    1
     3     1    31    2
     4     1    32    2
     5     2     3    1
     6     3     4    1
     7     3     7    1
     8     4     5    2
     9     5     6    1
    10     5     9    1
    11     6     7    1
    12     7     8    1
    13     9    10    1
    14    10    11   ar
    15    10    30   ar
    16    11    12   ar
    17    12    13   ar
    18    13    14    1
    19    13    29   ar
    20    14    15    2
    21    14    16   am
    22    16    17    1
    23    17    18    1
    24    18    19    1
    25    19    20   ar
    26    19    28   ar
    27    20    21   ar
    28    21    22   ar
    29    22    23    1
    30    22    27   ar
    31    23    24    2
    32    23    25    2
    33    23    26    1
    34    27    28   ar
    35    29    30   ar
