@<TRIPOS>MOLECULE
36110_ChemDiv_C200-2332
 19 20 0 0 0
SMALL
GASTEIGER
Energy = 0

@<TRIPOS>ATOM
      1 S           0.0000   -0.0130    0.0000 S.O2    1  LIG1        0.0317
      2 C           0.8750    0.4830    0.0000 C.ar    1  LIG1        0.1640
      3 C           1.7330   -0.0130    0.0000 C.ar    1  LIG1        0.1907
      4 N           2.6080    0.4830    0.0000 N.ar    1  LIG1       -0.2009
      5 C           2.6080    1.4960    0.0000 C.ar    1  LIG1        0.2017
      6 N           1.7330    1.9960    0.0000 N.ar    1  LIG1       -0.2175
      7 C           0.8750    1.4880    0.0000 C.ar    1  LIG1        0.1227
      8 S           3.4710    1.9960    0.0000 S.2     1  LIG1       -0.0092
      9 N           1.7330   -1.0210    0.0000 N.pl3   1  LIG1       -0.1057
     10 C          -0.8630   -0.5130    0.0000 C.ar    1  LIG1        0.1101
     11 C          -1.7250    0.0040    0.0000 C.ar    1  LIG1        0.0142
     12 C          -2.6000   -0.4790    0.0000 C.ar    1  LIG1       -0.0245
     13 C          -2.6040   -1.4880    0.0000 C.ar    1  LIG1       -0.0257
     14 C          -1.7380   -1.9920    0.0000 C.ar    1  LIG1       -0.0032
     15 C          -0.8790   -1.5040    0.0000 C.ar    1  LIG1        0.0184
     16 C          -3.4750   -1.9750    0.0000 C.3     1  LIG1        0.0307
     17 C          -3.4500    0.0170    0.0000 C.3     1  LIG1        0.0307
     18 O          -0.5000    0.8460    0.0000 O.2     1  LIG1       -0.1641
     19 O           0.4960   -0.8830    0.0000 O.2     1  LIG1       -0.1641
@<TRIPOS>BOND
     1     1     2    1
     2     1    10    1
     3     1    18    2
     4     1    19    2
     5     2     3   ar
     6     2     7   ar
     7     3     4   ar
     8     3     9    1
     9     4     5   ar
    10     5     6   ar
    11     5     8    2
    12     6     7   ar
    13    10    11   ar
    14    10    15   ar
    15    11    12   ar
    16    12    13   ar
    17    12    17    1
    18    13    14   ar
    19    13    16    1
    20    14    15   ar
