@<TRIPOS>MOLECULE
36115_ChemDiv_C169-0204
 25 29 0 0 0
SMALL
GASTEIGER
Energy = 0

@<TRIPOS>ATOM
      1 C           1.5500   -0.3170    0.0000 C.ar    1  LIG1        0.1492
      2 C           0.5580   -0.2500    0.0000 C.ar    1  LIG1        0.1590
      3 N           0.3170    0.7250    0.0000 N.ar    1  LIG1       -0.2731
      4 C           1.1580    1.2540    0.0000 C.ar    1  LIG1        0.1683
      5 N           1.9290    0.6080    0.0000 N.ar    1  LIG1       -0.2204
      6 C           1.1290    2.2500    0.0000 C.ar    1  LIG1        0.1362
      7 N           0.2380    2.7210    0.0000 N.ar    1  LIG1       -0.2376
      8 C          -0.6040    2.1880    0.0000 C.ar    1  LIG1        0.1180
      9 C          -0.5750    1.1960    0.0000 C.ar    1  LIG1        0.1033
     10 N          -0.1540   -0.9580    0.0000 N.pl3   1  LIG1       -0.1937
     11 C          -1.1540   -0.9500    0.0000 C.ar    1  LIG1        0.0754
     12 C          -1.6630   -1.8080    0.0000 C.ar    1  LIG1        0.0567
     13 C          -2.6580   -1.8080    0.0000 C.ar    1  LIG1        0.1777
     14 C          -3.1580   -0.9460    0.0000 C.ar    1  LIG1        0.1765
     15 O          -4.1380   -1.1460    0.0000 O.3     1  LIG1       -0.4346
     16 C          -4.2460   -2.1420    0.0000 C.3     1  LIG1        0.4294
     17 O          -3.3290   -2.5500    0.0000 O.3     1  LIG1       -0.4346
     18 C          -2.6580   -0.0750    0.0000 C.ar    1  LIG1        0.0415
     19 C          -1.6540   -0.0750    0.0000 C.ar    1  LIG1        0.0199
     20 C           2.0790   -1.1540    0.0000 C.ar    1  LIG1        0.1652
     21 O           3.0750   -1.2210    0.0000 O.2     1  LIG1       -0.4561
     22 C           3.3130   -2.1880    0.0000 C.ar    1  LIG1        0.1234
     23 C           2.4710   -2.7170    0.0000 C.ar    1  LIG1        0.0361
     24 C           1.7130   -2.1000    0.0000 C.ar    1  LIG1        0.0419
     25 C           4.2420   -2.5630    0.0000 C.3     1  LIG1        0.0725
@<TRIPOS>BOND
     1     1     2   ar
     2     1     5   ar
     3     1    20    1
     4     2     3   ar
     5     2    10    1
     6     3     4   ar
     7     3     9   ar
     8     4     5   ar
     9     4     6   ar
    10     6     7   ar
    11     7     8   ar
    12     8     9   ar
    13    10    11    1
    14    11    12   ar
    15    11    19   ar
    16    12    13   ar
    17    13    14   ar
    18    13    17    1
    19    14    15    1
    20    14    18   ar
    21    15    16    1
    22    16    17    1
    23    18    19   ar
    24    20    21   ar
    25    20    24   ar
    26    21    22   ar
    27    22    23   ar
    28    22    25    1
    29    23    24   ar
