@<TRIPOS>MOLECULE
36112_ChemDiv_C717-0379
 20 21 0 0 0
SMALL
GASTEIGER
Energy = 0

@<TRIPOS>ATOM
      1 C           1.3000   -1.0040    0.0000 C.ar    1  LIG1        0.1640
      2 S           0.4380   -0.5040    0.0000 S.O2    1  LIG1        0.0317
      3 C          -0.4290   -0.0040    0.0000 C.ar    1  LIG1        0.1104
      4 C          -0.4290    1.0080    0.0000 C.ar    1  LIG1        0.0184
      5 C          -1.3000    1.5080    0.0000 C.ar    1  LIG1       -0.0029
      6 C          -2.1630    1.0080    0.0000 C.ar    1  LIG1       -0.0224
      7 C          -2.1630   -0.0040    0.0000 C.ar    1  LIG1       -0.0029
      8 C          -1.3000   -0.5040    0.0000 C.ar    1  LIG1        0.0184
      9 C          -3.0290    1.5080    0.0000 C.3     1  LIG1        0.0224
     10 C          -3.0290    2.5040    0.0000 C.3     1  LIG1        0.0047
     11 C          -3.8920    1.0000    0.0000 C.3     1  LIG1        0.0047
     12 O          -0.0630   -1.3670    0.0000 O.2     1  LIG1       -0.1641
     13 O           0.9380    0.3580    0.0000 O.2     1  LIG1       -0.1641
     14 C           2.1630   -0.5000    0.0000 C.ar    1  LIG1        0.1907
     15 N           3.0250   -1.0040    0.0000 N.ar    1  LIG1       -0.2009
     16 C           3.0250   -2.0040    0.0000 C.ar    1  LIG1        0.2017
     17 N           2.1630   -2.4960    0.0000 N.ar    1  LIG1       -0.2175
     18 C           1.3000   -2.0040    0.0000 C.ar    1  LIG1        0.1227
     19 S           3.8880   -2.5000    0.0000 S.2     1  LIG1       -0.0092
     20 N           2.1630    0.5000    0.0000 N.pl3   1  LIG1       -0.1057
@<TRIPOS>BOND
     1     1     2    1
     2     1    14   ar
     3     1    18   ar
     4     2     3    1
     5     2    12    2
     6     2    13    2
     7     3     4   ar
     8     3     8   ar
     9     4     5   ar
    10     5     6   ar
    11     6     7   ar
    12     6     9    1
    13     7     8   ar
    14     9    10    1
    15     9    11    1
    16    14    15   ar
    17    14    20    1
    18    15    16   ar
    19    16    17   ar
    20    16    19    2
    21    17    18   ar
