@<TRIPOS>MOLECULE
36114_ChemDiv_C197-0341
 30 33 0 0 0
SMALL
GASTEIGER
Energy = 0

@<TRIPOS>ATOM
      1 N           0.8080    3.7830    0.0000 N.ar    1  LIG1       -0.2852
      2 C           1.6710    3.2880    0.0000 C.ar    1  LIG1        0.2612
      3 C           2.5420    3.7790    0.0000 C.ar    1  LIG1        0.0562
      4 C           2.5460    4.7630    0.0000 C.ar    1  LIG1        0.0061
      5 C           1.6960    5.2750    0.0000 C.ar    1  LIG1        0.0189
      6 C           0.8250    4.7880    0.0000 C.ar    1  LIG1        0.0788
      7 C           3.4170    5.2630    0.0000 C.ar    1  LIG1        0.0002
      8 C           4.2750    4.7630    0.0000 C.ar    1  LIG1        0.0000
      9 C           4.2670    3.7710    0.0000 C.ar    1  LIG1        0.0002
     10 C           3.3920    3.2710    0.0000 C.ar    1  LIG1        0.0047
     11 O           1.6710    2.2880    0.0000 O.2     1  LIG1       -0.2670
     12 C          -0.0670    3.3040    0.0000 C.3     1  LIG1        0.1958
     13 C          -0.0670    2.3040    0.0000 C.2     1  LIG1        0.2646
     14 O          -0.9420    1.8170    0.0000 O.2     1  LIG1       -0.2712
     15 N           0.7920    1.8000    0.0000 N.am    1  LIG1       -0.2033
     16 C           0.7830    0.7960    0.0000 C.3     1  LIG1        0.1248
     17 C          -0.0790    0.3080    0.0000 C.3     1  LIG1        0.1102
     18 C          -0.0960   -0.6790    0.0000 C.2     1  LIG1        0.2435
     19 N          -0.9540   -1.1750    0.0000 N.am    1  LIG1       -0.2005
     20 C          -0.9540   -2.1830    0.0000 C.3     1  LIG1        0.1416
     21 C          -1.8170   -2.6830    0.0000 C.ar    1  LIG1        0.0027
     22 C          -1.8170   -3.6830    0.0000 C.ar    1  LIG1        0.0376
     23 C          -2.6710   -4.1920    0.0000 C.ar    1  LIG1        0.1762
     24 C          -3.5290   -3.6960    0.0000 C.ar    1  LIG1        0.1764
     25 O          -4.2790   -4.3750    0.0000 O.3     1  LIG1       -0.4346
     26 C          -3.8630   -5.2750    0.0000 C.3     1  LIG1        0.4294
     27 O          -2.8790   -5.1750    0.0000 O.3     1  LIG1       -0.4346
     28 C          -3.5460   -2.6960    0.0000 C.ar    1  LIG1        0.0399
     29 C          -2.6790   -2.1880    0.0000 C.ar    1  LIG1        0.0008
     30 O           0.8380   -1.2080    0.0000 O.2     1  LIG1       -0.2733
@<TRIPOS>BOND
     1     1     2   ar
     2     1     6   ar
     3     1    12    1
     4     2     3   ar
     5     2    11    2
     6     3     4   ar
     7     3    10   ar
     8     4     5   ar
     9     4     7   ar
    10     5     6   ar
    11     7     8   ar
    12     8     9   ar
    13     9    10   ar
    14    12    13    1
    15    13    14    2
    16    13    15   am
    17    15    16    1
    18    16    17    1
    19    17    18    1
    20    18    19   am
    21    18    30    2
    22    19    20    1
    23    20    21    1
    24    21    22   ar
    25    21    29   ar
    26    22    23   ar
    27    23    24   ar
    28    23    27    1
    29    24    25    1
    30    24    28   ar
    31    25    26    1
    32    26    27    1
    33    28    29   ar
