@<TRIPOS>MOLECULE
36113_ChemDiv_C169-0391
 31 35 0 0 0
SMALL
GASTEIGER
Energy = 0

@<TRIPOS>ATOM
      1 C          -1.1960    1.0170    0.0000 C.ar    1  LIG1        0.1559
      2 N          -1.5080    1.9710    0.0000 N.ar    1  LIG1       -0.2732
      3 C          -0.7080    2.5580    0.0000 C.ar    1  LIG1        0.1681
      4 N           0.1130    1.9710    0.0000 N.ar    1  LIG1       -0.2235
      5 C          -0.1960    1.0170    0.0000 C.ar    1  LIG1        0.1148
      6 C           0.3830    0.2130    0.0000 C.ar    1  LIG1        0.0206
      7 C           1.3710    0.3170    0.0000 C.ar    1  LIG1        0.0029
      8 C           1.9580   -0.4830    0.0000 C.ar    1  LIG1        0.0146
      9 C           1.5500   -1.4080    0.0000 C.ar    1  LIG1        0.0480
     10 N           2.1420   -2.2210    0.0000 N.pl3   1  LIG1       -0.3028
     11 C           3.1380   -2.1210    0.0000 C.3     1  LIG1        0.1231
     12 C           3.7170   -2.9250    0.0000 C.3     1  LIG1        0.1636
     13 O           3.3170   -3.8330    0.0000 O.3     1  LIG1       -0.3501
     14 C           2.3250   -3.9500    0.0000 C.3     1  LIG1        0.1636
     15 C           1.7330   -3.1380    0.0000 C.3     1  LIG1        0.1231
     16 C           0.5630   -1.5040    0.0000 C.ar    1  LIG1        0.0146
     17 C          -0.0250   -0.6960    0.0000 C.ar    1  LIG1        0.0029
     18 C          -0.8170    3.5580    0.0000 C.ar    1  LIG1        0.1362
     19 N          -1.7380    3.9540    0.0000 N.ar    1  LIG1       -0.2376
     20 C          -2.5380    3.3540    0.0000 C.ar    1  LIG1        0.1180
     21 C          -2.4330    2.3540    0.0000 C.ar    1  LIG1        0.1033
     22 N          -1.7080    0.1500    0.0000 N.pl3   1  LIG1       -0.1946
     23 C          -2.2130   -0.7130    0.0000 C.ar    1  LIG1        0.0641
     24 C          -3.2210   -0.6960    0.0000 C.ar    1  LIG1       -0.0069
     25 C          -3.7210   -1.5630    0.0000 C.ar    1  LIG1       -0.0030
     26 C          -3.2250   -2.4330    0.0000 C.ar    1  LIG1       -0.0006
     27 C          -2.2210   -2.4330    0.0000 C.ar    1  LIG1       -0.0030
     28 C          -1.7210   -1.5710    0.0000 C.ar    1  LIG1       -0.0072
     29 C          -0.7210   -1.5750    0.0000 C.3     1  LIG1        0.0277
     30 C          -0.0170   -2.2830    0.0000 C.3     1  LIG1        0.0051
     31 C          -3.7130    0.1670    0.0000 C.3     1  LIG1        0.0324
@<TRIPOS>BOND
     1     1     2   ar
     2     1     5   ar
     3     1    22    1
     4     2     3   ar
     5     2    21   ar
     6     3     4   ar
     7     3    18   ar
     8     4     5   ar
     9     5     6    1
    10     6     7   ar
    11     6    17   ar
    12     7     8   ar
    13     8     9   ar
    14     9    10    1
    15     9    16   ar
    16    10    11    1
    17    10    15    1
    18    11    12    1
    19    12    13    1
    20    13    14    1
    21    14    15    1
    22    16    17   ar
    23    18    19   ar
    24    19    20   ar
    25    20    21   ar
    26    22    23    1
    27    23    24   ar
    28    23    28   ar
    29    24    25   ar
    30    24    31    1
    31    25    26   ar
    32    26    27   ar
    33    27    28   ar
    34    28    29    1
    35    29    30    1
