@<TRIPOS>MOLECULE
36117_ChemDiv_C169-0212
 27 31 0 0 0
SMALL
GASTEIGER
Energy = 0

@<TRIPOS>ATOM
      1 C           1.1380    0.2960    0.0000 C.ar    1  LIG1        0.1559
      2 N           0.8880    1.2710    0.0000 N.ar    1  LIG1       -0.2732
      3 C           1.7330    1.8040    0.0000 C.ar    1  LIG1        0.1681
      4 N           2.5040    1.1580    0.0000 N.ar    1  LIG1       -0.2235
      5 C           2.1330    0.2290    0.0000 C.ar    1  LIG1        0.1148
      6 C           2.6630   -0.6130    0.0000 C.ar    1  LIG1        0.0207
      7 C           3.6460   -0.6750    0.0000 C.ar    1  LIG1        0.0049
      8 C           4.0960   -1.5540    0.0000 C.ar    1  LIG1        0.0421
      9 C           3.5540   -2.3750    0.0000 C.ar    1  LIG1        0.1957
     10 C           2.5670   -2.3250    0.0000 C.ar    1  LIG1        0.0421
     11 C           2.1170   -1.4330    0.0000 C.ar    1  LIG1        0.0049
     12 O           4.0080   -3.2670    0.0000 O.3     1  LIG1       -0.2866
     13 C           1.7040    2.8000    0.0000 C.ar    1  LIG1        0.1362
     14 N           0.8170    3.2710    0.0000 N.ar    1  LIG1       -0.2376
     15 C          -0.0330    2.7380    0.0000 C.ar    1  LIG1        0.1180
     16 C          -0.0040    1.7420    0.0000 C.ar    1  LIG1        0.1033
     17 N           0.4170   -0.4170    0.0000 N.pl3   1  LIG1       -0.1938
     18 C          -0.5920   -0.4080    0.0000 C.ar    1  LIG1        0.0754
     19 C          -1.0920    0.4710    0.0000 C.ar    1  LIG1        0.0566
     20 C          -2.0880    0.4710    0.0000 C.ar    1  LIG1        0.1737
     21 C          -2.5920   -0.3920    0.0000 C.ar    1  LIG1        0.1725
     22 O          -3.6000   -0.3920    0.0000 O.3     1  LIG1       -0.4684
     23 C          -4.1000    0.4830    0.0000 C.3     1  LIG1        0.2526
     24 C          -3.5920    1.3460    0.0000 C.3     1  LIG1        0.2526
     25 O          -2.5880    1.3380    0.0000 O.3     1  LIG1       -0.4683
     26 C          -2.0880   -1.2670    0.0000 C.ar    1  LIG1        0.0414
     27 C          -1.0920   -1.2670    0.0000 C.ar    1  LIG1        0.0199
@<TRIPOS>BOND
     1     1     2   ar
     2     1     5   ar
     3     1    17    1
     4     2     3   ar
     5     2    16   ar
     6     3     4   ar
     7     3    13   ar
     8     4     5   ar
     9     5     6    1
    10     6     7   ar
    11     6    11   ar
    12     7     8   ar
    13     8     9   ar
    14     9    10   ar
    15     9    12    1
    16    10    11   ar
    17    13    14   ar
    18    14    15   ar
    19    15    16   ar
    20    17    18    1
    21    18    19   ar
    22    18    27   ar
    23    19    20   ar
    24    20    21   ar
    25    20    25    1
    26    21    22    1
    27    21    26   ar
    28    22    23    1
    29    23    24    1
    30    24    25    1
    31    26    27   ar
