@<TRIPOS>MOLECULE
36119_ChemDiv_C169-0216
 32 37 0 0 0
SMALL
GASTEIGER
Energy = 0

@<TRIPOS>ATOM
      1 C           0.2880    1.0960    0.0000 C.ar    1  LIG1        0.1559
      2 N           0.0420    2.0710    0.0000 N.ar    1  LIG1       -0.2732
      3 C           0.8830    2.6130    0.0000 C.ar    1  LIG1        0.1681
      4 N           1.6580    1.9580    0.0000 N.ar    1  LIG1       -0.2235
      5 C           1.2830    1.0380    0.0000 C.ar    1  LIG1        0.1148
      6 C           1.8130    0.1920    0.0000 C.ar    1  LIG1        0.0206
      7 C           2.8040    0.2380    0.0000 C.ar    1  LIG1        0.0029
      8 C           3.3380   -0.6040    0.0000 C.ar    1  LIG1        0.0146
      9 C           2.8670   -1.4830    0.0000 C.ar    1  LIG1        0.0480
     10 N           3.4000   -2.3290    0.0000 N.pl3   1  LIG1       -0.3028
     11 C           4.3960   -2.3000    0.0000 C.3     1  LIG1        0.1231
     12 C           4.9380   -3.1290    0.0000 C.3     1  LIG1        0.1636
     13 O           4.4710   -4.0210    0.0000 O.3     1  LIG1       -0.3501
     14 C           3.4750   -4.0710    0.0000 C.3     1  LIG1        0.1636
     15 C           2.9460   -3.2210    0.0000 C.3     1  LIG1        0.1231
     16 C           1.8750   -1.5290    0.0000 C.ar    1  LIG1        0.0146
     17 C           1.3460   -0.6880    0.0000 C.ar    1  LIG1        0.0029
     18 C           0.8540    3.5960    0.0000 C.ar    1  LIG1        0.1362
     19 N          -0.0290    4.0710    0.0000 N.ar    1  LIG1       -0.2376
     20 C          -0.8830    3.5460    0.0000 C.ar    1  LIG1        0.1180
     21 C          -0.8500    2.5380    0.0000 C.ar    1  LIG1        0.1033
     22 N          -0.4290    0.3880    0.0000 N.pl3   1  LIG1       -0.1938
     23 C          -1.4380    0.3920    0.0000 C.ar    1  LIG1        0.0754
     24 C          -1.9330    1.2670    0.0000 C.ar    1  LIG1        0.0566
     25 C          -2.9290    1.2790    0.0000 C.ar    1  LIG1        0.1737
     26 C          -3.4330    0.4080    0.0000 C.ar    1  LIG1        0.1725
     27 O          -4.4420    0.4210    0.0000 O.3     1  LIG1       -0.4684
     28 C          -4.9420    1.2830    0.0000 C.3     1  LIG1        0.2526
     29 C          -4.4330    2.1460    0.0000 C.3     1  LIG1        0.2526
     30 O          -3.4290    2.1420    0.0000 O.3     1  LIG1       -0.4683
     31 C          -2.9290   -0.4580    0.0000 C.ar    1  LIG1        0.0414
     32 C          -1.9330   -0.4670    0.0000 C.ar    1  LIG1        0.0199
@<TRIPOS>BOND
     1     1     2   ar
     2     1     5   ar
     3     1    22    1
     4     2     3   ar
     5     2    21   ar
     6     3     4   ar
     7     3    18   ar
     8     4     5   ar
     9     5     6    1
    10     6     7   ar
    11     6    17   ar
    12     7     8   ar
    13     8     9   ar
    14     9    10    1
    15     9    16   ar
    16    10    11    1
    17    10    15    1
    18    11    12    1
    19    12    13    1
    20    13    14    1
    21    14    15    1
    22    16    17   ar
    23    18    19   ar
    24    19    20   ar
    25    20    21   ar
    26    22    23    1
    27    23    24   ar
    28    23    32   ar
    29    24    25   ar
    30    25    26   ar
    31    25    30    1
    32    26    27    1
    33    26    31   ar
    34    27    28    1
    35    28    29    1
    36    29    30    1
    37    31    32   ar
