@<TRIPOS>MOLECULE
36127_ChemDiv_C169-0226
 27 31 0 0 0
SMALL
GASTEIGER
Energy = 0

@<TRIPOS>ATOM
      1 C           0.3330   -0.4000    0.0000 C.ar    1  LIG1        0.1559
      2 N          -0.1670    0.4630    0.0000 N.ar    1  LIG1       -0.2732
      3 C           0.5040    1.2080    0.0000 C.ar    1  LIG1        0.1681
      4 N           1.4130    0.7960    0.0000 N.ar    1  LIG1       -0.2235
      5 C           1.3040   -0.1880    0.0000 C.ar    1  LIG1        0.1148
      6 C           2.1460   -0.7290    0.0000 C.ar    1  LIG1        0.0205
      7 C           2.0920   -1.7290    0.0000 C.ar    1  LIG1        0.0013
      8 C           2.9250   -2.2750    0.0000 C.ar    1  LIG1       -0.0042
      9 C           3.8170   -1.8210    0.0000 C.ar    1  LIG1       -0.0218
     10 C           3.8790   -0.8250    0.0000 C.ar    1  LIG1       -0.0042
     11 C           3.0330   -0.2750    0.0000 C.ar    1  LIG1        0.0013
     12 C           4.6670   -2.3670    0.0000 C.3     1  LIG1        0.0310
     13 C           0.2000    2.1580    0.0000 C.ar    1  LIG1        0.1362
     14 N          -0.7710    2.3710    0.0000 N.ar    1  LIG1       -0.2376
     15 C          -1.4500    1.6170    0.0000 C.ar    1  LIG1        0.1180
     16 C          -1.1380    0.6750    0.0000 C.ar    1  LIG1        0.1033
     17 N          -0.1670   -1.2710    0.0000 N.pl3   1  LIG1       -0.1938
     18 C          -1.1670   -1.2710    0.0000 C.ar    1  LIG1        0.0754
     19 C          -1.6670   -0.4080    0.0000 C.ar    1  LIG1        0.0566
     20 C          -2.6750   -0.4080    0.0000 C.ar    1  LIG1        0.1737
     21 C          -3.1750   -1.2710    0.0000 C.ar    1  LIG1        0.1725
     22 O          -4.1750   -1.2710    0.0000 O.3     1  LIG1       -0.4684
     23 C          -4.6710   -0.4080    0.0000 C.3     1  LIG1        0.2526
     24 C          -4.1750    0.4630    0.0000 C.3     1  LIG1        0.2526
     25 O          -3.1750    0.4630    0.0000 O.3     1  LIG1       -0.4683
     26 C          -2.6750   -2.1380    0.0000 C.ar    1  LIG1        0.0414
     27 C          -1.6670   -2.1380    0.0000 C.ar    1  LIG1        0.0199
@<TRIPOS>BOND
     1     1     2   ar
     2     1     5   ar
     3     1    17    1
     4     2     3   ar
     5     2    16   ar
     6     3     4   ar
     7     3    13   ar
     8     4     5   ar
     9     5     6    1
    10     6     7   ar
    11     6    11   ar
    12     7     8   ar
    13     8     9   ar
    14     9    10   ar
    15     9    12    1
    16    10    11   ar
    17    13    14   ar
    18    14    15   ar
    19    15    16   ar
    20    17    18    1
    21    18    19   ar
    22    18    27   ar
    23    19    20   ar
    24    20    21   ar
    25    20    25    1
    26    21    22    1
    27    21    26   ar
    28    22    23    1
    29    23    24    1
    30    24    25    1
    31    26    27   ar
