@<TRIPOS>MOLECULE
36121_ChemDiv_C169-0219
 29 33 0 0 0
SMALL
GASTEIGER
Energy = 0

@<TRIPOS>ATOM
      1 C           0.3580    0.2250    0.0000 C.ar    1  LIG1        0.1559
      2 N           0.1130    1.2040    0.0000 N.ar    1  LIG1       -0.2732
      3 C           0.9580    1.7330    0.0000 C.ar    1  LIG1        0.1681
      4 N           1.7290    1.0880    0.0000 N.ar    1  LIG1       -0.2235
      5 C           1.3540    0.1630    0.0000 C.ar    1  LIG1        0.1149
      6 C           1.8830   -0.6790    0.0000 C.ar    1  LIG1        0.0237
      7 C           2.8790   -0.6420    0.0000 C.ar    1  LIG1        0.0418
      8 C           3.4130   -1.4710    0.0000 C.ar    1  LIG1        0.1774
      9 C           2.9420   -2.3630    0.0000 C.ar    1  LIG1        0.2293
     10 C           1.9460   -2.4000    0.0000 C.ar    1  LIG1        0.0453
     11 C           1.4170   -1.5630    0.0000 C.ar    1  LIG1        0.0051
     12 O           3.4710   -3.1920    0.0000 O.3     1  LIG1       -0.2833
     13 O           4.4080   -1.4380    0.0000 O.3     1  LIG1       -0.4682
     14 C           4.8630   -0.5500    0.0000 C.3     1  LIG1        0.2526
     15 C           0.9290    2.7290    0.0000 C.ar    1  LIG1        0.1362
     16 N           0.0460    3.1960    0.0000 N.ar    1  LIG1       -0.2376
     17 C          -0.8080    2.6710    0.0000 C.ar    1  LIG1        0.1180
     18 C          -0.7790    1.6710    0.0000 C.ar    1  LIG1        0.1033
     19 N          -0.3540   -0.4830    0.0000 N.pl3   1  LIG1       -0.1938
     20 C          -1.3630   -0.4750    0.0000 C.ar    1  LIG1        0.0754
     21 C          -1.8630    0.4040    0.0000 C.ar    1  LIG1        0.0566
     22 C          -2.8580    0.4040    0.0000 C.ar    1  LIG1        0.1737
     23 C          -3.3580   -0.4580    0.0000 C.ar    1  LIG1        0.1725
     24 O          -4.3710   -0.4580    0.0000 O.3     1  LIG1       -0.4684
     25 C          -4.8670    0.4170    0.0000 C.3     1  LIG1        0.2526
     26 C          -4.3580    1.2790    0.0000 C.3     1  LIG1        0.2526
     27 O          -3.3580    1.2670    0.0000 O.3     1  LIG1       -0.4683
     28 C          -2.8580   -1.3330    0.0000 C.ar    1  LIG1        0.0414
     29 C          -1.8630   -1.3330    0.0000 C.ar    1  LIG1        0.0199
@<TRIPOS>BOND
     1     1     2   ar
     2     1     5   ar
     3     1    19    1
     4     2     3   ar
     5     2    18   ar
     6     3     4   ar
     7     3    15   ar
     8     4     5   ar
     9     5     6    1
    10     6     7   ar
    11     6    11   ar
    12     7     8   ar
    13     8     9   ar
    14     8    13    1
    15     9    10   ar
    16     9    12    1
    17    10    11   ar
    18    13    14    1
    19    15    16   ar
    20    16    17   ar
    21    17    18   ar
    22    19    20    1
    23    20    21   ar
    24    20    29   ar
    25    21    22   ar
    26    22    23   ar
    27    22    27    1
    28    23    24    1
    29    23    28   ar
    30    24    25    1
    31    25    26    1
    32    26    27    1
    33    28    29   ar
