@<TRIPOS>MOLECULE
36123_ChemDiv_C169-0223
 26 30 0 0 0
SMALL
GASTEIGER
Energy = 0

@<TRIPOS>ATOM
      1 C           0.7580   -0.3960    0.0000 C.ar    1  LIG1        0.1559
      2 N           0.2580    0.4630    0.0000 N.ar    1  LIG1       -0.2732
      3 C           0.9290    1.2080    0.0000 C.ar    1  LIG1        0.1681
      4 N           1.8380    0.7960    0.0000 N.ar    1  LIG1       -0.2235
      5 C           1.7330   -0.1880    0.0000 C.ar    1  LIG1        0.1148
      6 C           2.5040   -0.8210    0.0000 C.ar    1  LIG1        0.0205
      7 C           2.4540   -1.8210    0.0000 C.ar    1  LIG1        0.0016
      8 C           3.2920   -2.3670    0.0000 C.ar    1  LIG1        0.0000
      9 C           4.1830   -1.9130    0.0000 C.ar    1  LIG1        0.0000
     10 C           4.2420   -0.9080    0.0000 C.ar    1  LIG1        0.0000
     11 C           3.4000   -0.3670    0.0000 C.ar    1  LIG1        0.0016
     12 C           0.6290    2.1580    0.0000 C.ar    1  LIG1        0.1362
     13 N          -0.3380    2.3710    0.0000 N.ar    1  LIG1       -0.2376
     14 C          -1.0210    1.6210    0.0000 C.ar    1  LIG1        0.1180
     15 C          -0.7080    0.6750    0.0000 C.ar    1  LIG1        0.1033
     16 N           0.2580   -1.2710    0.0000 N.pl3   1  LIG1       -0.1938
     17 C          -0.7380   -1.2710    0.0000 C.ar    1  LIG1        0.0754
     18 C          -1.2380   -0.4080    0.0000 C.ar    1  LIG1        0.0566
     19 C          -2.2460   -0.4080    0.0000 C.ar    1  LIG1        0.1737
     20 C          -2.7460   -1.2710    0.0000 C.ar    1  LIG1        0.1725
     21 O          -3.7460   -1.2710    0.0000 O.3     1  LIG1       -0.4684
     22 C          -4.2460   -0.4080    0.0000 C.3     1  LIG1        0.2526
     23 C          -3.7460    0.4630    0.0000 C.3     1  LIG1        0.2526
     24 O          -2.7460    0.4630    0.0000 O.3     1  LIG1       -0.4683
     25 C          -2.2460   -2.1380    0.0000 C.ar    1  LIG1        0.0414
     26 C          -1.2380   -2.1380    0.0000 C.ar    1  LIG1        0.0199
@<TRIPOS>BOND
     1     1     2   ar
     2     1     5   ar
     3     1    16    1
     4     2     3   ar
     5     2    15   ar
     6     3     4   ar
     7     3    12   ar
     8     4     5   ar
     9     5     6    1
    10     6     7   ar
    11     6    11   ar
    12     7     8   ar
    13     8     9   ar
    14     9    10   ar
    15    10    11   ar
    16    12    13   ar
    17    13    14   ar
    18    14    15   ar
    19    16    17    1
    20    17    18   ar
    21    17    26   ar
    22    18    19   ar
    23    19    20   ar
    24    19    24    1
    25    20    21    1
    26    20    25   ar
    27    21    22    1
    28    22    23    1
    29    23    24    1
    30    25    26   ar
