@<TRIPOS>MOLECULE
36125_ChemDiv_C169-0225
 27 31 0 0 0
SMALL
GASTEIGER
Energy = 0

@<TRIPOS>ATOM
      1 C           0.1790   -0.5130    0.0000 C.ar    1  LIG1        0.1559
      2 N          -0.3170    0.3500    0.0000 N.ar    1  LIG1       -0.2732
      3 C           0.3540    1.0960    0.0000 C.ar    1  LIG1        0.1681
      4 N           1.2580    0.6830    0.0000 N.ar    1  LIG1       -0.2235
      5 C           1.1540   -0.3000    0.0000 C.ar    1  LIG1        0.1148
      6 C           1.9960   -0.8460    0.0000 C.ar    1  LIG1        0.0205
      7 C           2.7710   -0.2210    0.0000 C.ar    1  LIG1        0.0025
      8 C           3.7040   -0.5750    0.0000 C.ar    1  LIG1        0.0114
      9 C           3.8630   -1.5670    0.0000 C.ar    1  LIG1        0.0577
     10 C           3.0750   -2.1920    0.0000 C.ar    1  LIG1        0.0114
     11 C           2.1540   -1.8290    0.0000 C.ar    1  LIG1        0.0025
     12 CL          4.8170   -1.9210    0.0000 Cl      1  LIG1       -0.0822
     13 C           0.0500    2.0460    0.0000 C.ar    1  LIG1        0.1362
     14 N          -0.9170    2.2540    0.0000 N.ar    1  LIG1       -0.2376
     15 C          -1.5960    1.5040    0.0000 C.ar    1  LIG1        0.1180
     16 C          -1.2880    0.5630    0.0000 C.ar    1  LIG1        0.1033
     17 N          -0.3170   -1.3880    0.0000 N.pl3   1  LIG1       -0.1938
     18 C          -1.3170   -1.3880    0.0000 C.ar    1  LIG1        0.0754
     19 C          -1.8130   -0.5210    0.0000 C.ar    1  LIG1        0.0566
     20 C          -2.8250   -0.5210    0.0000 C.ar    1  LIG1        0.1737
     21 C          -3.3250   -1.3880    0.0000 C.ar    1  LIG1        0.1725
     22 O          -4.3210   -1.3880    0.0000 O.3     1  LIG1       -0.4684
     23 C          -4.8210   -0.5210    0.0000 C.3     1  LIG1        0.2526
     24 C          -4.3210    0.3500    0.0000 C.3     1  LIG1        0.2526
     25 O          -3.3250    0.3500    0.0000 O.3     1  LIG1       -0.4683
     26 C          -2.8250   -2.2500    0.0000 C.ar    1  LIG1        0.0414
     27 C          -1.8130   -2.2500    0.0000 C.ar    1  LIG1        0.0199
@<TRIPOS>BOND
     1     1     2   ar
     2     1     5   ar
     3     1    17    1
     4     2     3   ar
     5     2    16   ar
     6     3     4   ar
     7     3    13   ar
     8     4     5   ar
     9     5     6    1
    10     6     7   ar
    11     6    11   ar
    12     7     8   ar
    13     8     9   ar
    14     9    10   ar
    15     9    12    1
    16    10    11   ar
    17    13    14   ar
    18    14    15   ar
    19    15    16   ar
    20    17    18    1
    21    18    19   ar
    22    18    27   ar
    23    19    20   ar
    24    20    21   ar
    25    20    25    1
    26    21    22    1
    27    21    26   ar
    28    22    23    1
    29    23    24    1
    30    24    25    1
    31    26    27   ar
