@<TRIPOS>MOLECULE
36132_ChemDiv_C680-0504
 26 30 0 0 0
SMALL
GASTEIGER
Energy = 0

@<TRIPOS>ATOM
      1 C          -0.5830   -1.4540    0.0000 C.ar    1  LIG1        0.1859
      2 N          -1.4630   -1.9630    0.0000 N.ar    1  LIG1       -0.1928
      3 N          -1.2500   -2.9500    0.0000 N.ar    1  LIG1       -0.0582
      4 N          -0.2500   -3.0460    0.0000 N.ar    1  LIG1       -0.1268
      5 C           0.1580   -2.1290    0.0000 C.ar    1  LIG1        0.1402
      6 C           1.1250   -1.9170    0.0000 C.ar    1  LIG1        0.0225
      7 C           1.4290   -0.9710    0.0000 C.ar    1  LIG1        0.0013
      8 C           2.4000   -0.7580    0.0000 C.ar    1  LIG1       -0.0042
      9 C           3.0790   -1.5000    0.0000 C.ar    1  LIG1       -0.0218
     10 C           2.7750   -2.4540    0.0000 C.ar    1  LIG1       -0.0042
     11 C           1.7920   -2.6630    0.0000 C.ar    1  LIG1        0.0013
     12 C           4.0500   -1.2830    0.0000 C.3     1  LIG1        0.0310
     13 C          -2.3250   -1.4630    0.0000 C.ar    1  LIG1        0.0887
     14 C          -2.3250   -0.4670    0.0000 C.ar    1  LIG1        0.0494
     15 C          -1.4630    0.0500    0.0000 C.ar    1  LIG1        0.1348
     16 N          -0.6000   -0.4500    0.0000 N.ar    1  LIG1       -0.2102
     17 N          -1.4790    1.0500    0.0000 N.pl3   1  LIG1       -0.2932
     18 C          -0.6170    1.5580    0.0000 C.3     1  LIG1        0.0922
     19 C          -0.6170    2.5500    0.0000 C.3     1  LIG1        0.0215
     20 C          -1.4830    3.0500    0.0000 C.3     1  LIG1        0.0035
     21 C          -2.3460    2.5460    0.0000 C.3     1  LIG1        0.0215
     22 C          -2.3420    1.5460    0.0000 C.3     1  LIG1        0.0922
     23 C          -3.1920    0.0330    0.0000 C.ar    1  LIG1        0.0043
     24 C          -4.0540   -0.4670    0.0000 C.ar    1  LIG1        0.0002
     25 C          -4.0540   -1.4630    0.0000 C.ar    1  LIG1        0.0015
     26 C          -3.1920   -1.9630    0.0000 C.ar    1  LIG1        0.0194
@<TRIPOS>BOND
     1     1     2   ar
     2     1     5   ar
     3     1    16   ar
     4     2     3   ar
     5     2    13   ar
     6     3     4   ar
     7     4     5   ar
     8     5     6    1
     9     6     7   ar
    10     6    11   ar
    11     7     8   ar
    12     8     9   ar
    13     9    10   ar
    14     9    12    1
    15    10    11   ar
    16    13    14   ar
    17    13    26   ar
    18    14    15   ar
    19    14    23   ar
    20    15    16   ar
    21    15    17    1
    22    17    18    1
    23    17    22    1
    24    18    19    1
    25    19    20    1
    26    20    21    1
    27    21    22    1
    28    23    24   ar
    29    24    25   ar
    30    25    26   ar
