@<TRIPOS>MOLECULE
36138_ChemDiv_C200-2542
 30 34 0 0 0
SMALL
GASTEIGER
Energy = 0

@<TRIPOS>ATOM
      1 N           1.3880   -0.2830    0.0000 N.ar    1  LIG1       -0.1772
      2 C           1.3790   -1.2830    0.0000 C.ar    1  LIG1        0.2552
      3 N           2.2500   -1.7710    0.0000 N.ar    1  LIG1       -0.2008
      4 N           2.3540   -2.7670    0.0000 N.ar    1  LIG1       -0.1673
      5 C           3.3330   -2.9670    0.0000 C.ar    1  LIG1        0.0806
      6 C           3.8210   -2.1000    0.0000 C.ar    1  LIG1        0.0313
      7 C           3.1580   -1.3630    0.0000 C.ar    1  LIG1        0.0651
      8 C           3.3630   -0.3790    0.0000 C.3     1  LIG1        0.0523
      9 C           3.7420   -3.8750    0.0000 C.3     1  LIG1        0.0540
     10 N           0.5170   -1.7960    0.0000 N.ar    1  LIG1       -0.2097
     11 C          -0.3420   -1.2830    0.0000 C.ar    1  LIG1        0.0906
     12 C          -0.3540   -0.2670    0.0000 C.ar    1  LIG1        0.0569
     13 C           0.5210    0.2250    0.0000 C.ar    1  LIG1        0.1701
     14 N           0.7330    1.1960    0.0000 N.ar    1  LIG1       -0.2059
     15 C           1.7290    1.3000    0.0000 C.ar    1  LIG1        0.1851
     16 N           2.1290    0.3830    0.0000 N.ar    1  LIG1       -0.1417
     17 C           2.2290    2.1540    0.0000 C.ar    1  LIG1        0.0567
     18 C           1.7330    3.0170    0.0000 C.ar    1  LIG1        0.1019
     19 N           2.2330    3.8790    0.0000 N.ar    1  LIG1       -0.2422
     20 C           3.2330    3.8790    0.0000 C.ar    1  LIG1        0.0989
     21 C           3.7330    3.0130    0.0000 C.ar    1  LIG1        0.0208
     22 C           3.2290    2.1500    0.0000 C.ar    1  LIG1        0.0063
     23 C          -1.2330    0.2330    0.0000 C.ar    1  LIG1        0.0446
     24 C          -2.0960   -0.2670    0.0000 C.ar    1  LIG1        0.1726
     25 C          -2.0960   -1.2670    0.0000 C.ar    1  LIG1        0.1739
     26 C          -1.2170   -1.7710    0.0000 C.ar    1  LIG1        0.0593
     27 O          -2.9580   -1.7540    0.0000 O.3     1  LIG1       -0.4683
     28 C          -2.9580   -2.7540    0.0000 C.3     1  LIG1        0.2526
     29 O          -2.9750    0.2420    0.0000 O.3     1  LIG1       -0.4684
     30 C          -3.8250   -0.2670    0.0000 C.3     1  LIG1        0.2526
@<TRIPOS>BOND
     1     1     2   ar
     2     1    13   ar
     3     1    16   ar
     4     2     3    1
     5     2    10   ar
     6     3     4   ar
     7     3     7   ar
     8     4     5   ar
     9     5     6   ar
    10     5     9    1
    11     6     7   ar
    12     7     8    1
    13    10    11   ar
    14    11    12   ar
    15    11    26   ar
    16    12    13   ar
    17    12    23   ar
    18    13    14   ar
    19    14    15   ar
    20    15    16   ar
    21    15    17    1
    22    17    18   ar
    23    17    22   ar
    24    18    19   ar
    25    19    20   ar
    26    20    21   ar
    27    21    22   ar
    28    23    24   ar
    29    24    25   ar
    30    24    29    1
    31    25    26   ar
    32    25    27    1
    33    27    28    1
    34    29    30    1
