@<TRIPOS>MOLECULE
36136_ChemDiv_C200-2526
 15 17 0 0 0
SMALL
GASTEIGER
Energy = 0

@<TRIPOS>ATOM
      1 C           0.8630   -0.0420    0.0000 C.ar    1  LIG1        0.1328
      2 C          -0.0080    0.4710    0.0000 C.ar    1  LIG1        0.1843
      3 O           0.2130    1.4500    0.0000 O.2     1  LIG1       -0.3518
      4 N           1.2130    1.5420    0.0000 N.ar    1  LIG1       -0.0584
      5 C           1.6080    0.6250    0.0000 C.ar    1  LIG1        0.2156
      6 N           2.5920    0.4080    0.0000 N.pl3   1  LIG1       -0.1035
      7 C          -0.8670   -0.0420    0.0000 C.ar    1  LIG1        0.0552
      8 C          -0.8750   -1.0500    0.0000 C.ar    1  LIG1        0.0875
      9 N          -0.0080   -1.5380    0.0000 N.ar    1  LIG1       -0.2076
     10 C           0.8710   -1.0500    0.0000 C.ar    1  LIG1        0.2852
     11 O           1.7290   -1.5380    0.0000 O.2     1  LIG1       -0.2650
     12 C          -1.7330   -1.5380    0.0000 C.ar    1  LIG1        0.0193
     13 C          -2.5960   -1.0420    0.0000 C.ar    1  LIG1        0.0015
     14 C          -2.5960   -0.0420    0.0000 C.ar    1  LIG1        0.0002
     15 C          -1.7330    0.4540    0.0000 C.ar    1  LIG1        0.0046
@<TRIPOS>BOND
     1     1     2   ar
     2     1     5   ar
     3     1    10   ar
     4     2     3   ar
     5     2     7   ar
     6     3     4   ar
     7     4     5   ar
     8     5     6    1
     9     7     8   ar
    10     7    15   ar
    11     8     9   ar
    12     8    12   ar
    13     9    10   ar
    14    10    11    2
    15    12    13   ar
    16    13    14   ar
    17    14    15   ar
