@<TRIPOS>MOLECULE
36141_ChemDiv_C155-0375
 32 36 0 0 0
SMALL
GASTEIGER
Energy = 0

@<TRIPOS>ATOM
      1 C           0.7710   -3.7170    0.0000 C.3     1  LIG1        0.0189
      2 C           0.7710   -2.7080    0.0000 C.ar    1  LIG1       -0.0228
      3 C           1.6420   -2.2080    0.0000 C.ar    1  LIG1       -0.0041
      4 C           1.6420   -1.2040    0.0000 C.ar    1  LIG1        0.0042
      5 C           0.7710   -0.7080    0.0000 C.ar    1  LIG1        0.0550
      6 C           0.7710    0.2920    0.0000 C.2     1  LIG1        0.2652
      7 N          -0.0920    0.7920    0.0000 N.am    1  LIG1       -0.1940
      8 C          -0.0920    1.7920    0.0000 C.3     1  LIG1        0.1730
      9 C          -0.9580    2.2790    0.0000 C.2     1  LIG1        0.2613
     10 N          -0.9710    3.2790    0.0000 N.am    1  LIG1       -0.2014
     11 C          -1.8330    3.7750    0.0000 C.3     1  LIG1        0.1446
     12 C          -1.8420    4.7750    0.0000 C.3     1  LIG1        0.1369
     13 O          -1.0250    5.3580    0.0000 O.3     1  LIG1       -0.3544
     14 C          -1.3330    6.3080    0.0000 C.3     1  LIG1        0.1422
     15 C          -2.3540    6.3000    0.0000 C.3     1  LIG1        0.0346
     16 C          -2.6540    5.3580    0.0000 C.3     1  LIG1        0.0340
     17 O          -1.8330    1.7920    0.0000 O.2     1  LIG1       -0.2715
     18 C           0.7710    2.2920    0.0000 C.3     1  LIG1        0.0290
     19 C           1.6290    1.7920    0.0000 C.3     1  LIG1        0.0023
     20 C           0.7710    3.2920    0.0000 C.3     1  LIG1        0.0023
     21 O           1.6290    0.7920    0.0000 O.2     1  LIG1       -0.2684
     22 C          -0.0920   -1.2040    0.0000 C.ar    1  LIG1        0.0042
     23 C          -0.0920   -2.2080    0.0000 C.ar    1  LIG1       -0.0041
     24 C           0.4670   -4.5830    0.0000 C.3     1  LIG1        0.0040
     25 C           1.2330   -5.1880    0.0000 C.3     1  LIG1        0.0003
     26 C           1.4000   -6.3080    0.0000 C.3     1  LIG1        0.0000
     27 C           1.7830   -5.3790    0.0000 C.3     1  LIG1        0.0003
     28 C           0.9790   -4.7330    0.0000 C.3     1  LIG1        0.0040
     29 C           2.6500   -4.8880    0.0000 C.3     1  LIG1        0.0000
     30 C           2.4040   -3.8580    0.0000 C.3     1  LIG1        0.0003
     31 C           1.6290   -3.2330    0.0000 C.3     1  LIG1        0.0040
     32 C           2.0130   -4.7040    0.0000 C.3     1  LIG1        0.0000
@<TRIPOS>BOND
     1     1     2    1
     2     1    24    1
     3     1    28    1
     4     1    31    1
     5     2     3   ar
     6     2    23   ar
     7     3     4   ar
     8     4     5   ar
     9     5     6    1
    10     5    22   ar
    11     6     7   am
    12     6    21    2
    13     7     8    1
    14     8     9    1
    15     8    18    1
    16     9    10   am
    17     9    17    2
    18    10    11    1
    19    11    12    1
    20    12    13    1
    21    12    16    1
    22    13    14    1
    23    14    15    1
    24    15    16    1
    25    18    19    1
    26    18    20    1
    27    22    23   ar
    28    24    25    1
    29    25    26    1
    30    25    32    1
    31    26    27    1
    32    27    28    1
    33    27    29    1
    34    29    30    1
    35    30    31    1
    36    30    32    1
