@<TRIPOS>MOLECULE
36145_ChemDiv_C169-0227
 28 32 0 0 0
SMALL
GASTEIGER
Energy = 0

@<TRIPOS>ATOM
      1 C          -0.0830   -0.1290    0.0000 C.ar    1  LIG1        0.1559
      2 N          -0.5830    0.7380    0.0000 N.ar    1  LIG1       -0.2732
      3 C           0.0880    1.4830    0.0000 C.ar    1  LIG1        0.1681
      4 N           0.9960    1.0670    0.0000 N.ar    1  LIG1       -0.2235
      5 C           0.8920    0.0830    0.0000 C.ar    1  LIG1        0.1148
      6 C           1.7290   -0.4580    0.0000 C.ar    1  LIG1        0.0205
      7 C           1.6790   -1.4580    0.0000 C.ar    1  LIG1        0.0021
      8 C           2.5080   -2.0040    0.0000 C.ar    1  LIG1        0.0062
      9 C           3.4000   -1.5500    0.0000 C.ar    1  LIG1        0.0252
     10 S           4.2500   -2.0960    0.0000 S.3     1  LIG1       -0.1127
     11 C           5.0830   -2.6380    0.0000 C.3     1  LIG1        0.0742
     12 C           3.4630   -0.5500    0.0000 C.ar    1  LIG1        0.0062
     13 C           2.6130   -0.0080    0.0000 C.ar    1  LIG1        0.0021
     14 C          -0.2170    2.4290    0.0000 C.ar    1  LIG1        0.1362
     15 N          -1.1830    2.6420    0.0000 N.ar    1  LIG1       -0.2376
     16 C          -1.8630    1.8920    0.0000 C.ar    1  LIG1        0.1180
     17 C          -1.5540    0.9460    0.0000 C.ar    1  LIG1        0.1033
     18 N          -0.5830   -1.0000    0.0000 N.pl3   1  LIG1       -0.1938
     19 C          -1.5830   -1.0000    0.0000 C.ar    1  LIG1        0.0754
     20 C          -2.0830   -0.1380    0.0000 C.ar    1  LIG1        0.0566
     21 C          -3.0920   -0.1380    0.0000 C.ar    1  LIG1        0.1737
     22 C          -3.5920   -1.0000    0.0000 C.ar    1  LIG1        0.1725
     23 O          -4.5920   -1.0000    0.0000 O.3     1  LIG1       -0.4684
     24 C          -5.0880   -0.1380    0.0000 C.3     1  LIG1        0.2526
     25 C          -4.5920    0.7380    0.0000 C.3     1  LIG1        0.2526
     26 O          -3.5920    0.7380    0.0000 O.3     1  LIG1       -0.4683
     27 C          -3.0920   -1.8670    0.0000 C.ar    1  LIG1        0.0414
     28 C          -2.0830   -1.8670    0.0000 C.ar    1  LIG1        0.0199
@<TRIPOS>BOND
     1     1     2   ar
     2     1     5   ar
     3     1    18    1
     4     2     3   ar
     5     2    17   ar
     6     3     4   ar
     7     3    14   ar
     8     4     5   ar
     9     5     6    1
    10     6     7   ar
    11     6    13   ar
    12     7     8   ar
    13     8     9   ar
    14     9    10    1
    15     9    12   ar
    16    10    11    1
    17    12    13   ar
    18    14    15   ar
    19    15    16   ar
    20    16    17   ar
    21    18    19    1
    22    19    20   ar
    23    19    28   ar
    24    20    21   ar
    25    21    22   ar
    26    21    26    1
    27    22    23    1
    28    22    27   ar
    29    23    24    1
    30    24    25    1
    31    25    26    1
    32    27    28   ar
