@<TRIPOS>MOLECULE
36140_ChemDiv_C200-2670
 16 17 0 0 0
SMALL
GASTEIGER
Energy = 0

@<TRIPOS>ATOM
      1 C           0.4380   -0.7420    0.0000 C.ar    1  LIG1        0.1059
      2 C           1.3080   -0.2330    0.0000 C.ar    1  LIG1        0.2837
      3 N           2.1750   -0.7500    0.0000 N.ar    1  LIG1       -0.1821
      4 C           2.1750   -1.7460    0.0000 C.ar    1  LIG1        0.2028
      5 N           1.2960   -2.2460    0.0000 N.ar    1  LIG1       -0.2246
      6 C           0.4380   -1.7460    0.0000 C.ar    1  LIG1        0.0734
      7 C          -0.4250   -2.2380    0.0000 C.3     1  LIG1        0.1085
      8 C          -1.2880   -1.7460    0.0000 C.3     1  LIG1        0.1456
      9 N          -1.2880   -0.7420    0.0000 N.4     1  LIG1        0.3832
     10 C          -0.4250   -0.2330    0.0000 C.3     1  LIG1        0.1724
     11 C          -2.1540   -0.2330    0.0000 C.3     1  LIG1        0.1717
     12 C          -2.1630    0.7630    0.0000 C.3     1  LIG1        0.2046
     13 O          -3.0250    1.2630    0.0000 O.3     1  LIG1       -0.3448
     14 C          -3.0380    2.2580    0.0000 C.3     1  LIG1        0.1744
     15 S           3.0330   -2.2540    0.0000 S.2     1  LIG1       -0.0092
     16 O           1.3130    0.7630    0.0000 O.2     1  LIG1       -0.2652
@<TRIPOS>BOND
     1     1     2   ar
     2     1     6   ar
     3     1    10    1
     4     2     3   ar
     5     2    16    2
     6     3     4   ar
     7     4     5   ar
     8     4    15    2
     9     5     6   ar
    10     6     7    1
    11     7     8    1
    12     8     9    1
    13     9    10    1
    14     9    11    1
    15    11    12    1
    16    12    13    1
    17    13    14    1
