@<TRIPOS>MOLECULE
36149_ChemDiv_C169-0214
 25 28 0 0 0
SMALL
GASTEIGER
Energy = 0

@<TRIPOS>ATOM
      1 C           0.3330    0.2630    0.0000 C.ar    1  LIG1        0.1560
      2 C           1.3290    0.1960    0.0000 C.ar    1  LIG1        0.1179
      3 N           1.7000    1.1210    0.0000 N.ar    1  LIG1       -0.2234
      4 C           0.9290    1.7670    0.0000 C.ar    1  LIG1        0.1681
      5 N           0.0830    1.2420    0.0000 N.ar    1  LIG1       -0.2732
      6 C          -0.8080    1.7080    0.0000 C.ar    1  LIG1        0.1033
      7 C          -0.8380    2.7040    0.0000 C.ar    1  LIG1        0.1180
      8 N           0.0130    3.2330    0.0000 N.ar    1  LIG1       -0.2376
      9 C           0.9000    2.7670    0.0000 C.ar    1  LIG1        0.1362
     10 C           1.8580   -0.6460    0.0000 C.ar    1  LIG1        0.0599
     11 C           2.8500   -0.6040    0.0000 C.ar    1  LIG1        0.1972
     12 C           3.3880   -1.4380    0.0000 C.ar    1  LIG1        0.0426
     13 C           2.9170   -2.3250    0.0000 C.ar    1  LIG1        0.0100
     14 C           1.9170   -2.3670    0.0000 C.ar    1  LIG1        0.0348
     15 C           1.3920   -1.5290    0.0000 C.ar    1  LIG1        0.0115
     16 BR          1.4210   -3.2290    0.0000 Br      1  LIG1       -0.0490
     17 O           3.3080    0.2880    0.0000 O.3     1  LIG1       -0.2865
     18 N          -0.3830   -0.4460    0.0000 N.pl3   1  LIG1       -0.1943
     19 C          -1.3920   -0.4380    0.0000 C.ar    1  LIG1        0.0681
     20 C          -1.8920   -1.3000    0.0000 C.ar    1  LIG1       -0.0065
     21 C          -1.3920   -2.1630    0.0000 C.3     1  LIG1        0.0324
     22 C          -2.8880   -1.3000    0.0000 C.ar    1  LIG1       -0.0030
     23 C          -3.3920   -0.4210    0.0000 C.ar    1  LIG1       -0.0002
     24 C          -2.8880    0.4380    0.0000 C.ar    1  LIG1        0.0013
     25 C          -1.8920    0.4380    0.0000 C.ar    1  LIG1        0.0162
@<TRIPOS>BOND
     1     1     2   ar
     2     1     5   ar
     3     1    18    1
     4     2     3   ar
     5     2    10    1
     6     3     4   ar
     7     4     5   ar
     8     4     9   ar
     9     5     6   ar
    10     6     7   ar
    11     7     8   ar
    12     8     9   ar
    13    10    11   ar
    14    10    15   ar
    15    11    12   ar
    16    11    17    1
    17    12    13   ar
    18    13    14   ar
    19    14    15   ar
    20    14    16    1
    21    18    19    1
    22    19    20   ar
    23    19    25   ar
    24    20    21    1
    25    20    22   ar
    26    22    23   ar
    27    23    24   ar
    28    24    25   ar
