@<TRIPOS>MOLECULE
36147_ChemDiv_C169-0213
 26 30 0 0 0
SMALL
GASTEIGER
Energy = 0

@<TRIPOS>ATOM
      1 C           2.2250    0.1830    0.0000 C.ar    1  LIG1        0.1492
      2 C           1.2290    0.2500    0.0000 C.ar    1  LIG1        0.1590
      3 N           0.9790    1.2250    0.0000 N.ar    1  LIG1       -0.2731
      4 C           1.8250    1.7540    0.0000 C.ar    1  LIG1        0.1683
      5 N           2.5960    1.1080    0.0000 N.ar    1  LIG1       -0.2204
      6 C           1.7960    2.7500    0.0000 C.ar    1  LIG1        0.1362
      7 N           0.9080    3.2170    0.0000 N.ar    1  LIG1       -0.2376
      8 C           0.0580    2.6880    0.0000 C.ar    1  LIG1        0.1180
      9 C           0.0920    1.6920    0.0000 C.ar    1  LIG1        0.1033
     10 N           0.5170   -0.4630    0.0000 N.pl3   1  LIG1       -0.1937
     11 C          -0.4920   -0.4500    0.0000 C.ar    1  LIG1        0.0754
     12 C          -0.9920    0.4250    0.0000 C.ar    1  LIG1        0.0566
     13 C          -1.9880    0.4250    0.0000 C.ar    1  LIG1        0.1737
     14 C          -2.4920   -0.4380    0.0000 C.ar    1  LIG1        0.1725
     15 O          -3.5000   -0.4380    0.0000 O.3     1  LIG1       -0.4684
     16 C          -3.9960    0.4420    0.0000 C.3     1  LIG1        0.2526
     17 C          -3.4880    1.3000    0.0000 C.3     1  LIG1        0.2526
     18 O          -2.4880    1.2920    0.0000 O.3     1  LIG1       -0.4683
     19 C          -1.9880   -1.3080    0.0000 C.ar    1  LIG1        0.0414
     20 C          -0.9920   -1.3080    0.0000 C.ar    1  LIG1        0.0199
     21 C           2.7540   -0.6580    0.0000 C.ar    1  LIG1        0.1652
     22 O           2.3750   -1.5830    0.0000 O.2     1  LIG1       -0.4561
     23 C           3.1460   -2.2170    0.0000 C.ar    1  LIG1        0.1234
     24 C           3.9920   -1.6710    0.0000 C.ar    1  LIG1        0.0361
     25 C           3.7420   -0.7250    0.0000 C.ar    1  LIG1        0.0419
     26 C           3.0830   -3.2130    0.0000 C.3     1  LIG1        0.0725
@<TRIPOS>BOND
     1     1     2   ar
     2     1     5   ar
     3     1    21    1
     4     2     3   ar
     5     2    10    1
     6     3     4   ar
     7     3     9   ar
     8     4     5   ar
     9     4     6   ar
    10     6     7   ar
    11     7     8   ar
    12     8     9   ar
    13    10    11    1
    14    11    12   ar
    15    11    20   ar
    16    12    13   ar
    17    13    14   ar
    18    13    18    1
    19    14    15    1
    20    14    19   ar
    21    15    16    1
    22    16    17    1
    23    17    18    1
    24    19    20   ar
    25    21    22   ar
    26    21    25   ar
    27    22    23   ar
    28    23    24   ar
    29    23    26    1
    30    24    25   ar
