@<TRIPOS>MOLECULE
36144_ChemDiv_C200-2696
 16 18 0 0 0
SMALL
GASTEIGER
Energy = 0

@<TRIPOS>ATOM
      1 C           0.0000    1.0000    0.0000 C.2     1  LIG1        0.1036
      2 N           0.8630    0.5000    0.0000 N.am    1  LIG1       -0.2141
      3 C           0.8630   -0.4960    0.0000 C.3     1  LIG1        0.1507
      4 N           0.0000   -1.0130    0.0000 N.pl3   1  LIG1       -0.2210
      5 C          -0.8630   -0.5130    0.0000 C.ar    1  LIG1        0.0688
      6 C          -0.8630    0.4920    0.0000 C.ar    1  LIG1        0.0364
      7 C          -1.7330    0.9920    0.0000 C.ar    1  LIG1        0.0031
      8 C          -2.5960    0.4920    0.0000 C.ar    1  LIG1        0.0001
      9 C          -2.5960   -0.5130    0.0000 C.ar    1  LIG1        0.0013
     10 C          -1.7330   -1.0130    0.0000 C.ar    1  LIG1        0.0162
     11 C           1.7290    0.0000    0.0000 C.3     1  LIG1        0.0404
     12 C           2.5920   -0.4960    0.0000 C.3     1  LIG1        0.0035
     13 C           2.5830   -1.4960    0.0000 C.3     1  LIG1        0.0002
     14 C           1.7130   -1.9960    0.0000 C.3     1  LIG1        0.0035
     15 C           0.8580   -1.4960    0.0000 C.3     1  LIG1        0.0404
     16 S          -0.0040    2.0000    0.0000 S.2     1  LIG1       -0.0331
@<TRIPOS>BOND
     1     1     2    1
     2     1     6    1
     3     1    16    2
     4     2     3    1
     5     3     4    1
     6     3    11    1
     7     3    15    1
     8     4     5    1
     9     5     6   ar
    10     5    10   ar
    11     6     7   ar
    12     7     8   ar
    13     8     9   ar
    14     9    10   ar
    15    11    12    1
    16    12    13    1
    17    13    14    1
    18    14    15    1
