@<TRIPOS>MOLECULE
36148_ChemDiv_K407-0521
 40 44 0 0 0
SMALL
GASTEIGER
Energy = 0

@<TRIPOS>ATOM
      1 N          -0.3420    2.5080    0.0000 N.am    1  LIG1       -0.2699
      2 C          -1.2080    2.0080    0.0000 C.3     1  LIG1        0.1416
      3 C          -2.0670    2.5080    0.0000 C.ar    1  LIG1       -0.0013
      4 C          -2.0670    3.5130    0.0000 C.ar    1  LIG1       -0.0196
      5 C          -2.9250    4.0080    0.0000 C.ar    1  LIG1        0.0356
      6 C          -3.7960    3.5130    0.0000 C.ar    1  LIG1        0.1721
      7 C          -3.7960    2.5080    0.0000 C.ar    1  LIG1        0.1721
      8 C          -2.9250    2.0080    0.0000 C.ar    1  LIG1        0.0372
      9 O          -4.6670    2.0040    0.0000 O.3     1  LIG1       -0.4684
     10 C          -5.5330    2.5040    0.0000 C.3     1  LIG1        0.2526
     11 O          -4.6670    4.0170    0.0000 O.3     1  LIG1       -0.4684
     12 C          -5.5330    3.5210    0.0000 C.3     1  LIG1        0.2526
     13 C          -1.2080    4.0080    0.0000 C.3     1  LIG1        0.0477
     14 C          -0.3420    3.5130    0.0000 C.3     1  LIG1        0.0988
     15 C          -1.2080    1.0080    0.0000 C.3     1  LIG1        0.2295
     16 O          -0.3420    0.5080    0.0000 O.3     1  LIG1       -0.4733
     17 C          -0.3420   -0.4920    0.0000 C.ar    1  LIG1        0.1387
     18 C           0.5250   -0.9920    0.0000 C.ar    1  LIG1        0.0371
     19 C           0.5250   -1.9960    0.0000 C.ar    1  LIG1        0.0096
     20 C          -0.3420   -2.4960    0.0000 C.ar    1  LIG1        0.0758
     21 C          -0.3420   -3.4960    0.0000 C.2     1  LIG1        0.3412
     22 O          -1.2080   -3.9960    0.0000 O.2     1  LIG1       -0.2449
     23 O           0.5250   -3.9960    0.0000 O.3     1  LIG1       -0.4454
     24 C           0.5250   -4.9960    0.0000 C.3     1  LIG1        0.2089
     25 C           1.3880   -5.4960    0.0000 C.3     1  LIG1        0.0513
     26 C          -1.2080   -1.9960    0.0000 C.ar    1  LIG1        0.0096
     27 C          -1.2080   -0.9920    0.0000 C.ar    1  LIG1        0.0371
     28 C           0.5380    2.0040    0.0000 C.2     1  LIG1        0.2495
     29 C           1.3920    2.5040    0.0000 C.2     1  LIG1        0.0580
     30 C           1.3920    3.5040    0.0000 C.2     1  LIG1        0.0048
     31 C           2.2630    4.0000    0.0000 C.ar    1  LIG1        0.0034
     32 C           3.1290    3.5040    0.0000 C.ar    1  LIG1        0.0402
     33 C           3.9960    4.0000    0.0000 C.ar    1  LIG1        0.1764
     34 C           3.9960    5.0040    0.0000 C.ar    1  LIG1        0.1764
     35 O           4.9460    5.2960    0.0000 O.3     1  LIG1       -0.4346
     36 C           5.5290    4.5170    0.0000 C.3     1  LIG1        0.4294
     37 O           4.9460    3.7040    0.0000 O.3     1  LIG1       -0.4346
     38 C           3.1210    5.4960    0.0000 C.ar    1  LIG1        0.0402
     39 C           2.2630    5.0040    0.0000 C.ar    1  LIG1        0.0033
     40 O           0.5380    1.0040    0.0000 O.2     1  LIG1       -0.2699
@<TRIPOS>BOND
     1     1     2    1
     2     1    14    1
     3     1    28   am
     4     2     3    1
     5     2    15    1
     6     3     4   ar
     7     3     8   ar
     8     4     5   ar
     9     4    13    1
    10     5     6   ar
    11     6     7   ar
    12     6    11    1
    13     7     8   ar
    14     7     9    1
    15     9    10    1
    16    11    12    1
    17    13    14    1
    18    15    16    1
    19    16    17    1
    20    17    18   ar
    21    17    27   ar
    22    18    19   ar
    23    19    20   ar
    24    20    21    1
    25    20    26   ar
    26    21    22    2
    27    21    23    1
    28    23    24    1
    29    24    25    1
    30    26    27   ar
    31    28    29    1
    32    28    40    2
    33    29    30    2
    34    30    31    1
    35    31    32   ar
    36    31    39   ar
    37    32    33   ar
    38    33    34   ar
    39    33    37    1
    40    34    35    1
    41    34    38   ar
    42    35    36    1
    43    36    37    1
    44    38    39   ar
