@<TRIPOS>MOLECULE
36142_ChemDiv_C200-2686
 21 24 0 0 0
SMALL
GASTEIGER
Energy = 0

@<TRIPOS>ATOM
      1 C           0.4420   -0.2290    0.0000 C.ar    1  LIG1        0.1320
      2 C           1.3040    0.2790    0.0000 C.ar    1  LIG1        0.2660
      3 N           2.2170   -0.1210    0.0000 N.ar    1  LIG1       -0.1909
      4 C           2.8880    0.6210    0.0000 C.ar    1  LIG1        0.1812
      5 N           2.3790    1.4880    0.0000 N.ar    1  LIG1       -0.0602
      6 O           1.4000    1.2750    0.0000 O.2     1  LIG1       -0.3325
      7 C           3.8830    0.5290    0.0000 C.3     1  LIG1        0.0773
      8 C           0.4420   -1.2290    0.0000 C.ar    1  LIG1        0.3504
      9 O          -0.4210   -1.7420    0.0000 O.2     1  LIG1       -0.4209
     10 C          -1.2880   -1.2420    0.0000 C.ar    1  LIG1        0.1487
     11 C          -1.2880   -0.2380    0.0000 C.ar    1  LIG1        0.0350
     12 C          -0.4250    0.2710    0.0000 C.ar    1  LIG1        0.0143
     13 C          -2.1580    0.2580    0.0000 C.ar    1  LIG1        0.0029
     14 C          -3.0210   -0.2380    0.0000 C.ar    1  LIG1        0.0002
     15 C          -3.0210   -1.2460    0.0000 C.ar    1  LIG1        0.0031
     16 C          -2.1580   -1.7460    0.0000 C.ar    1  LIG1        0.0376
     17 C          -3.8830    0.2580    0.0000 C.ar    1  LIG1        0.0000
     18 C          -3.8880    1.2460    0.0000 C.ar    1  LIG1        0.0000
     19 C          -3.0330    1.7500    0.0000 C.ar    1  LIG1        0.0000
     20 C          -2.1670    1.2580    0.0000 C.ar    1  LIG1        0.0001
     21 O           1.3170   -1.7290    0.0000 O.2     1  LIG1       -0.2443
@<TRIPOS>BOND
     1     1     2    1
     2     1     8   ar
     3     1    12   ar
     4     2     3   ar
     5     2     6   ar
     6     3     4   ar
     7     4     5   ar
     8     4     7    1
     9     5     6   ar
    10     8     9   ar
    11     8    21    2
    12     9    10   ar
    13    10    11   ar
    14    10    16   ar
    15    11    12   ar
    16    11    13   ar
    17    13    14   ar
    18    13    20   ar
    19    14    15   ar
    20    14    17   ar
    21    15    16   ar
    22    17    18   ar
    23    18    19   ar
    24    19    20   ar
