@<TRIPOS>MOLECULE
36143_ChemDiv_C155-0425
 34 38 0 0 0
SMALL
GASTEIGER
Energy = 0

@<TRIPOS>ATOM
      1 C          -2.2630    1.7670    0.0000 C.3     1  LIG1        0.0189
      2 C          -1.2630    1.8040    0.0000 C.ar    1  LIG1       -0.0228
      3 C          -0.7420    0.9580    0.0000 C.ar    1  LIG1       -0.0041
      4 C           0.2670    0.9960    0.0000 C.ar    1  LIG1        0.0042
      5 C           0.7380    1.8880    0.0000 C.ar    1  LIG1        0.0550
      6 C           1.7330    1.9330    0.0000 C.2     1  LIG1        0.2652
      7 N           2.2670    1.0790    0.0000 N.am    1  LIG1       -0.1940
      8 C           3.2750    1.1250    0.0000 C.3     1  LIG1        0.1730
      9 C           3.8080    0.2710    0.0000 C.2     1  LIG1        0.2614
     10 N           3.3380   -0.6170    0.0000 N.am    1  LIG1       -0.1978
     11 C           2.3420   -0.6540    0.0000 C.3     1  LIG1        0.1714
     12 C           1.8830   -1.5420    0.0000 C.3     1  LIG1        0.1092
     13 N           0.8920   -1.6880    0.0000 N.4     1  LIG1        0.3743
     14 C           0.7250   -2.6710    0.0000 C.3     1  LIG1        0.1385
     15 C           1.6170   -3.1290    0.0000 C.3     1  LIG1        0.0687
     16 C           2.3210   -2.4330    0.0000 C.3     1  LIG1        0.0647
     17 C           0.1960   -0.9750    0.0000 C.3     1  LIG1        0.1385
     18 C           0.4710   -0.0130    0.0000 C.3     1  LIG1        0.0688
     19 O           4.8040    0.3080    0.0000 O.2     1  LIG1       -0.2715
     20 C           3.7330    2.0040    0.0000 C.3     1  LIG1        0.0290
     21 C           3.1920    2.8580    0.0000 C.3     1  LIG1        0.0023
     22 C           4.7330    2.0500    0.0000 C.3     1  LIG1        0.0023
     23 O           2.2040    2.8210    0.0000 O.2     1  LIG1       -0.2684
     24 C           0.1960    2.7290    0.0000 C.ar    1  LIG1        0.0042
     25 C          -0.8040    2.6830    0.0000 C.ar    1  LIG1       -0.0041
     26 C          -3.1710    1.5380    0.0000 C.3     1  LIG1        0.0040
     27 C          -4.0290    1.8670    0.0000 C.3     1  LIG1        0.0003
     28 C          -4.0290    2.8210    0.0000 C.3     1  LIG1        0.0000
     29 C          -3.1580    3.1330    0.0000 C.3     1  LIG1        0.0003
     30 C          -2.2540    2.7670    0.0000 C.3     1  LIG1        0.0040
     31 C          -3.8380    2.3330    0.0000 C.3     1  LIG1        0.0000
     32 C          -3.8290    1.3080    0.0000 C.3     1  LIG1        0.0003
     33 C          -2.9290    0.9330    0.0000 C.3     1  LIG1        0.0040
     34 C          -4.8080    1.0330    0.0000 C.3     1  LIG1        0.0000
@<TRIPOS>BOND
     1     1     2    1
     2     1    26    1
     3     1    30    1
     4     1    33    1
     5     2     3   ar
     6     2    25   ar
     7     3     4   ar
     8     4     5   ar
     9     5     6    1
    10     5    24   ar
    11     6     7   am
    12     6    23    2
    13     7     8    1
    14     8     9    1
    15     8    20    1
    16     9    10   am
    17     9    19    2
    18    10    11    1
    19    11    12    1
    20    12    13    1
    21    12    16    1
    22    13    14    1
    23    13    17    1
    24    14    15    1
    25    15    16    1
    26    17    18    1
    27    20    21    1
    28    20    22    1
    29    24    25   ar
    30    26    27    1
    31    27    28    1
    32    27    34    1
    33    28    29    1
    34    29    30    1
    35    29    31    1
    36    31    32    1
    37    32    33    1
    38    32    34    1
