@<TRIPOS>MOLECULE
36157_ChemDiv_C169-0215
 25 29 0 0 0
SMALL
GASTEIGER
Energy = 0

@<TRIPOS>ATOM
      1 C           1.2250   -0.2540    0.0000 C.ar    1  LIG1        0.1564
      2 C           2.2250   -0.3170    0.0000 C.ar    1  LIG1        0.1208
      3 N           2.5960    0.6080    0.0000 N.ar    1  LIG1       -0.2230
      4 C           1.8290    1.2580    0.0000 C.ar    1  LIG1        0.1682
      5 N           0.9830    0.7170    0.0000 N.ar    1  LIG1       -0.2731
      6 C           0.0920    1.1830    0.0000 C.ar    1  LIG1        0.1033
      7 C           0.0580    2.1920    0.0000 C.ar    1  LIG1        0.1180
      8 N           0.9130    2.7210    0.0000 N.ar    1  LIG1       -0.2376
      9 C           1.7960    2.2420    0.0000 C.ar    1  LIG1        0.1362
     10 C           2.7540   -1.1630    0.0000 C.ar    1  LIG1        0.0499
     11 S           2.3750   -2.0920    0.0000 S.2     1  LIG1       -0.0848
     12 C           3.1460   -2.7170    0.0000 C.ar    1  LIG1        0.0355
     13 C           3.9920   -2.1710    0.0000 C.ar    1  LIG1        0.0075
     14 C           3.7460   -1.2210    0.0000 C.ar    1  LIG1        0.0086
     15 N           0.5130   -0.9670    0.0000 N.pl3   1  LIG1       -0.1938
     16 C          -0.4920   -0.9580    0.0000 C.ar    1  LIG1        0.0754
     17 C          -0.9920   -0.0830    0.0000 C.ar    1  LIG1        0.0566
     18 C          -1.9880   -0.0750    0.0000 C.ar    1  LIG1        0.1737
     19 C          -2.4920   -0.9460    0.0000 C.ar    1  LIG1        0.1725
     20 O          -3.4960   -0.9330    0.0000 O.3     1  LIG1       -0.4684
     21 C          -3.9960   -0.0670    0.0000 C.3     1  LIG1        0.2526
     22 C          -3.4880    0.7920    0.0000 C.3     1  LIG1        0.2526
     23 O          -2.4880    0.7880    0.0000 O.3     1  LIG1       -0.4683
     24 C          -1.9880   -1.8080    0.0000 C.ar    1  LIG1        0.0414
     25 C          -0.9920   -1.8210    0.0000 C.ar    1  LIG1        0.0199
@<TRIPOS>BOND
     1     1     2   ar
     2     1     5   ar
     3     1    15    1
     4     2     3   ar
     5     2    10    1
     6     3     4   ar
     7     4     5   ar
     8     4     9   ar
     9     5     6   ar
    10     6     7   ar
    11     7     8   ar
    12     8     9   ar
    13    10    11   ar
    14    10    14   ar
    15    11    12   ar
    16    12    13   ar
    17    13    14   ar
    18    15    16    1
    19    16    17   ar
    20    16    25   ar
    21    17    18   ar
    22    18    19   ar
    23    18    23    1
    24    19    20    1
    25    19    24   ar
    26    20    21    1
    27    21    22    1
    28    22    23    1
    29    24    25   ar
