@<TRIPOS>MOLECULE
36155_ChemDiv_C169-0319
 26 29 0 0 0
SMALL
GASTEIGER
Energy = 0

@<TRIPOS>ATOM
      1 C           1.1790    0.1210    0.0000 C.ar    1  LIG1        0.1560
      2 C           2.1630    0.0210    0.0000 C.ar    1  LIG1        0.1179
      3 N           2.5790    0.9250    0.0000 N.ar    1  LIG1       -0.2234
      4 C           1.8330    1.6080    0.0000 C.ar    1  LIG1        0.1681
      5 N           0.9580    1.1040    0.0000 N.ar    1  LIG1       -0.2732
      6 C           0.0960    1.6080    0.0000 C.ar    1  LIG1        0.1033
      7 C           0.0960    2.6080    0.0000 C.ar    1  LIG1        0.1180
      8 N           0.9580    3.1080    0.0000 N.ar    1  LIG1       -0.2376
      9 C           1.8330    2.6080    0.0000 C.ar    1  LIG1        0.1362
     10 C           2.3710   -0.9630    0.0000 C.ar    1  LIG1        0.0599
     11 C           3.3250   -1.2630    0.0000 C.ar    1  LIG1        0.1972
     12 C           3.5420   -2.2540    0.0000 C.ar    1  LIG1        0.0426
     13 C           2.7880   -2.9250    0.0000 C.ar    1  LIG1        0.0100
     14 C           1.8330   -2.6170    0.0000 C.ar    1  LIG1        0.0348
     15 C           1.6250   -1.6330    0.0000 C.ar    1  LIG1        0.0115
     16 BR          0.9750   -3.1040    0.0000 Br      1  LIG1       -0.0490
     17 O           4.0210   -0.5630    0.0000 O.3     1  LIG1       -0.2865
     18 N           0.5130   -0.6210    0.0000 N.pl3   1  LIG1       -0.1939
     19 C          -0.4580   -0.4290    0.0000 C.ar    1  LIG1        0.0723
     20 C          -1.1210   -1.1830    0.0000 C.ar    1  LIG1        0.0197
     21 C          -2.1040   -0.9880    0.0000 C.ar    1  LIG1        0.0382
     22 C          -2.4210   -0.0420    0.0000 C.ar    1  LIG1        0.1388
     23 C          -1.7670    0.7170    0.0000 C.ar    1  LIG1        0.0382
     24 C          -0.7830    0.5210    0.0000 C.ar    1  LIG1        0.0197
     25 O          -3.3830    0.1500    0.0000 O.3     1  LIG1       -0.4714
     26 C          -4.0250   -0.5920    0.0000 C.3     1  LIG1        0.2525
@<TRIPOS>BOND
     1     1     2   ar
     2     1     5   ar
     3     1    18    1
     4     2     3   ar
     5     2    10    1
     6     3     4   ar
     7     4     5   ar
     8     4     9   ar
     9     5     6   ar
    10     6     7   ar
    11     7     8   ar
    12     8     9   ar
    13    10    11   ar
    14    10    15   ar
    15    11    12   ar
    16    11    17    1
    17    12    13   ar
    18    13    14   ar
    19    14    15   ar
    20    14    16    1
    21    18    19    1
    22    19    20   ar
    23    19    24   ar
    24    20    21   ar
    25    21    22   ar
    26    22    23   ar
    27    22    25    1
    28    23    24   ar
    29    25    26    1
