@<TRIPOS>MOLECULE
36153_ChemDiv_C169-0310
 25 28 0 0 0
SMALL
GASTEIGER
Energy = 0

@<TRIPOS>ATOM
      1 C           0.8500    0.2250    0.0000 C.ar    1  LIG1        0.1560
      2 C           1.8330    0.1250    0.0000 C.ar    1  LIG1        0.1179
      3 N           2.2500    1.0250    0.0000 N.ar    1  LIG1       -0.2234
      4 C           1.5040    1.7130    0.0000 C.ar    1  LIG1        0.1681
      5 N           0.6330    1.2040    0.0000 N.ar    1  LIG1       -0.2732
      6 C          -0.2290    1.7130    0.0000 C.ar    1  LIG1        0.1033
      7 C          -0.2290    2.7130    0.0000 C.ar    1  LIG1        0.1180
      8 N           0.6330    3.2130    0.0000 N.ar    1  LIG1       -0.2376
      9 C           1.5040    2.7130    0.0000 C.ar    1  LIG1        0.1362
     10 C           2.0420   -0.8580    0.0000 C.ar    1  LIG1        0.0599
     11 C           2.9960   -1.1580    0.0000 C.ar    1  LIG1        0.1972
     12 C           3.2130   -2.1460    0.0000 C.ar    1  LIG1        0.0426
     13 C           2.4580   -2.8210    0.0000 C.ar    1  LIG1        0.0100
     14 C           1.5040   -2.5080    0.0000 C.ar    1  LIG1        0.0348
     15 C           1.2960   -1.5290    0.0000 C.ar    1  LIG1        0.0115
     16 BR          0.8040   -3.2080    0.0000 Br      1  LIG1       -0.0490
     17 O           3.6920   -0.4580    0.0000 O.3     1  LIG1       -0.2865
     18 N           0.1880   -0.5170    0.0000 N.pl3   1  LIG1       -0.1939
     19 C          -0.7830   -0.3250    0.0000 C.ar    1  LIG1        0.0722
     20 C          -1.1130    0.6250    0.0000 C.ar    1  LIG1        0.0174
     21 C          -2.0920    0.8210    0.0000 C.ar    1  LIG1        0.0127
     22 C          -2.7460    0.0630    0.0000 C.ar    1  LIG1        0.0578
     23 CL         -3.6960    0.3210    0.0000 Cl      1  LIG1       -0.0822
     24 C          -2.4290   -0.8830    0.0000 C.ar    1  LIG1        0.0127
     25 C          -1.4500   -1.0790    0.0000 C.ar    1  LIG1        0.0174
@<TRIPOS>BOND
     1     1     2   ar
     2     1     5   ar
     3     1    18    1
     4     2     3   ar
     5     2    10    1
     6     3     4   ar
     7     4     5   ar
     8     4     9   ar
     9     5     6   ar
    10     6     7   ar
    11     7     8   ar
    12     8     9   ar
    13    10    11   ar
    14    10    15   ar
    15    11    12   ar
    16    11    17    1
    17    12    13   ar
    18    13    14   ar
    19    14    15   ar
    20    14    16    1
    21    18    19    1
    22    19    20   ar
    23    19    25   ar
    24    20    21   ar
    25    21    22   ar
    26    22    23    1
    27    22    24   ar
    28    24    25   ar
