@<TRIPOS>MOLECULE
36151_ChemDiv_C169-0293
 24 27 0 0 0
SMALL
GASTEIGER
Energy = 0

@<TRIPOS>ATOM
      1 C           0.3000    0.2960    0.0000 C.ar    1  LIG1        0.1560
      2 C           1.2830    0.1960    0.0000 C.ar    1  LIG1        0.1179
      3 N           1.6960    1.1000    0.0000 N.ar    1  LIG1       -0.2234
      4 C           0.9500    1.7830    0.0000 C.ar    1  LIG1        0.1681
      5 N           0.0880    1.2830    0.0000 N.ar    1  LIG1       -0.2732
      6 C          -0.7790    1.7830    0.0000 C.ar    1  LIG1        0.1033
      7 C          -0.7790    2.7790    0.0000 C.ar    1  LIG1        0.1180
      8 N           0.0880    3.2790    0.0000 N.ar    1  LIG1       -0.2376
      9 C           0.9500    2.7790    0.0000 C.ar    1  LIG1        0.1362
     10 C           1.7500   -0.6960    0.0000 C.ar    1  LIG1        0.0599
     11 C           2.7500   -0.7460    0.0000 C.ar    1  LIG1        0.1972
     12 C           3.2080   -1.6380    0.0000 C.ar    1  LIG1        0.0426
     13 C           2.6630   -2.4750    0.0000 C.ar    1  LIG1        0.0100
     14 C           1.6630   -2.4290    0.0000 C.ar    1  LIG1        0.0348
     15 C           1.2080   -1.5330    0.0000 C.ar    1  LIG1        0.0115
     16 BR          1.1290   -3.2750    0.0000 Br      1  LIG1       -0.0490
     17 O           3.3000    0.1000    0.0000 O.3     1  LIG1       -0.2865
     18 N          -0.3670   -0.4460    0.0000 N.pl3   1  LIG1       -0.1939
     19 C          -1.3330   -0.2460    0.0000 C.ar    1  LIG1        0.0721
     20 C          -1.9920   -1.0040    0.0000 C.ar    1  LIG1        0.0166
     21 C          -2.9710   -0.8080    0.0000 C.ar    1  LIG1        0.0013
     22 C          -3.3040    0.1290    0.0000 C.ar    1  LIG1        0.0001
     23 C          -2.6380    0.8880    0.0000 C.ar    1  LIG1        0.0013
     24 C          -1.6580    0.6920    0.0000 C.ar    1  LIG1        0.0166
@<TRIPOS>BOND
     1     1     2   ar
     2     1     5   ar
     3     1    18    1
     4     2     3   ar
     5     2    10    1
     6     3     4   ar
     7     4     5   ar
     8     4     9   ar
     9     5     6   ar
    10     6     7   ar
    11     7     8   ar
    12     8     9   ar
    13    10    11   ar
    14    10    15   ar
    15    11    12   ar
    16    11    17    1
    17    12    13   ar
    18    13    14   ar
    19    14    15   ar
    20    14    16    1
    21    18    19    1
    22    19    20   ar
    23    19    24   ar
    24    20    21   ar
    25    21    22   ar
    26    22    23   ar
    27    23    24   ar
