@<TRIPOS>MOLECULE
36150_ChemDiv_C200-0158
 27 30 0 0 0
SMALL
GASTEIGER
Energy = 0

@<TRIPOS>ATOM
      1 N          -0.0130    1.9960    0.0000 N.ar    1  LIG1       -0.2445
      2 C          -0.0130    1.0000    0.0000 C.ar    1  LIG1        0.3343
      3 N          -0.9000    0.5040    0.0000 N.ar    1  LIG1       -0.2769
      4 C          -1.7630    1.0000    0.0000 C.ar    1  LIG1        0.0687
      5 C          -1.7630    1.9960    0.0000 C.ar    1  LIG1        0.0722
      6 C          -0.9000    2.4830    0.0000 C.ar    1  LIG1        0.2658
      7 O          -0.9000    3.4790    0.0000 O.2     1  LIG1       -0.2668
      8 C          -2.6330    2.4830    0.0000 C.ar    1  LIG1        0.0062
      9 C          -3.5000    1.9960    0.0000 C.ar    1  LIG1        0.0003
     10 C          -3.5000    1.0000    0.0000 C.ar    1  LIG1        0.0015
     11 C          -2.6330    0.5040    0.0000 C.ar    1  LIG1        0.0175
     12 C          -0.9000   -0.4880    0.0000 C.3     1  LIG1        0.1372
     13 C          -1.7630   -0.9880    0.0000 C.ar    1  LIG1        0.0014
     14 C          -1.7630   -1.9750    0.0000 C.ar    1  LIG1        0.0090
     15 C          -2.6210   -2.4790    0.0000 C.ar    1  LIG1        0.0574
     16 CL         -2.6080   -3.4750    0.0000 Cl      1  LIG1       -0.0823
     17 C          -3.4960   -1.9830    0.0000 C.ar    1  LIG1        0.0114
     18 C          -3.4960   -0.9880    0.0000 C.ar    1  LIG1        0.0006
     19 C          -2.6330   -0.4880    0.0000 C.ar    1  LIG1       -0.0023
     20 O           0.8630    0.5040    0.0000 O.2     1  LIG1       -0.2462
     21 C           0.8630    2.5000    0.0000 C.3     1  LIG1        0.1403
     22 C           1.7460    2.0130    0.0000 C.ar    1  LIG1        0.0006
     23 C           1.7460    1.0170    0.0000 C.ar    1  LIG1       -0.0024
     24 C           2.6080    0.5210    0.0000 C.ar    1  LIG1       -0.0003
     25 C           3.4960    1.0170    0.0000 C.ar    1  LIG1       -0.0000
     26 C           3.4960    2.0170    0.0000 C.ar    1  LIG1       -0.0003
     27 C           2.6080    2.5130    0.0000 C.ar    1  LIG1       -0.0024
@<TRIPOS>BOND
     1     1     2   ar
     2     1     6   ar
     3     1    21    1
     4     2     3   ar
     5     2    20    2
     6     3     4   ar
     7     3    12    1
     8     4     5   ar
     9     4    11   ar
    10     5     6   ar
    11     5     8   ar
    12     6     7    2
    13     8     9   ar
    14     9    10   ar
    15    10    11   ar
    16    12    13    1
    17    13    14   ar
    18    13    19   ar
    19    14    15   ar
    20    15    16    1
    21    15    17   ar
    22    17    18   ar
    23    18    19   ar
    24    21    22    1
    25    22    23   ar
    26    22    27   ar
    27    23    24   ar
    28    24    25   ar
    29    25    26   ar
    30    26    27   ar
