@<TRIPOS>MOLECULE
36159_ChemDiv_C169-0228
 26 30 0 0 0
SMALL
GASTEIGER
Energy = 0

@<TRIPOS>ATOM
      1 C           1.7830    0.0630    0.0000 C.ar    1  LIG1        0.1208
      2 C           0.8130   -0.1500    0.0000 C.ar    1  LIG1        0.1564
      3 N           0.3080    0.7130    0.0000 N.ar    1  LIG1       -0.2731
      4 C           0.9790    1.4580    0.0000 C.ar    1  LIG1        0.1682
      5 N           1.8880    1.0460    0.0000 N.ar    1  LIG1       -0.2230
      6 C           0.6790    2.4080    0.0000 C.ar    1  LIG1        0.1362
      7 N          -0.2920    2.6210    0.0000 N.ar    1  LIG1       -0.2376
      8 C          -0.9710    1.8710    0.0000 C.ar    1  LIG1        0.1180
      9 C          -0.6580    0.9250    0.0000 C.ar    1  LIG1        0.1033
     10 N           0.3080   -1.0210    0.0000 N.pl3   1  LIG1       -0.1938
     11 C          -0.6880   -1.0210    0.0000 C.ar    1  LIG1        0.0754
     12 C          -1.1880   -0.1580    0.0000 C.ar    1  LIG1        0.0566
     13 C          -2.1960   -0.1580    0.0000 C.ar    1  LIG1        0.1737
     14 C          -2.6960   -1.0210    0.0000 C.ar    1  LIG1        0.1725
     15 O          -3.6920   -1.0210    0.0000 O.3     1  LIG1       -0.4684
     16 C          -4.1960   -0.1580    0.0000 C.3     1  LIG1        0.2526
     17 C          -3.6920    0.7130    0.0000 C.3     1  LIG1        0.2526
     18 O          -2.6960    0.7130    0.0000 O.3     1  LIG1       -0.4683
     19 C          -2.1960   -1.8880    0.0000 C.ar    1  LIG1        0.0414
     20 C          -1.1880   -1.8880    0.0000 C.ar    1  LIG1        0.0199
     21 C           2.6250   -0.4790    0.0000 C.ar    1  LIG1        0.0507
     22 S           2.6750   -1.4960    0.0000 S.2     1  LIG1       -0.0739
     23 C           3.6380   -1.7540    0.0000 C.ar    1  LIG1        0.0870
     24 C           4.1920   -0.8920    0.0000 C.ar    1  LIG1        0.0185
     25 C           3.5500   -0.1330    0.0000 C.ar    1  LIG1        0.0095
     26 CL          4.1290   -2.6170    0.0000 Cl      1  LIG1       -0.0752
@<TRIPOS>BOND
     1     1     2   ar
     2     1     5   ar
     3     1    21    1
     4     2     3   ar
     5     2    10    1
     6     3     4   ar
     7     3     9   ar
     8     4     5   ar
     9     4     6   ar
    10     6     7   ar
    11     7     8   ar
    12     8     9   ar
    13    10    11    1
    14    11    12   ar
    15    11    20   ar
    16    12    13   ar
    17    13    14   ar
    18    13    18    1
    19    14    15    1
    20    14    19   ar
    21    15    16    1
    22    16    17    1
    23    17    18    1
    24    19    20   ar
    25    21    22   ar
    26    21    25   ar
    27    22    23   ar
    28    23    24   ar
    29    23    26    1
    30    24    25   ar
