@<TRIPOS>MOLECULE
36154_ChemDiv_C200-0795
 32 35 0 0 0
SMALL
GASTEIGER
Energy = 0

@<TRIPOS>ATOM
      1 C           1.9290   -1.4830    0.0000 C.ar    1  LIG1        0.0414
      2 C           2.8830   -1.1710    0.0000 C.ar    1  LIG1        0.1015
      3 C           3.4710   -1.9830    0.0000 C.ar    1  LIG1        0.1042
      4 S           2.8830   -2.7880    0.0000 S.2     1  LIG1       -0.0620
      5 C           1.9290   -2.4830    0.0000 C.ar    1  LIG1        0.1118
      6 N           1.0670   -2.9960    0.0000 N.ar    1  LIG1       -0.2430
      7 C           0.1920   -2.4830    0.0000 C.ar    1  LIG1        0.0643
      8 C           0.1920   -1.4830    0.0000 C.ar    1  LIG1        0.0690
      9 C           1.0670   -0.9830    0.0000 C.ar    1  LIG1        0.0089
     10 C           1.0670    0.0130    0.0000 C.ar    1  LIG1        0.0003
     11 C           1.9420    0.5040    0.0000 C.ar    1  LIG1        0.0009
     12 C           1.9460    1.5040    0.0000 C.ar    1  LIG1        0.0114
     13 C           1.0790    2.0040    0.0000 C.ar    1  LIG1        0.0577
     14 C           0.2080    1.5040    0.0000 C.ar    1  LIG1        0.0114
     15 C           0.2080    0.5040    0.0000 C.ar    1  LIG1        0.0009
     16 CL          1.0830    3.0000    0.0000 Cl      1  LIG1       -0.0822
     17 C          -0.6710   -0.9750    0.0000 C.2     1  LIG1        0.2701
     18 N          -1.5460   -1.4750    0.0000 N.am    1  LIG1       -0.1757
     19 C          -2.4080   -0.9750    0.0000 C.ar    1  LIG1        0.0697
     20 C          -3.2580   -1.4750    0.0000 C.ar    1  LIG1       -0.0068
     21 C          -4.1210   -0.9750    0.0000 C.ar    1  LIG1       -0.0072
     22 C          -4.1210    0.0290    0.0000 C.ar    1  LIG1       -0.0221
     23 C          -3.2540    0.5210    0.0000 C.ar    1  LIG1       -0.0029
     24 C          -2.3920    0.0210    0.0000 C.ar    1  LIG1        0.0160
     25 C          -4.9830    0.5380    0.0000 C.3     1  LIG1        0.0310
     26 C          -3.2580   -2.4710    0.0000 C.3     1  LIG1        0.0324
     27 O          -0.6710    0.0210    0.0000 O.2     1  LIG1       -0.2680
     28 C          -0.6750   -2.9830    0.0000 C.3     1  LIG1        0.0523
     29 C           4.4790   -1.9830    0.0000 C.2     1  LIG1        0.2916
     30 O           4.9790   -2.8500    0.0000 O.2     1  LIG1       -0.2661
     31 N           4.9710   -1.1130    0.0000 N.am    1  LIG1       -0.0832
     32 N           3.1920   -0.2210    0.0000 N.pl3   1  LIG1       -0.1273
@<TRIPOS>BOND
     1     1     2   ar
     2     1     5   ar
     3     1     9   ar
     4     2     3   ar
     5     2    32    1
     6     3     4   ar
     7     3    29    1
     8     4     5   ar
     9     5     6   ar
    10     6     7   ar
    11     7     8   ar
    12     7    28    1
    13     8     9   ar
    14     8    17    1
    15     9    10    1
    16    10    11   ar
    17    10    15   ar
    18    11    12   ar
    19    12    13   ar
    20    13    14   ar
    21    13    16    1
    22    14    15   ar
    23    17    18   am
    24    17    27    2
    25    18    19    1
    26    19    20   ar
    27    19    24   ar
    28    20    21   ar
    29    20    26    1
    30    21    22   ar
    31    22    23   ar
    32    22    25    1
    33    23    24   ar
    34    29    30    2
    35    29    31   am
