@<TRIPOS>MOLECULE
36163_ChemDiv_C155-0747
 26 27 0 0 0
SMALL
GASTEIGER
Energy = 0

@<TRIPOS>ATOM
      1 C1          2.1540    0.2500    0.0000 C.2     1  <1>         0.2651
      2 N1          3.0250   -0.2540    0.0000 N.am    1  <1>        -0.1977
      3 C2          3.8920    0.2460    0.0000 C.3     1  <1>         0.1325
      4 C3          4.7580   -0.2630    0.0000 C.2     1  <1>         0.0702
      5 O1          5.6290    0.2420    0.0000 O.co2   1  <1>        -0.5474
      6 O2          4.7580   -1.2580    0.0000 O.co2   1  <1>        -0.5474
      7 C4          3.8960    1.2460    0.0000 C.3     1  <1>         0.0390
      8 C5          4.7630    1.7380    0.0000 C.3     1  <1>         0.0597
      9 S1          4.7630    2.7380    0.0000 S.3     1  <1>        -0.1393
     10 C6          5.6330    3.2380    0.0000 C.3     1  <1>         0.0692
     11 C7          1.2880   -0.2500    0.0000 C.ar    1  <1>         0.0550
     12 C8          1.2790   -1.2500    0.0000 C.ar    1  <1>         0.0042
     13 C9          0.4170   -1.7460    0.0000 C.ar    1  <1>        -0.0041
     14 C10        -0.4460   -1.2420    0.0000 C.ar    1  <1>        -0.0225
     15 C11        -1.3130   -1.7380    0.0000 C.3     1  <1>         0.0223
     16 C12        -1.3170   -2.7380    0.0000 C.3     1  <1>         0.0044
     17 C13        -2.1830   -3.2330    0.0000 C.3     1  <1>         0.0003
     18 C14        -3.0460   -2.7330    0.0000 C.3     1  <1>         0.0000
     19 C15        -3.0500   -1.7330    0.0000 C.3     1  <1>         0.0003
     20 C16        -2.1750   -1.2330    0.0000 C.3     1  <1>         0.0044
     21 C17        -3.9130   -3.2330    0.0000 C.3     1  <1>         0.0000
     22 C18        -4.7750   -2.7330    0.0000 C.3     1  <1>         0.0000
     23 C19        -5.6380   -3.2330    0.0000 C.3     1  <1>         0.0000
     24 C20        -0.4460   -0.2460    0.0000 C.ar    1  <1>        -0.0041
     25 C21         0.4210    0.2540    0.0000 C.ar    1  <1>         0.0042
     26 O3          2.1630    1.2500    0.0000 O.2     1  <1>        -0.2684
@<TRIPOS>BOND
     1     1     2   am
     2     1    11    1
     3     1    26    2
     4     2     3    1
     5     3     4    1
     6     3     7    1
     7     4     5   ar
     8     4     6   ar
     9     7     8    1
    10     8     9    1
    11     9    10    1
    12    11    12   ar
    13    11    25   ar
    14    12    13   ar
    15    13    14   ar
    16    14    15    1
    17    14    24   ar
    18    15    16    1
    19    15    20    1
    20    16    17    1
    21    17    18    1
    22    18    19    1
    23    18    21    1
    24    19    20    1
    25    21    22    1
    26    22    23    1
    27    24    25   ar
