@<TRIPOS>MOLECULE
36166_ChemDiv_C200-2702
 31 34 0 0 0
SMALL
GASTEIGER
Energy = 0

@<TRIPOS>ATOM
      1 N           1.0920   -1.6460    0.0000 N.ar    1  LIG1       -0.2524
      2 C           0.2290   -1.1330    0.0000 C.ar    1  LIG1        0.2853
      3 C          -0.6420   -1.6290    0.0000 C.ar    1  LIG1        0.1855
      4 S          -1.5130   -1.1290    0.0000 S.O2    1  LIG1        0.0335
      5 C          -2.3790   -0.6210    0.0000 C.ar    1  LIG1        0.1115
      6 C          -3.2460   -1.1170    0.0000 C.ar    1  LIG1        0.0324
      7 C          -4.1080   -0.6210    0.0000 C.ar    1  LIG1        0.0863
      8 C          -4.1080    0.3790    0.0000 C.ar    1  LIG1        0.1507
      9 C          -3.2460    0.8750    0.0000 C.ar    1  LIG1        0.0318
     10 C          -2.3790    0.3790    0.0000 C.ar    1  LIG1        0.0211
     11 F          -4.9710    0.8920    0.0000 F       1  LIG1       -0.2033
     12 CL         -4.9670   -1.1170    0.0000 Cl      1  LIG1       -0.0799
     13 O          -1.0000   -0.2580    0.0000 O.2     1  LIG1       -0.1640
     14 O          -2.0170   -1.9920    0.0000 O.2     1  LIG1       -0.1640
     15 C          -0.6540   -2.6420    0.0000 C.ar    1  LIG1        0.1246
     16 N           0.2130   -3.1540    0.0000 N.ar    1  LIG1       -0.2189
     17 C           1.0880   -2.6540    0.0000 C.ar    1  LIG1        0.1817
     18 S           2.0420   -2.9710    0.0000 S.2     1  LIG1       -0.0479
     19 C           2.6420   -2.1670    0.0000 C.ar    1  LIG1        0.0560
     20 C           2.0580   -1.3460    0.0000 C.ar    1  LIG1        0.0753
     21 C           2.3750   -0.4080    0.0000 C.ar    1  LIG1        0.0200
     22 C           3.3540   -0.2130    0.0000 C.ar    1  LIG1        0.0415
     23 C           3.6710    0.7250    0.0000 C.ar    1  LIG1        0.1724
     24 C           3.0170    1.4750    0.0000 C.ar    1  LIG1        0.1724
     25 C           2.0380    1.2790    0.0000 C.ar    1  LIG1        0.0401
     26 C           1.7210    0.3330    0.0000 C.ar    1  LIG1        0.0048
     27 O           3.3330    2.4130    0.0000 O.3     1  LIG1       -0.4684
     28 C           2.6750    3.1580    0.0000 C.3     1  LIG1        0.2526
     29 O           4.6500    0.9210    0.0000 O.3     1  LIG1       -0.4684
     30 C           4.9670    1.8670    0.0000 C.3     1  LIG1        0.2526
     31 O           0.2330   -0.1380    0.0000 O.2     1  LIG1       -0.2651
@<TRIPOS>BOND
     1     1     2   ar
     2     1    17   ar
     3     1    20   ar
     4     2     3   ar
     5     2    31    2
     6     3     4    1
     7     3    15   ar
     8     4     5    1
     9     4    13    2
    10     4    14    2
    11     5     6   ar
    12     5    10   ar
    13     6     7   ar
    14     7     8   ar
    15     7    12    1
    16     8     9   ar
    17     8    11    1
    18     9    10   ar
    19    15    16   ar
    20    16    17   ar
    21    17    18   ar
    22    18    19   ar
    23    19    20   ar
    24    20    21    1
    25    21    22   ar
    26    21    26   ar
    27    22    23   ar
    28    23    24   ar
    29    23    29    1
    30    24    25   ar
    31    24    27    1
    32    25    26   ar
    33    27    28    1
    34    29    30    1
