@<TRIPOS>MOLECULE
36165_ChemDiv_C155-0465
 33 37 0 0 0
SMALL
GASTEIGER
Energy = 0

@<TRIPOS>ATOM
      1 C          -2.2580    2.1630    0.0000 C.3     1  LIG1        0.0189
      2 C          -1.2630    2.2080    0.0000 C.ar    1  LIG1       -0.0228
      3 C          -0.8130    3.0880    0.0000 C.ar    1  LIG1       -0.0041
      4 C           0.1960    3.1330    0.0000 C.ar    1  LIG1        0.0042
      5 C           0.7330    2.2830    0.0000 C.ar    1  LIG1        0.0550
      6 C           1.7330    2.3290    0.0000 C.2     1  LIG1        0.2652
      7 N           2.2630    1.4750    0.0000 N.am    1  LIG1       -0.1941
      8 C           3.2630    1.5210    0.0000 C.3     1  LIG1        0.1715
      9 C           3.8130    0.6710    0.0000 C.2     1  LIG1        0.2459
     10 N           3.3460   -0.2170    0.0000 N.am    1  LIG1       -0.2694
     11 C           3.8830   -1.0500    0.0000 C.3     1  LIG1        0.1583
     12 C           3.4170   -1.9380    0.0000 C.ar    1  LIG1        0.1430
     13 O           3.8670   -2.8380    0.0000 O.2     1  LIG1       -0.4530
     14 C           3.1500   -3.5330    0.0000 C.ar    1  LIG1        0.1792
     15 C           2.2750   -3.0670    0.0000 C.ar    1  LIG1        0.0435
     16 C           2.4380   -2.0830    0.0000 C.ar    1  LIG1        0.0379
     17 C           2.3540   -0.2540    0.0000 C.3     1  LIG1        0.1153
     18 O           4.8080    0.7170    0.0000 O.2     1  LIG1       -0.2730
     19 C           3.7290    2.4000    0.0000 C.3     1  LIG1        0.0289
     20 C           3.1880    3.2500    0.0000 C.3     1  LIG1        0.0023
     21 C           4.7250    2.4460    0.0000 C.3     1  LIG1        0.0023
     22 O           2.1920    3.2080    0.0000 O.2     1  LIG1       -0.2684
     23 C           0.2580    1.3920    0.0000 C.ar    1  LIG1        0.0042
     24 C          -0.7380    1.3580    0.0000 C.ar    1  LIG1       -0.0041
     25 C          -2.9250    1.3290    0.0000 C.3     1  LIG1        0.0040
     26 C          -3.8330    1.7040    0.0000 C.3     1  LIG1        0.0003
     27 C          -3.8420    2.7290    0.0000 C.3     1  LIG1        0.0000
     28 C          -3.1670    3.5380    0.0000 C.3     1  LIG1        0.0003
     29 C          -2.2580    3.1630    0.0000 C.3     1  LIG1        0.0040
     30 C          -4.0460    3.2170    0.0000 C.3     1  LIG1        0.0000
     31 C          -4.0460    2.2630    0.0000 C.3     1  LIG1        0.0003
     32 C          -3.1750    1.9330    0.0000 C.3     1  LIG1        0.0040
     33 C          -4.8130    1.4290    0.0000 C.3     1  LIG1        0.0000
@<TRIPOS>BOND
     1     1     2    1
     2     1    25    1
     3     1    29    1
     4     1    32    1
     5     2     3   ar
     6     2    24   ar
     7     3     4   ar
     8     4     5   ar
     9     5     6    1
    10     5    23   ar
    11     6     7   am
    12     6    22    2
    13     7     8    1
    14     8     9    1
    15     8    19    1
    16     9    10   am
    17     9    18    2
    18    10    11    1
    19    10    17    1
    20    11    12    1
    21    12    13   ar
    22    12    16   ar
    23    13    14   ar
    24    14    15   ar
    25    15    16   ar
    26    19    20    1
    27    19    21    1
    28    23    24   ar
    29    25    26    1
    30    26    27    1
    31    26    33    1
    32    27    28    1
    33    28    29    1
    34    28    30    1
    35    30    31    1
    36    31    32    1
    37    31    33    1
