@<TRIPOS>MOLECULE
36162_ChemDiv_C200-4067
 15 17 0 0 0
SMALL
GASTEIGER
Energy = 0

@<TRIPOS>ATOM
      1 C           0.1380    0.9710    0.0000 C.2     1  LIG1        0.1036
      2 N           1.0000    0.4710    0.0000 N.am    1  LIG1       -0.2141
      3 C           1.0000   -0.5290    0.0000 C.3     1  LIG1        0.1507
      4 N           0.1380   -1.0290    0.0000 N.pl3   1  LIG1       -0.2210
      5 C          -0.7250   -0.5290    0.0000 C.ar    1  LIG1        0.0688
      6 C          -0.7250    0.4710    0.0000 C.ar    1  LIG1        0.0364
      7 C          -1.5920    0.9710    0.0000 C.ar    1  LIG1        0.0031
      8 C          -2.4580    0.4630    0.0000 C.ar    1  LIG1        0.0001
      9 C          -2.4580   -0.5290    0.0000 C.ar    1  LIG1        0.0013
     10 C          -1.5920   -1.0290    0.0000 C.ar    1  LIG1        0.0162
     11 C           0.8580   -1.5290    0.0000 C.3     1  LIG1        0.0404
     12 C           1.7580   -1.9670    0.0000 C.3     1  LIG1        0.0036
     13 C           2.4540   -1.2500    0.0000 C.3     1  LIG1        0.0036
     14 C           1.9830   -0.3630    0.0000 C.3     1  LIG1        0.0404
     15 S           0.1380    1.9710    0.0000 S.2     1  LIG1       -0.0331
@<TRIPOS>BOND
     1     1     2    1
     2     1     6    1
     3     1    15    2
     4     2     3    1
     5     3     4    1
     6     3    11    1
     7     3    14    1
     8     4     5    1
     9     5     6   ar
    10     5    10   ar
    11     6     7   ar
    12     7     8   ar
    13     8     9   ar
    14     9    10   ar
    15    11    12    1
    16    12    13    1
    17    13    14    1
