@<TRIPOS>MOLECULE
36168_ChemDiv_C200-2732
 27 30 0 0 0
SMALL
GASTEIGER
Energy = 0

@<TRIPOS>ATOM
      1 C           0.3500    1.8250    0.0000 C.ar    1  LIG1        0.1945
      2 C           0.8540    0.9630    0.0000 C.ar    1  LIG1        0.1928
      3 N           1.8250    1.1750    0.0000 N.ar    1  LIG1       -0.2059
      4 N           1.9330    2.1670    0.0000 N.ar    1  LIG1       -0.0620
      5 N           1.0170    2.5710    0.0000 N.ar    1  LIG1       -0.1224
      6 C           2.5790    0.5080    0.0000 C.3     1  LIG1        0.2172
      7 C           3.5250    0.8170    0.0000 C.2     1  LIG1        0.2705
      8 N           4.2670    0.1500    0.0000 N.am    1  LIG1       -0.1775
      9 C           4.0710   -0.8250    0.0000 C.ar    1  LIG1        0.0734
     10 C           3.1130   -1.1420    0.0000 C.ar    1  LIG1        0.0166
     11 C           2.9170   -2.1170    0.0000 C.ar    1  LIG1        0.0013
     12 C           3.6580   -2.7830    0.0000 C.ar    1  LIG1        0.0001
     13 C           4.6170   -2.4630    0.0000 C.ar    1  LIG1        0.0013
     14 C           4.8130   -1.4880    0.0000 C.ar    1  LIG1        0.0166
     15 O           3.7290    1.7960    0.0000 O.2     1  LIG1       -0.2708
     16 N           0.4460    0.0380    0.0000 N.pl3   1  LIG1       -0.1056
     17 C          -0.6460    1.9170    0.0000 C.ar    1  LIG1        0.2824
     18 N          -1.3130    1.1750    0.0000 N.ar    1  LIG1       -0.1855
     19 C          -2.2250    1.5830    0.0000 C.ar    1  LIG1        0.2036
     20 N          -2.1210    2.5750    0.0000 N.ar    1  LIG1       -0.0556
     21 O          -1.1460    2.7880    0.0000 O.2     1  LIG1       -0.3307
     22 C          -3.0880    1.0750    0.0000 C.ar    1  LIG1        0.0391
     23 C          -3.0880    0.0670    0.0000 C.ar    1  LIG1        0.0032
     24 C          -3.9540   -0.4330    0.0000 C.ar    1  LIG1        0.0001
     25 C          -4.8170    0.0670    0.0000 C.ar    1  LIG1        0.0000
     26 C          -4.8170    1.0750    0.0000 C.ar    1  LIG1        0.0001
     27 C          -3.9540    1.5750    0.0000 C.ar    1  LIG1        0.0032
@<TRIPOS>BOND
     1     1     2   ar
     2     1     5   ar
     3     1    17    1
     4     2     3   ar
     5     2    16    1
     6     3     4   ar
     7     3     6    1
     8     4     5   ar
     9     6     7    1
    10     7     8   am
    11     7    15    2
    12     8     9    1
    13     9    10   ar
    14     9    14   ar
    15    10    11   ar
    16    11    12   ar
    17    12    13   ar
    18    13    14   ar
    19    17    18   ar
    20    17    21   ar
    21    18    19   ar
    22    19    20   ar
    23    19    22    1
    24    20    21   ar
    25    22    23   ar
    26    22    27   ar
    27    23    24   ar
    28    24    25   ar
    29    25    26   ar
    30    26    27   ar
