@<TRIPOS>MOLECULE
36169_ChemDiv_C156-0021
 34 37 0 0 0
SMALL
GASTEIGER
Energy = 0

@<TRIPOS>ATOM
      1 S           3.1250    2.5460    0.0000 S.O2    1  LIG1        0.0634
      2 C           2.1290    2.6210    0.0000 C.ar    1  LIG1        0.1222
      3 C           1.7040    3.5290    0.0000 C.ar    1  LIG1        0.0201
      4 C           0.7080    3.6080    0.0000 C.ar    1  LIG1        0.0059
      5 C           0.1290    2.7960    0.0000 C.ar    1  LIG1        0.0551
      6 C          -0.8710    2.8790    0.0000 C.2     1  LIG1        0.2648
      7 O          -1.3000    3.7960    0.0000 O.2     1  LIG1       -0.2684
      8 N          -1.4420    2.0630    0.0000 N.am    1  LIG1       -0.2007
      9 C          -1.0170    1.1670    0.0000 C.3     1  LIG1        0.1274
     10 C          -1.6000    0.3540    0.0000 C.3     1  LIG1        0.0856
     11 S          -1.1750   -0.5630    0.0000 S.3     1  LIG1       -0.1102
     12 C          -1.7540   -1.3790    0.0000 C.ar    1  LIG1        0.0443
     13 C          -1.4420   -2.3250    0.0000 C.ar    1  LIG1        0.0869
     14 N          -2.2380   -2.9170    0.0000 N.ar    1  LIG1       -0.2448
     15 C          -3.0540   -2.3380    0.0000 C.ar    1  LIG1        0.0818
     16 C          -2.7460   -1.3790    0.0000 C.ar    1  LIG1        0.0248
     17 C          -3.4210   -0.6460    0.0000 C.ar    1  LIG1        0.0020
     18 C          -4.3960   -0.8630    0.0000 C.ar    1  LIG1        0.0001
     19 C          -4.6960   -1.8130    0.0000 C.ar    1  LIG1        0.0015
     20 C          -4.0290   -2.5540    0.0000 C.ar    1  LIG1        0.0191
     21 C          -0.4750   -2.5750    0.0000 C.ar    1  LIG1        0.0181
     22 C           0.2250   -1.8710    0.0000 C.ar    1  LIG1        0.0012
     23 C           1.1710   -2.1210    0.0000 C.ar    1  LIG1       -0.0042
     24 C           1.4580   -3.0920    0.0000 C.ar    1  LIG1       -0.0218
     25 C           0.7580   -3.7920    0.0000 C.ar    1  LIG1       -0.0042
     26 C          -0.2080   -3.5420    0.0000 C.ar    1  LIG1        0.0012
     27 C           2.4250   -3.3500    0.0000 C.3     1  LIG1        0.0310
     28 C           0.5580    1.8790    0.0000 C.ar    1  LIG1        0.0059
     29 C           1.5540    1.7960    0.0000 C.ar    1  LIG1        0.0201
     30 N           4.1250    2.4790    0.0000 N.3     1  LIG1       -0.1526
     31 C           4.5710    1.5790    0.0000 C.3     1  LIG1        0.1150
     32 C           4.6920    3.3130    0.0000 C.3     1  LIG1        0.1150
     33 O           3.2040    3.5420    0.0000 O.2     1  LIG1       -0.1528
     34 O           3.0630    1.5460    0.0000 O.2     1  LIG1       -0.1528
@<TRIPOS>BOND
     1     1     2    1
     2     1    30    1
     3     1    33    2
     4     1    34    2
     5     2     3   ar
     6     2    29   ar
     7     3     4   ar
     8     4     5   ar
     9     5     6    1
    10     5    28   ar
    11     6     7    2
    12     6     8   am
    13     8     9    1
    14     9    10    1
    15    10    11    1
    16    11    12    1
    17    12    13   ar
    18    12    16   ar
    19    13    14   ar
    20    13    21    1
    21    14    15   ar
    22    15    16   ar
    23    15    20   ar
    24    16    17   ar
    25    17    18   ar
    26    18    19   ar
    27    19    20   ar
    28    21    22   ar
    29    21    26   ar
    30    22    23   ar
    31    23    24   ar
    32    24    25   ar
    33    24    27    1
    34    25    26   ar
    35    28    29   ar
    36    30    31    1
    37    30    32    1
