@<TRIPOS>MOLECULE
36160_ChemDiv_C200-1050
 31 35 0 0 0
SMALL
GASTEIGER
Energy = 0

@<TRIPOS>ATOM
      1 N          -2.8040   -0.9380    0.0000 N.ar    1  LIG1       -0.2470
      2 C          -3.6630   -0.4290    0.0000 C.ar    1  LIG1        0.2717
      3 C          -4.5290   -0.9380    0.0000 C.ar    1  LIG1        0.1035
      4 C          -4.5420   -1.9380    0.0000 C.ar    1  LIG1        0.0971
      5 N          -3.6630   -2.4380    0.0000 N.ar    1  LIG1       -0.1915
      6 C          -2.8040   -1.9380    0.0000 C.ar    1  LIG1        0.3524
      7 O          -1.9420   -2.4380    0.0000 O.2     1  LIG1       -0.2444
      8 C          -5.4920   -2.2380    0.0000 C.ar    1  LIG1        0.0269
      9 C          -6.0790   -1.4380    0.0000 C.ar    1  LIG1        0.0372
     10 S          -5.4920   -0.6250    0.0000 S.2     1  LIG1       -0.0802
     11 O          -3.6630    0.5710    0.0000 O.2     1  LIG1       -0.2663
     12 C          -1.9420   -0.4420    0.0000 C.3     1  LIG1        0.1136
     13 C          -1.0830   -0.9420    0.0000 C.3     1  LIG1        0.0248
     14 C          -0.2210   -0.4420    0.0000 C.3     1  LIG1        0.0025
     15 C           0.6420   -0.9420    0.0000 C.3     1  LIG1        0.0097
     16 C           1.5130   -0.4420    0.0000 C.3     1  LIG1        0.0868
     17 C           2.3710   -0.9500    0.0000 C.2     1  LIG1        0.2413
     18 N           3.2380   -0.4420    0.0000 N.am    1  LIG1       -0.2072
     19 C           3.2540    0.5540    0.0000 C.3     1  LIG1        0.0953
     20 C           4.1290    1.0380    0.0000 C.3     1  LIG1        0.0185
     21 C           4.3880    0.0710    0.0000 C.3     1  LIG1        0.0017
     22 C           5.3630   -0.2040    0.0000 C.3     1  LIG1        0.0001
     23 C           5.6210    0.7670    0.0000 C.3     1  LIG1        0.0000
     24 C           5.3630    1.7380    0.0000 C.3     1  LIG1        0.0001
     25 C           4.4000    2.0040    0.0000 C.3     1  LIG1        0.0017
     26 C           6.0790    2.4420    0.0000 C.3     1  LIG1        0.0000
     27 C           5.8000    1.4750    0.0000 C.3     1  LIG1        0.0001
     28 C           4.8420    1.7380    0.0000 C.3     1  LIG1        0.0017
     29 C           6.0460    0.5080    0.0000 C.3     1  LIG1        0.0000
     30 C           2.3920    1.0670    0.0000 C.3     1  LIG1        0.0234
     31 O           2.3710   -1.9460    0.0000 O.2     1  LIG1       -0.2733
@<TRIPOS>BOND
     1     1     2   ar
     2     1     6   ar
     3     1    12    1
     4     2     3   ar
     5     2    11    2
     6     3     4   ar
     7     3    10   ar
     8     4     5   ar
     9     4     8   ar
    10     5     6   ar
    11     6     7    2
    12     8     9   ar
    13     9    10   ar
    14    12    13    1
    15    13    14    1
    16    14    15    1
    17    15    16    1
    18    16    17    1
    19    17    18   am
    20    17    31    2
    21    18    19    1
    22    19    20    1
    23    19    30    1
    24    20    21    1
    25    20    25    1
    26    20    28    1
    27    21    22    1
    28    22    23    1
    29    22    29    1
    30    23    24    1
    31    24    25    1
    32    24    26    1
    33    26    27    1
    34    27    28    1
    35    27    29    1
