@<TRIPOS>MOLECULE
36164_ChemDiv_C200-4068
 17 19 0 0 0
SMALL
GASTEIGER
Energy = 0

@<TRIPOS>ATOM
      1 C          -0.1880    1.1130    0.0000 C.2     1  LIG1        0.1036
      2 N           0.6750    0.6210    0.0000 N.am    1  LIG1       -0.2141
      3 C           0.6750   -0.3790    0.0000 C.3     1  LIG1        0.1507
      4 N          -0.1960   -0.8790    0.0000 N.pl3   1  LIG1       -0.2210
      5 C          -1.0540   -0.3960    0.0000 C.ar    1  LIG1        0.0688
      6 C          -1.0540    0.6040    0.0000 C.ar    1  LIG1        0.0364
      7 C          -1.9210    1.1040    0.0000 C.ar    1  LIG1        0.0031
      8 C          -2.7830    0.6040    0.0000 C.ar    1  LIG1        0.0001
      9 C          -2.7830   -0.3960    0.0000 C.ar    1  LIG1        0.0013
     10 C          -1.9210   -0.8960    0.0000 C.ar    1  LIG1        0.0162
     11 C           0.5330   -1.3790    0.0000 C.3     1  LIG1        0.0404
     12 C           1.2210   -2.1080    0.0000 C.3     1  LIG1        0.0035
     13 C           2.2290   -2.0170    0.0000 C.3     1  LIG1        0.0001
     14 C           2.7790   -1.1920    0.0000 C.3     1  LIG1        0.0001
     15 C           2.4790   -0.2380    0.0000 C.3     1  LIG1        0.0035
     16 C           1.5380    0.1210    0.0000 C.3     1  LIG1        0.0404
     17 S          -0.1960    2.1130    0.0000 S.2     1  LIG1       -0.0331
@<TRIPOS>BOND
     1     1     2    1
     2     1     6    1
     3     1    17    2
     4     2     3    1
     5     3     4    1
     6     3    11    1
     7     3    16    1
     8     4     5    1
     9     5     6   ar
    10     5    10   ar
    11     6     7   ar
    12     7     8   ar
    13     8     9   ar
    14     9    10   ar
    15    11    12    1
    16    12    13    1
    17    13    14    1
    18    14    15    1
    19    15    16    1
