@<TRIPOS>MOLECULE
36161_ChemDiv_C155-0442
 33 37 0 0 0
SMALL
GASTEIGER
Energy = 0

@<TRIPOS>ATOM
      1 C          -2.2630    1.8500    0.0000 C.3     1  LIG1        0.0189
      2 C          -1.2630    1.8880    0.0000 C.ar    1  LIG1       -0.0228
      3 C          -0.7420    1.0420    0.0000 C.ar    1  LIG1       -0.0041
      4 C           0.2670    1.0790    0.0000 C.ar    1  LIG1        0.0042
      5 C           0.7380    1.9710    0.0000 C.ar    1  LIG1        0.0550
      6 C           1.7380    2.0170    0.0000 C.2     1  LIG1        0.2652
      7 N           2.2670    1.1630    0.0000 N.am    1  LIG1       -0.1941
      8 C           3.2790    1.2080    0.0000 C.3     1  LIG1        0.1715
      9 C           3.8080    0.3540    0.0000 C.2     1  LIG1        0.2458
     10 N           3.3500   -0.5250    0.0000 N.am    1  LIG1       -0.2667
     11 C           2.3580   -0.5630    0.0000 C.3     1  LIG1        0.1565
     12 C           1.8920   -1.4420    0.0000 C.3     1  LIG1        0.1605
     13 N           2.4170   -2.2880    0.0000 N.4     1  LIG1        0.3799
     14 C           3.4250   -2.2500    0.0000 C.3     1  LIG1        0.1605
     15 C           3.8830   -1.3710    0.0000 C.3     1  LIG1        0.1565
     16 C           1.9580   -3.1670    0.0000 C.3     1  LIG1        0.1389
     17 C           0.9670   -3.2130    0.0000 C.3     1  LIG1        0.0688
     18 O           4.8080    0.3920    0.0000 O.2     1  LIG1       -0.2730
     19 C           3.7380    2.0880    0.0000 C.3     1  LIG1        0.0289
     20 C           4.7380    2.1330    0.0000 C.3     1  LIG1        0.0023
     21 C           3.1960    2.9420    0.0000 C.3     1  LIG1        0.0023
     22 O           2.2040    2.9040    0.0000 O.2     1  LIG1       -0.2684
     23 C           0.1960    2.8130    0.0000 C.ar    1  LIG1        0.0042
     24 C          -0.8040    2.7670    0.0000 C.ar    1  LIG1       -0.0041
     25 C          -2.9330    1.0170    0.0000 C.3     1  LIG1        0.0040
     26 C          -3.8330    1.3920    0.0000 C.3     1  LIG1        0.0003
     27 C          -3.8420    2.4210    0.0000 C.3     1  LIG1        0.0000
     28 C          -3.1630    3.2170    0.0000 C.3     1  LIG1        0.0003
     29 C          -2.2540    2.8500    0.0000 C.3     1  LIG1        0.0040
     30 C          -4.0330    2.9040    0.0000 C.3     1  LIG1        0.0000
     31 C          -4.0330    1.9500    0.0000 C.3     1  LIG1        0.0003
     32 C          -3.1710    1.6210    0.0000 C.3     1  LIG1        0.0040
     33 C          -4.8130    1.1170    0.0000 C.3     1  LIG1        0.0000
@<TRIPOS>BOND
     1     1     2    1
     2     1    25    1
     3     1    29    1
     4     1    32    1
     5     2     3   ar
     6     2    24   ar
     7     3     4   ar
     8     4     5   ar
     9     5     6    1
    10     5    23   ar
    11     6     7   am
    12     6    22    2
    13     7     8    1
    14     8     9    1
    15     8    19    1
    16     9    10   am
    17     9    18    2
    18    10    11    1
    19    10    15    1
    20    11    12    1
    21    12    13    1
    22    13    14    1
    23    13    16    1
    24    14    15    1
    25    16    17    1
    26    19    20    1
    27    19    21    1
    28    23    24   ar
    29    25    26    1
    30    26    27    1
    31    26    33    1
    32    27    28    1
    33    28    29    1
    34    28    30    1
    35    30    31    1
    36    31    32    1
    37    31    33    1
