@<TRIPOS>MOLECULE
36179_ChemDiv_C169-0238
 26 30 0 0 0
SMALL
GASTEIGER
Energy = 0

@<TRIPOS>ATOM
      1 C           1.5710    0.4710    0.0000 C.ar    1  LIG1        0.1164
      2 C           0.6000    0.3330    0.0000 C.ar    1  LIG1        0.1560
      3 N           0.1380    1.2130    0.0000 N.ar    1  LIG1       -0.2732
      4 C           0.8460    1.9210    0.0000 C.ar    1  LIG1        0.1681
      5 N           1.7290    1.4580    0.0000 N.ar    1  LIG1       -0.2234
      6 C           0.5920    2.8790    0.0000 C.ar    1  LIG1        0.1362
      7 N          -0.3830    3.1330    0.0000 N.ar    1  LIG1       -0.2376
      8 C          -1.0750    2.4460    0.0000 C.ar    1  LIG1        0.1180
      9 C          -0.8170    1.4670    0.0000 C.ar    1  LIG1        0.1033
     10 N           0.1460   -0.5880    0.0000 N.pl3   1  LIG1       -0.1939
     11 C          -0.8500   -0.6460    0.0000 C.ar    1  LIG1        0.0721
     12 C          -1.4080    0.1960    0.0000 C.ar    1  LIG1        0.0162
     13 C          -2.4080    0.1250    0.0000 C.ar    1  LIG1       -0.0029
     14 C          -2.8630   -0.7750    0.0000 C.ar    1  LIG1       -0.0218
     15 C          -2.2920   -1.6080    0.0000 C.ar    1  LIG1       -0.0029
     16 C          -1.2920   -1.5460    0.0000 C.ar    1  LIG1        0.0162
     17 C          -3.8630   -0.8330    0.0000 C.3     1  LIG1        0.0310
     18 C           2.3420   -0.1670    0.0000 C.ar    1  LIG1        0.0410
     19 C           3.3170    0.0920    0.0000 C.ar    1  LIG1        0.1004
     20 N           3.8580   -0.7540    0.0000 N.ar    1  LIG1       -0.2438
     21 C           3.2130   -1.5130    0.0000 C.ar    1  LIG1        0.0814
     22 C           2.2880   -1.1500    0.0000 C.ar    1  LIG1        0.0207
     23 C           1.5000   -1.7710    0.0000 C.ar    1  LIG1        0.0016
     24 C           1.6500   -2.7580    0.0000 C.ar    1  LIG1        0.0001
     25 C           2.5750   -3.1290    0.0000 C.ar    1  LIG1        0.0015
     26 C           3.3630   -2.5080    0.0000 C.ar    1  LIG1        0.0191
@<TRIPOS>BOND
     1     1     2   ar
     2     1     5   ar
     3     1    18    1
     4     2     3   ar
     5     2    10    1
     6     3     4   ar
     7     3     9   ar
     8     4     5   ar
     9     4     6   ar
    10     6     7   ar
    11     7     8   ar
    12     8     9   ar
    13    10    11    1
    14    11    12   ar
    15    11    16   ar
    16    12    13   ar
    17    13    14   ar
    18    14    15   ar
    19    14    17    1
    20    15    16   ar
    21    18    19   ar
    22    18    22   ar
    23    19    20   ar
    24    20    21   ar
    25    21    22   ar
    26    21    26   ar
    27    22    23   ar
    28    23    24   ar
    29    24    25   ar
    30    25    26   ar
