@<TRIPOS>MOLECULE
36172_ChemDiv_C200-3039
 17 19 0 0 0
SMALL
GASTEIGER
Energy = 0

@<TRIPOS>ATOM
      1 C          -0.3790   -1.1540    0.0000 C.2     1  LIG1        0.2837
      2 N           0.5960   -1.3670    0.0000 N.am    1  LIG1       -0.1809
      3 C           1.0960   -0.5000    0.0000 C.3     1  LIG1        0.1740
      4 N           0.4290    0.2460    0.0000 N.2     1  LIG1       -0.2490
      5 C          -0.4830   -0.1670    0.0000 C.2     1  LIG1        0.1326
      6 C          -1.3500    0.3290    0.0000 C.ar    1  LIG1        0.0218
      7 C          -1.3500    1.3380    0.0000 C.ar    1  LIG1        0.0016
      8 C          -2.2250    1.8380    0.0000 C.ar    1  LIG1        0.0001
      9 C          -3.0880    1.3380    0.0000 C.ar    1  LIG1        0.0000
     10 C          -3.0880    0.3290    0.0000 C.ar    1  LIG1        0.0001
     11 C          -2.2250   -0.1710    0.0000 C.ar    1  LIG1        0.0016
     12 C           1.6000    0.3670    0.0000 C.3     1  LIG1        0.1120
     13 C           2.5960    0.3630    0.0000 C.3     1  LIG1        0.2044
     14 N           3.0830   -0.5040    0.0000 N.4     1  LIG1        0.4482
     15 C           2.5830   -1.3630    0.0000 C.3     1  LIG1        0.2044
     16 C           1.6000   -1.3630    0.0000 C.3     1  LIG1        0.1120
     17 O          -1.1210   -1.8330    0.0000 O.2     1  LIG1       -0.2667
@<TRIPOS>BOND
     1     1     2   am
     2     1     5    1
     3     1    17    2
     4     2     3    1
     5     3     4    1
     6     3    12    1
     7     3    16    1
     8     4     5    2
     9     5     6    1
    10     6     7   ar
    11     6    11   ar
    12     7     8   ar
    13     8     9   ar
    14     9    10   ar
    15    10    11   ar
    16    12    13    1
    17    13    14    1
    18    14    15    1
    19    15    16    1
