@<TRIPOS>MOLECULE
36178_ChemDiv_C604-0021
 28 30 0 0 0
SMALL
GASTEIGER
Energy = 0

@<TRIPOS>ATOM
      1 C          -1.9920   -0.4830    0.0000 C.ar    1  LIG1        0.1033
      2 C          -2.0000   -1.4880    0.0000 C.ar    1  LIG1        0.0944
      3 N          -1.1330   -1.9880    0.0000 N.ar    1  LIG1       -0.2218
      4 C          -0.2670   -1.4880    0.0000 C.ar    1  LIG1        0.1739
      5 N          -0.2670   -0.4830    0.0000 N.ar    1  LIG1       -0.2752
      6 C          -1.1330    0.0080    0.0000 C.ar    1  LIG1        0.2697
      7 O          -1.1330    1.0170    0.0000 O.2     1  LIG1       -0.2663
      8 C           0.6000    0.0080    0.0000 C.3     1  LIG1        0.1115
      9 C           0.6080    1.0080    0.0000 C.3     1  LIG1        0.0343
     10 C           1.4670    1.5040    0.0000 C.3     1  LIG1        0.0888
     11 C           1.4750    2.5000    0.0000 C.2     1  LIG1        0.2415
     12 O           0.6080    3.0000    0.0000 O.2     1  LIG1       -0.2733
     13 N           2.3330    3.0000    0.0000 N.am    1  LIG1       -0.2026
     14 C           3.2000    2.4960    0.0000 C.3     1  LIG1        0.1506
     15 C           4.0670    2.9960    0.0000 C.3     1  LIG1        0.2054
     16 O           4.9330    2.4920    0.0000 O.3     1  LIG1       -0.2184
     17 S           0.6000   -1.9920    0.0000 S.3     1  LIG1       -0.0673
     18 C           1.4670   -1.5000    0.0000 C.3     1  LIG1        0.1532
     19 C           2.3250   -2.0040    0.0000 C.2     1  LIG1        0.2722
     20 O           2.3250   -2.9960    0.0000 O.2     1  LIG1       -0.2707
     21 N           3.1920   -1.5130    0.0000 N.am    1  LIG1       -0.0870
     22 C          -2.9420   -1.8040    0.0000 C.ar    1  LIG1        0.0244
     23 C          -3.5290   -0.9960    0.0000 C.ar    1  LIG1        0.0311
     24 S          -2.9460   -0.1750    0.0000 S.2     1  LIG1       -0.0807
     25 C          -4.5250   -1.1000    0.0000 C.ar    1  LIG1        0.0065
     26 C          -4.9380   -2.0250    0.0000 C.ar    1  LIG1        0.0005
     27 C          -4.3420   -2.8330    0.0000 C.ar    1  LIG1        0.0001
     28 C          -3.3420   -2.7170    0.0000 C.ar    1  LIG1        0.0020
@<TRIPOS>BOND
     1     1     2   ar
     2     1     6   ar
     3     1    24   ar
     4     2     3   ar
     5     2    22   ar
     6     3     4   ar
     7     4     5   ar
     8     4    17    1
     9     5     6   ar
    10     5     8    1
    11     6     7    2
    12     8     9    1
    13     9    10    1
    14    10    11    1
    15    11    12    2
    16    11    13   am
    17    13    14    1
    18    14    15    1
    19    15    16    1
    20    17    18    1
    21    18    19    1
    22    19    20    2
    23    19    21   am
    24    22    23   ar
    25    22    28   ar
    26    23    24   ar
    27    23    25   ar
    28    25    26   ar
    29    26    27   ar
    30    27    28   ar
