@<TRIPOS>MOLECULE
36177_ChemDiv_C169-0221
 25 29 0 0 0
SMALL
GASTEIGER
Energy = 0

@<TRIPOS>ATOM
      1 C           0.8710   -0.4830    0.0000 C.ar    1  LIG1        0.1559
      2 N           0.3710    0.3750    0.0000 N.ar    1  LIG1       -0.2732
      3 C           1.0420    1.1250    0.0000 C.ar    1  LIG1        0.1681
      4 N           1.9460    0.7130    0.0000 N.ar    1  LIG1       -0.2235
      5 C           1.8420   -0.2750    0.0000 C.ar    1  LIG1        0.1153
      6 C           2.6130   -0.9080    0.0000 C.ar    1  LIG1        0.0275
      7 C           2.5670   -1.9080    0.0000 C.ar    1  LIG1        0.0370
      8 S           3.4920   -2.2790    0.0000 S.2     1  LIG1       -0.0859
      9 C           4.1290   -1.5080    0.0000 C.ar    1  LIG1        0.0355
     10 C           3.5790   -0.6500    0.0000 C.ar    1  LIG1        0.0091
     11 C           0.7380    2.0710    0.0000 C.ar    1  LIG1        0.1362
     12 N          -0.2330    2.2830    0.0000 N.ar    1  LIG1       -0.2376
     13 C          -0.9130    1.5330    0.0000 C.ar    1  LIG1        0.1180
     14 C          -0.5960    0.5920    0.0000 C.ar    1  LIG1        0.1033
     15 N           0.3710   -1.3580    0.0000 N.pl3   1  LIG1       -0.1938
     16 C          -0.6290   -1.3580    0.0000 C.ar    1  LIG1        0.0754
     17 C          -1.1290   -0.4960    0.0000 C.ar    1  LIG1        0.0566
     18 C          -2.1380   -0.4960    0.0000 C.ar    1  LIG1        0.1737
     19 C          -2.6380   -1.3580    0.0000 C.ar    1  LIG1        0.1725
     20 O          -3.6330   -1.3580    0.0000 O.3     1  LIG1       -0.4684
     21 C          -4.1330   -0.4960    0.0000 C.3     1  LIG1        0.2526
     22 C          -3.6330    0.3750    0.0000 C.3     1  LIG1        0.2526
     23 O          -2.6380    0.3750    0.0000 O.3     1  LIG1       -0.4683
     24 C          -2.1380   -2.2250    0.0000 C.ar    1  LIG1        0.0414
     25 C          -1.1290   -2.2250    0.0000 C.ar    1  LIG1        0.0199
@<TRIPOS>BOND
     1     1     2   ar
     2     1     5   ar
     3     1    15    1
     4     2     3   ar
     5     2    14   ar
     6     3     4   ar
     7     3    11   ar
     8     4     5   ar
     9     5     6    1
    10     6     7   ar
    11     6    10   ar
    12     7     8   ar
    13     8     9   ar
    14     9    10   ar
    15    11    12   ar
    16    12    13   ar
    17    13    14   ar
    18    15    16    1
    19    16    17   ar
    20    16    25   ar
    21    17    18   ar
    22    18    19   ar
    23    18    23    1
    24    19    20    1
    25    19    24   ar
    26    20    21    1
    27    21    22    1
    28    22    23    1
    29    24    25   ar
