@<TRIPOS>MOLECULE
36176_ChemDiv_C250-0021
 16 18 0 0 0
SMALL
GASTEIGER
Energy = 0

@<TRIPOS>ATOM
      1 C           0.3000   -0.6920    0.0000 C.2     1  LIG1        0.2837
      2 N           1.2920   -0.5420    0.0000 N.am    1  LIG1       -0.1814
      3 C           1.4630    0.4460    0.0000 C.3     1  LIG1        0.1620
      4 N           0.5830    0.9080    0.0000 N.2     1  LIG1       -0.2494
      5 C          -0.1380    0.2000    0.0000 C.2     1  LIG1        0.1326
      6 C          -1.1210    0.4250    0.0000 C.ar    1  LIG1        0.0218
      7 C          -1.4250    1.3670    0.0000 C.ar    1  LIG1        0.0016
      8 C          -2.3960    1.5880    0.0000 C.ar    1  LIG1        0.0001
      9 C          -3.0710    0.8460    0.0000 C.ar    1  LIG1        0.0000
     10 C          -2.7670   -0.1040    0.0000 C.ar    1  LIG1        0.0001
     11 C          -1.7920   -0.3130    0.0000 C.ar    1  LIG1        0.0016
     12 C           2.3500   -0.0130    0.0000 C.3     1  LIG1        0.0431
     13 C           3.0670    0.6880    0.0000 C.3     1  LIG1        0.0038
     14 C           2.6250    1.5750    0.0000 C.3     1  LIG1        0.0038
     15 C           1.6380    1.4380    0.0000 C.3     1  LIG1        0.0431
     16 O          -0.1830   -1.5830    0.0000 O.2     1  LIG1       -0.2667
@<TRIPOS>BOND
     1     1     2   am
     2     1     5    1
     3     1    16    2
     4     2     3    1
     5     3     4    1
     6     3    12    1
     7     3    15    1
     8     4     5    2
     9     5     6    1
    10     6     7   ar
    11     6    11   ar
    12     7     8   ar
    13     8     9   ar
    14     9    10   ar
    15    10    11   ar
    16    12    13    1
    17    13    14    1
    18    14    15    1
