@<TRIPOS>MOLECULE
36174_ChemDiv_C250-0020
 21 23 0 0 0
SMALL
GASTEIGER
Energy = 0

@<TRIPOS>ATOM
      1 C          -0.7750   -1.1080    0.0000 C.2     1  LIG1        0.2837
      2 N           0.2210   -0.9750    0.0000 N.am    1  LIG1       -0.1814
      3 C           0.3880    0.0210    0.0000 C.3     1  LIG1        0.1620
      4 N          -0.5000    0.4880    0.0000 N.2     1  LIG1       -0.2494
      5 C          -1.2210   -0.2210    0.0000 C.2     1  LIG1        0.1326
      6 C          -2.1880   -0.0080    0.0000 C.ar    1  LIG1        0.0218
      7 C          -2.8670   -0.7460    0.0000 C.ar    1  LIG1        0.0016
      8 C          -3.8330   -0.5330    0.0000 C.ar    1  LIG1        0.0001
      9 C          -4.1420    0.4290    0.0000 C.ar    1  LIG1        0.0000
     10 C          -3.4710    1.1710    0.0000 C.ar    1  LIG1        0.0001
     11 C          -2.4960    0.9420    0.0000 C.ar    1  LIG1        0.0016
     12 C           1.1460   -0.6130    0.0000 C.3     1  LIG1        0.0431
     13 C           2.0830   -0.2750    0.0000 C.3     1  LIG1        0.0037
     14 C           2.2630    0.7040    0.0000 C.3     1  LIG1        0.0002
     15 C           3.2000    1.0460    0.0000 C.3     1  LIG1        0.0000
     16 C           3.4580    0.0880    0.0000 C.3     1  LIG1        0.0000
     17 C           2.9380    2.0170    0.0000 C.3     1  LIG1        0.0000
     18 C           4.1380    1.3790    0.0000 C.3     1  LIG1        0.0000
     19 C           1.4960    1.3500    0.0000 C.3     1  LIG1        0.0037
     20 C           0.5580    1.0040    0.0000 C.3     1  LIG1        0.0431
     21 O          -1.2540   -2.0130    0.0000 O.2     1  LIG1       -0.2667
@<TRIPOS>BOND
     1     1     2   am
     2     1     5    1
     3     1    21    2
     4     2     3    1
     5     3     4    1
     6     3    12    1
     7     3    20    1
     8     4     5    2
     9     5     6    1
    10     6     7   ar
    11     6    11   ar
    12     7     8   ar
    13     8     9   ar
    14     9    10   ar
    15    10    11   ar
    16    12    13    1
    17    13    14    1
    18    14    15    1
    19    14    19    1
    20    15    16    1
    21    15    17    1
    22    15    18    1
    23    19    20    1
