@<TRIPOS>MOLECULE
36187_ChemDiv_C169-0333
 30 34 0 0 0
SMALL
GASTEIGER
Energy = 0

@<TRIPOS>ATOM
      1 C           1.8830   -0.9290    0.0000 C.ar    1  LIG1        0.1165
      2 C           0.9460   -0.5670    0.0000 C.ar    1  LIG1        0.1562
      3 N           1.0040    0.4210    0.0000 N.ar    1  LIG1       -0.2655
      4 C           1.9710    0.6790    0.0000 C.ar    1  LIG1        0.2203
      5 N           2.5040   -0.1580    0.0000 N.ar    1  LIG1       -0.2196
      6 C           2.2290    1.6420    0.0000 C.ar    1  LIG1        0.3282
      7 N           1.5290    2.3500    0.0000 N.ar    1  LIG1       -0.1474
      8 C           0.5540    2.0790    0.0000 C.ar    1  LIG1        0.3099
      9 C           0.2960    1.1330    0.0000 C.ar    1  LIG1        0.1591
     10 C           1.7920    3.3210    0.0000 C.3     1  LIG1        0.4115
     11 C           2.7630    3.5750    0.0000 C.2     1  LIG1        0.3403
     12 O           3.0170    4.5170    0.0000 O.2     1  LIG1       -0.2640
     13 N           3.4710    2.8670    0.0000 N.am    1  LIG1       -0.0817
     14 N           0.1000   -1.1130    0.0000 N.pl3   1  LIG1       -0.1939
     15 C          -0.7920   -0.6580    0.0000 C.ar    1  LIG1        0.0721
     16 C          -0.8460    0.3420    0.0000 C.ar    1  LIG1        0.0162
     17 C          -1.7290    0.7920    0.0000 C.ar    1  LIG1       -0.0029
     18 C          -2.5790    0.2540    0.0000 C.ar    1  LIG1       -0.0218
     19 C          -2.5170   -0.7500    0.0000 C.ar    1  LIG1       -0.0029
     20 C          -1.6250   -1.2040    0.0000 C.ar    1  LIG1        0.0162
     21 C          -3.4750    0.7170    0.0000 C.3     1  LIG1        0.0310
     22 C           2.2420   -1.8580    0.0000 C.ar    1  LIG1        0.0410
     23 C           3.1960   -2.1710    0.0000 C.ar    1  LIG1        0.1004
     24 N           3.1960   -3.1630    0.0000 N.ar    1  LIG1       -0.2438
     25 C           2.2460   -3.4880    0.0000 C.ar    1  LIG1        0.0814
     26 C           1.6580   -2.6710    0.0000 C.ar    1  LIG1        0.0207
     27 C           0.6580   -2.7880    0.0000 C.ar    1  LIG1        0.0016
     28 C           0.2500   -3.7080    0.0000 C.ar    1  LIG1        0.0001
     29 C           0.8540   -4.5170    0.0000 C.ar    1  LIG1        0.0015
     30 C           1.8540   -4.4040    0.0000 C.ar    1  LIG1        0.0191
@<TRIPOS>BOND
     1     1     2   ar
     2     1     5   ar
     3     1    22    1
     4     2     3   ar
     5     2    14    1
     6     3     4   ar
     7     3     9   ar
     8     4     5   ar
     9     4     6   ar
    10     6     7   ar
    11     7     8   ar
    12     7    10    1
    13     8     9   ar
    14    10    11    1
    15    11    12    2
    16    11    13   am
    17    14    15    1
    18    15    16   ar
    19    15    20   ar
    20    16    17   ar
    21    17    18   ar
    22    18    19   ar
    23    18    21    1
    24    19    20   ar
    25    22    23   ar
    26    22    26   ar
    27    23    24   ar
    28    24    25   ar
    29    25    26   ar
    30    25    30   ar
    31    26    27   ar
    32    27    28   ar
    33    28    29   ar
    34    29    30   ar
