@<TRIPOS>MOLECULE
36183_ChemDiv_C169-0283
 25 29 0 0 0
SMALL
GASTEIGER
Energy = 0

@<TRIPOS>ATOM
      1 C           0.6500   -0.2920    0.0000 C.ar    1  LIG1        0.1164
      2 C          -0.3330   -0.1960    0.0000 C.ar    1  LIG1        0.1560
      3 N          -0.5460    0.7790    0.0000 N.ar    1  LIG1       -0.2732
      4 C           0.3170    1.2790    0.0000 C.ar    1  LIG1        0.1681
      5 N           1.0580    0.6040    0.0000 N.ar    1  LIG1       -0.2234
      6 C           0.3170    2.2830    0.0000 C.ar    1  LIG1        0.1362
      7 N          -0.5460    2.7920    0.0000 N.ar    1  LIG1       -0.2376
      8 C          -1.4130    2.2830    0.0000 C.ar    1  LIG1        0.1180
      9 C          -1.4130    1.2790    0.0000 C.ar    1  LIG1        0.1033
     10 N          -0.9960   -0.9420    0.0000 N.pl3   1  LIG1       -0.1939
     11 C          -1.9960   -0.9380    0.0000 C.ar    1  LIG1        0.0721
     12 C          -2.4830   -0.0670    0.0000 C.ar    1  LIG1        0.0166
     13 C          -3.4830   -0.0630    0.0000 C.ar    1  LIG1        0.0013
     14 C          -3.9920   -0.9250    0.0000 C.ar    1  LIG1        0.0001
     15 C          -3.4920   -1.7920    0.0000 C.ar    1  LIG1        0.0013
     16 C          -2.4960   -1.7920    0.0000 C.ar    1  LIG1        0.0166
     17 C           1.1170   -1.1830    0.0000 C.ar    1  LIG1        0.0410
     18 C           0.6670   -2.0790    0.0000 C.ar    1  LIG1        0.1004
     19 N           1.3880   -2.7880    0.0000 N.ar    1  LIG1       -0.2438
     20 C           2.2790   -2.3210    0.0000 C.ar    1  LIG1        0.0814
     21 C           2.1130   -1.3330    0.0000 C.ar    1  LIG1        0.0207
     22 C           2.8750   -0.6960    0.0000 C.ar    1  LIG1        0.0016
     23 C           3.8130   -1.0460    0.0000 C.ar    1  LIG1        0.0001
     24 C           3.9880   -2.0330    0.0000 C.ar    1  LIG1        0.0015
     25 C           3.2080   -2.6670    0.0000 C.ar    1  LIG1        0.0191
@<TRIPOS>BOND
     1     1     2   ar
     2     1     5   ar
     3     1    17    1
     4     2     3   ar
     5     2    10    1
     6     3     4   ar
     7     3     9   ar
     8     4     5   ar
     9     4     6   ar
    10     6     7   ar
    11     7     8   ar
    12     8     9   ar
    13    10    11    1
    14    11    12   ar
    15    11    16   ar
    16    12    13   ar
    17    13    14   ar
    18    14    15   ar
    19    15    16   ar
    20    17    18   ar
    21    17    21   ar
    22    18    19   ar
    23    19    20   ar
    24    20    21   ar
    25    20    25   ar
    26    21    22   ar
    27    22    23   ar
    28    23    24   ar
    29    24    25   ar
