@<TRIPOS>MOLECULE
36184_ChemDiv_E793-3712
 34 37 0 0 0
SMALL
GASTEIGER
Energy = 0

@<TRIPOS>ATOM
      1 N           0.8670    1.2540    0.0000 N.ar    1  LIG1       -0.2753
      2 C           0.8670    0.2540    0.0000 C.ar    1  LIG1        0.1739
      3 N           0.0040   -0.2420    0.0000 N.ar    1  LIG1       -0.2218
      4 C          -0.8710    0.2540    0.0000 C.ar    1  LIG1        0.0945
      5 C          -0.8710    1.2540    0.0000 C.ar    1  LIG1        0.1033
      6 C           0.0040    1.7540    0.0000 C.ar    1  LIG1        0.2697
      7 O           0.0040    2.7540    0.0000 O.2     1  LIG1       -0.2663
      8 S          -1.8210    1.5670    0.0000 S.2     1  LIG1       -0.0802
      9 C          -2.4080    0.7540    0.0000 C.ar    1  LIG1        0.0372
     10 C          -1.8210   -0.0540    0.0000 C.ar    1  LIG1        0.0268
     11 S           1.7330   -0.2420    0.0000 S.3     1  LIG1       -0.0674
     12 C           1.7330   -1.2500    0.0000 C.3     1  LIG1        0.1515
     13 C           0.8670   -1.7420    0.0000 C.2     1  LIG1        0.2528
     14 O           0.8670   -2.7500    0.0000 O.2     1  LIG1       -0.2724
     15 N           0.0040   -1.2500    0.0000 N.am    1  LIG1       -0.2047
     16 C          -0.8710   -1.7420    0.0000 C.3     1  LIG1        0.1155
     17 C          -0.8710   -2.7500    0.0000 C.3     1  LIG1        0.0281
     18 C          -1.7330   -3.2420    0.0000 C.3     1  LIG1        0.0282
     19 C          -1.7330   -4.2500    0.0000 C.ar    1  LIG1       -0.0221
     20 C          -0.8710   -4.7420    0.0000 C.ar    1  LIG1       -0.0043
     21 C          -0.8710   -5.7500    0.0000 C.ar    1  LIG1       -0.0003
     22 C          -1.7330   -6.2420    0.0000 C.ar    1  LIG1       -0.0000
     23 C          -2.6000   -5.7500    0.0000 C.ar    1  LIG1       -0.0003
     24 C          -2.6000   -4.7420    0.0000 C.ar    1  LIG1       -0.0043
     25 C           1.7330    1.7540    0.0000 C.3     1  LIG1        0.1109
     26 C           1.7330    2.7540    0.0000 C.3     1  LIG1        0.0228
     27 C           2.5960    3.2540    0.0000 C.3     1  LIG1        0.0023
     28 C           2.5960    4.2500    0.0000 C.3     1  LIG1        0.0056
     29 C           1.7330    4.7420    0.0000 C.3     1  LIG1        0.0365
     30 C           1.7330    5.7500    0.0000 C.2     1  LIG1        0.0500
     31 O           2.5960    6.2420    0.0000 O.co2   1  LIG1       -0.5492
     32 O           0.8670    6.2420    0.0000 O.co2   1  LIG1       -0.5492
     33 C           0.8670    4.2500    0.0000 C.3     1  LIG1        0.0056
     34 C           0.8670    3.2540    0.0000 C.3     1  LIG1        0.0023
@<TRIPOS>BOND
     1     1     2   ar
     2     1     6   ar
     3     1    25    1
     4     2     3   ar
     5     2    11    1
     6     3     4   ar
     7     4     5   ar
     8     4    10   ar
     9     5     6   ar
    10     5     8   ar
    11     6     7    2
    12     8     9   ar
    13     9    10   ar
    14    11    12    1
    15    12    13    1
    16    13    14    2
    17    13    15   am
    18    15    16    1
    19    16    17    1
    20    17    18    1
    21    18    19    1
    22    19    20   ar
    23    19    24   ar
    24    20    21   ar
    25    21    22   ar
    26    22    23   ar
    27    23    24   ar
    28    25    26    1
    29    26    27    1
    30    26    34    1
    31    27    28    1
    32    28    29    1
    33    29    30    1
    34    29    33    1
    35    30    31   ar
    36    30    32   ar
    37    33    34    1
