@<TRIPOS>MOLECULE
36180_ChemDiv_C604-0075
 34 36 0 0 0
SMALL
GASTEIGER
Energy = 0

@<TRIPOS>ATOM
      1 C          -3.2830   -0.4880    0.0000 C.ar    1  LIG1        0.1033
      2 C          -3.2920   -1.4880    0.0000 C.ar    1  LIG1        0.0944
      3 N          -2.4210   -1.9880    0.0000 N.ar    1  LIG1       -0.2218
      4 C          -1.5540   -1.4880    0.0000 C.ar    1  LIG1        0.1739
      5 N          -1.5540   -0.4880    0.0000 N.ar    1  LIG1       -0.2752
      6 C          -2.4210    0.0080    0.0000 C.ar    1  LIG1        0.2697
      7 O          -2.4210    1.0130    0.0000 O.2     1  LIG1       -0.2663
      8 C          -0.6880    0.0080    0.0000 C.3     1  LIG1        0.1115
      9 C          -0.6790    1.0040    0.0000 C.3     1  LIG1        0.0343
     10 C           0.1790    1.5080    0.0000 C.3     1  LIG1        0.0888
     11 C           0.1880    2.5080    0.0000 C.2     1  LIG1        0.2415
     12 O          -0.6790    3.0040    0.0000 O.2     1  LIG1       -0.2733
     13 N           1.0460    3.0040    0.0000 N.am    1  LIG1       -0.2027
     14 C           1.9130    2.4960    0.0000 C.3     1  LIG1        0.1471
     15 C           2.7710    2.9960    0.0000 C.3     1  LIG1        0.1656
     16 O           3.6460    2.4920    0.0000 O.3     1  LIG1       -0.3492
     17 C           4.5080    2.9880    0.0000 C.3     1  LIG1        0.1742
     18 S          -0.6880   -1.9960    0.0000 S.3     1  LIG1       -0.0674
     19 C           0.1790   -1.5000    0.0000 C.3     1  LIG1        0.1515
     20 C           1.0460   -2.0040    0.0000 C.2     1  LIG1        0.2528
     21 O           1.0380   -3.0000    0.0000 O.2     1  LIG1       -0.2724
     22 N           1.9130   -1.5080    0.0000 N.am    1  LIG1       -0.2046
     23 C           2.7710   -2.0170    0.0000 C.3     1  LIG1        0.1178
     24 C           3.6380   -1.5290    0.0000 C.3     1  LIG1        0.0555
     25 C           4.4920   -2.0330    0.0000 C.3     1  LIG1        0.1441
     26 O           5.3580   -1.5460    0.0000 O.3     1  LIG1       -0.3510
     27 C           6.2250   -2.0460    0.0000 C.3     1  LIG1        0.1741
     28 C          -4.2290   -1.8040    0.0000 C.ar    1  LIG1        0.0244
     29 C          -4.8170   -1.0000    0.0000 C.ar    1  LIG1        0.0311
     30 S          -4.2330   -0.1750    0.0000 S.2     1  LIG1       -0.0807
     31 C          -5.8210   -1.1000    0.0000 C.ar    1  LIG1        0.0065
     32 C          -6.2250   -2.0290    0.0000 C.ar    1  LIG1        0.0005
     33 C          -5.6330   -2.8330    0.0000 C.ar    1  LIG1        0.0001
     34 C          -4.6290   -2.7250    0.0000 C.ar    1  LIG1        0.0020
@<TRIPOS>BOND
     1     1     2   ar
     2     1     6   ar
     3     1    30   ar
     4     2     3   ar
     5     2    28   ar
     6     3     4   ar
     7     4     5   ar
     8     4    18    1
     9     5     6   ar
    10     5     8    1
    11     6     7    2
    12     8     9    1
    13     9    10    1
    14    10    11    1
    15    11    12    2
    16    11    13   am
    17    13    14    1
    18    14    15    1
    19    15    16    1
    20    16    17    1
    21    18    19    1
    22    19    20    1
    23    20    21    2
    24    20    22   am
    25    22    23    1
    26    23    24    1
    27    24    25    1
    28    25    26    1
    29    26    27    1
    30    28    29   ar
    31    28    34   ar
    32    29    30   ar
    33    29    31   ar
    34    31    32   ar
    35    32    33   ar
    36    33    34   ar
