@<TRIPOS>MOLECULE
36185_ChemDiv_C169-0313
 26 30 0 0 0
SMALL
GASTEIGER
Energy = 0

@<TRIPOS>ATOM
      1 C           0.3420    0.4580    0.0000 C.ar    1  LIG1        0.1164
      2 C          -0.5880    0.8210    0.0000 C.ar    1  LIG1        0.1560
      3 N          -0.5380    1.8080    0.0000 N.ar    1  LIG1       -0.2732
      4 C           0.4170    2.0670    0.0000 C.ar    1  LIG1        0.1681
      5 N           0.9710    1.2420    0.0000 N.ar    1  LIG1       -0.2234
      6 C           0.6830    3.0290    0.0000 C.ar    1  LIG1        0.1362
      7 N          -0.0210    3.7420    0.0000 N.ar    1  LIG1       -0.2376
      8 C          -0.9920    3.4710    0.0000 C.ar    1  LIG1        0.1180
      9 C          -1.2500    2.5210    0.0000 C.ar    1  LIG1        0.1033
     10 N          -1.4380    0.2750    0.0000 N.pl3   1  LIG1       -0.1939
     11 C          -1.3920   -0.7330    0.0000 C.ar    1  LIG1        0.0722
     12 C          -0.5080   -1.2040    0.0000 C.ar    1  LIG1        0.0174
     13 C          -0.4670   -2.2040    0.0000 C.ar    1  LIG1        0.0127
     14 C          -1.3250   -2.7380    0.0000 C.ar    1  LIG1        0.0578
     15 CL         -1.3080   -3.7380    0.0000 Cl      1  LIG1       -0.0822
     16 C          -2.2040   -2.2710    0.0000 C.ar    1  LIG1        0.0127
     17 C          -2.2330   -1.2670    0.0000 C.ar    1  LIG1        0.0174
     18 C           0.7500   -0.4540    0.0000 C.ar    1  LIG1        0.0410
     19 C           1.7290   -0.2540    0.0000 C.ar    1  LIG1        0.1004
     20 N           2.2290   -1.1130    0.0000 N.ar    1  LIG1       -0.2438
     21 C           1.5540   -1.8630    0.0000 C.ar    1  LIG1        0.0814
     22 C           0.6460   -1.4500    0.0000 C.ar    1  LIG1        0.0207
     23 C          -0.1630   -2.0420    0.0000 C.ar    1  LIG1        0.0016
     24 C          -0.0580   -3.0420    0.0000 C.ar    1  LIG1        0.0001
     25 C           0.8500   -3.4460    0.0000 C.ar    1  LIG1        0.0015
     26 C           1.6580   -2.8540    0.0000 C.ar    1  LIG1        0.0191
@<TRIPOS>BOND
     1     1     2   ar
     2     1     5   ar
     3     1    18    1
     4     2     3   ar
     5     2    10    1
     6     3     4   ar
     7     3     9   ar
     8     4     5   ar
     9     4     6   ar
    10     6     7   ar
    11     7     8   ar
    12     8     9   ar
    13    10    11    1
    14    11    12   ar
    15    11    17   ar
    16    12    13   ar
    17    13    14   ar
    18    14    15    1
    19    14    16   ar
    20    16    17   ar
    21    18    19   ar
    22    18    22   ar
    23    19    20   ar
    24    20    21   ar
    25    21    22   ar
    26    21    26   ar
    27    22    23   ar
    28    23    24   ar
    29    24    25   ar
    30    25    26   ar
