@<TRIPOS>MOLECULE
36198_ChemDiv_C444-1823
 22 23 0 0 0
SMALL
GASTEIGER
Energy = 0

@<TRIPOS>ATOM
      1 S          -1.7500    0.8750    0.0000 S.O2    1  LIG1        0.0633
      2 C          -0.7420    0.8750    0.0000 C.ar    1  LIG1        0.1220
      3 C          -0.2380    0.0080    0.0000 C.ar    1  LIG1        0.0169
      4 C           0.7460    0.0080    0.0000 C.ar    1  LIG1       -0.0071
      5 C           1.2500    0.8750    0.0000 C.ar    1  LIG1        0.0499
      6 N           2.2460    0.8750    0.0000 N.am    1  LIG1       -0.2589
      7 C           2.7420    1.7420    0.0000 C.2     1  LIG1        0.2298
      8 O           3.7460    1.7420    0.0000 O.2     1  LIG1       -0.2745
      9 C           2.2460    2.6000    0.0000 C.3     1  LIG1        0.0952
     10 C           2.7500    0.0080    0.0000 C.3     1  LIG1        0.0985
     11 C           2.2460   -0.8580    0.0000 C.3     1  LIG1        0.0266
     12 C           1.2500   -0.8500    0.0000 C.3     1  LIG1        0.0294
     13 C           0.7580    1.7420    0.0000 C.ar    1  LIG1        0.0160
     14 C          -0.2500    1.7420    0.0000 C.ar    1  LIG1        0.0212
     15 N          -2.7460    0.8750    0.0000 N.3     1  LIG1       -0.1529
     16 C          -3.2460    0.0080    0.0000 C.3     1  LIG1        0.1120
     17 C          -2.7460   -0.8580    0.0000 C.3     1  LIG1        0.1245
     18 C          -3.2460   -1.7290    0.0000 C.1     1  LIG1        0.0747
     19 N          -3.7500   -2.5960    0.0000 N.1     1  LIG1       -0.1958
     20 C          -3.2460    1.7420    0.0000 C.3     1  LIG1        0.1149
     21 O          -1.7380    1.8830    0.0000 O.2     1  LIG1       -0.1528
     22 O          -1.7500   -0.1210    0.0000 O.2     1  LIG1       -0.1528
@<TRIPOS>BOND
     1     1     2    1
     2     1    15    1
     3     1    21    2
     4     1    22    2
     5     2     3   ar
     6     2    14   ar
     7     3     4   ar
     8     4     5   ar
     9     4    12    1
    10     5     6    1
    11     5    13   ar
    12     6     7   am
    13     6    10    1
    14     7     8    2
    15     7     9    1
    16    10    11    1
    17    11    12    1
    18    13    14   ar
    19    15    16    1
    20    15    20    1
    21    16    17    1
    22    17    18    1
    23    18    19    3
