@<TRIPOS>MOLECULE
36197_ChemDiv_C250-0306
 18 20 0 0 0
SMALL
GASTEIGER
Energy = 0

@<TRIPOS>ATOM
      1 C           0.1880   -0.2460    0.0000 C.2     1  LIG1        0.1334
      2 C           0.1880   -1.2630    0.0000 C.2     1  LIG1        0.2837
      3 N           1.1460   -1.5380    0.0000 N.am    1  LIG1       -0.1814
      4 C           1.7170   -0.7380    0.0000 C.3     1  LIG1        0.1620
      5 N           1.1670    0.1000    0.0000 N.2     1  LIG1       -0.2494
      6 C           2.3750   -0.0040    0.0000 C.3     1  LIG1        0.0431
      7 C           3.2790   -0.4130    0.0000 C.3     1  LIG1        0.0038
      8 C           3.1750   -1.3880    0.0000 C.3     1  LIG1        0.0038
      9 C           2.2040   -1.5960    0.0000 C.3     1  LIG1        0.0431
     10 O          -0.6830   -1.7630    0.0000 O.2     1  LIG1       -0.2667
     11 C          -0.6830    0.2500    0.0000 C.ar    1  LIG1        0.0325
     12 C          -0.6830    1.2630    0.0000 C.ar    1  LIG1        0.0601
     13 C          -1.5540    1.7670    0.0000 C.ar    1  LIG1        0.0228
     14 C          -2.4250    1.2630    0.0000 C.ar    1  LIG1        0.0585
     15 C          -2.4250    0.2500    0.0000 C.ar    1  LIG1        0.0115
     16 C          -1.5540   -0.2460    0.0000 C.ar    1  LIG1        0.0033
     17 CL         -3.2830    1.7540    0.0000 Cl      1  LIG1       -0.0822
     18 CL          0.1750    1.7580    0.0000 Cl      1  LIG1       -0.0822
@<TRIPOS>BOND
     1     1     2    1
     2     1     5    2
     3     1    11    1
     4     2     3   am
     5     2    10    2
     6     3     4    1
     7     4     5    1
     8     4     6    1
     9     4     9    1
    10     6     7    1
    11     7     8    1
    12     8     9    1
    13    11    12   ar
    14    11    16   ar
    15    12    13   ar
    16    12    18    1
    17    13    14   ar
    18    14    15   ar
    19    14    17    1
    20    15    16   ar
