@<TRIPOS>MOLECULE
36191_ChemDiv_C169-0350
 31 35 0 0 0
SMALL
GASTEIGER
Energy = 0

@<TRIPOS>ATOM
      1 C           2.2920   -0.9290    0.0000 C.ar    1  LIG1        0.1165
      2 C           1.2960   -0.8210    0.0000 C.ar    1  LIG1        0.1562
      3 N           1.0830    0.1540    0.0000 N.ar    1  LIG1       -0.2655
      4 C           1.9460    0.6500    0.0000 C.ar    1  LIG1        0.2203
      5 N           2.6960   -0.0130    0.0000 N.ar    1  LIG1       -0.2196
      6 C           1.9460    1.6580    0.0000 C.ar    1  LIG1        0.3282
      7 N           1.0830    2.1630    0.0000 N.ar    1  LIG1       -0.1474
      8 C           0.2210    1.6500    0.0000 C.ar    1  LIG1        0.3099
      9 C           0.2210    0.6500    0.0000 C.ar    1  LIG1        0.1591
     10 C           1.0790    3.1540    0.0000 C.3     1  LIG1        0.4115
     11 C           1.9380    3.6630    0.0000 C.2     1  LIG1        0.3403
     12 O           1.9290    4.6540    0.0000 O.2     1  LIG1       -0.2640
     13 N           2.9330    3.6630    0.0000 N.am    1  LIG1       -0.0817
     14 N           0.6330   -1.5750    0.0000 N.pl3   1  LIG1       -0.1939
     15 C          -0.3380   -1.3790    0.0000 C.ar    1  LIG1        0.0723
     16 C          -0.6540   -0.4330    0.0000 C.ar    1  LIG1        0.0197
     17 C          -1.6420   -0.2380    0.0000 C.ar    1  LIG1        0.0382
     18 C          -2.2960   -0.9880    0.0000 C.ar    1  LIG1        0.1388
     19 C          -1.9750   -1.9380    0.0000 C.ar    1  LIG1        0.0382
     20 C          -0.9960   -2.1210    0.0000 C.ar    1  LIG1        0.0197
     21 O          -3.2710   -0.7830    0.0000 O.3     1  LIG1       -0.4714
     22 C          -3.9210   -1.5330    0.0000 C.3     1  LIG1        0.2525
     23 C           2.7540   -1.8210    0.0000 C.ar    1  LIG1        0.0410
     24 C           3.7500   -1.9580    0.0000 C.ar    1  LIG1        0.1004
     25 N           3.9170   -2.9500    0.0000 N.ar    1  LIG1       -0.2438
     26 C           3.0250   -3.4170    0.0000 C.ar    1  LIG1        0.0814
     27 C           2.3040   -2.7080    0.0000 C.ar    1  LIG1        0.0207
     28 C           1.3420   -2.9750    0.0000 C.ar    1  LIG1        0.0016
     29 C           1.0830   -3.9460    0.0000 C.ar    1  LIG1        0.0001
     30 C           1.8080   -4.6540    0.0000 C.ar    1  LIG1        0.0015
     31 C           2.7710   -4.3830    0.0000 C.ar    1  LIG1        0.0191
@<TRIPOS>BOND
     1     1     2   ar
     2     1     5   ar
     3     1    23    1
     4     2     3   ar
     5     2    14    1
     6     3     4   ar
     7     3     9   ar
     8     4     5   ar
     9     4     6   ar
    10     6     7   ar
    11     7     8   ar
    12     7    10    1
    13     8     9   ar
    14    10    11    1
    15    11    12    2
    16    11    13   am
    17    14    15    1
    18    15    16   ar
    19    15    20   ar
    20    16    17   ar
    21    17    18   ar
    22    18    19   ar
    23    18    21    1
    24    19    20   ar
    25    21    22    1
    26    23    24   ar
    27    23    27   ar
    28    24    25   ar
    29    25    26   ar
    30    26    27   ar
    31    26    31   ar
    32    27    28   ar
    33    28    29   ar
    34    29    30   ar
    35    30    31   ar
