@<TRIPOS>MOLECULE
36196_ChemDiv_C444-1806
 23 24 0 0 0
SMALL
GASTEIGER
Energy = 0

@<TRIPOS>ATOM
      1 S          -1.2500    0.4290    0.0000 S.O2    1  LIG1        0.0633
      2 C          -0.2420    0.4290    0.0000 C.ar    1  LIG1        0.1220
      3 C           0.2630   -0.4380    0.0000 C.ar    1  LIG1        0.0169
      4 C           1.2460   -0.4380    0.0000 C.ar    1  LIG1       -0.0071
      5 C           1.7500    0.4290    0.0000 C.ar    1  LIG1        0.0499
      6 N           2.7460    0.4290    0.0000 N.am    1  LIG1       -0.2589
      7 C           3.2420    1.3000    0.0000 C.2     1  LIG1        0.2298
      8 O           4.2500    1.3000    0.0000 O.2     1  LIG1       -0.2745
      9 C           2.7460    2.1580    0.0000 C.3     1  LIG1        0.0952
     10 C           3.2500   -0.4380    0.0000 C.3     1  LIG1        0.0985
     11 C           2.7460   -1.3040    0.0000 C.3     1  LIG1        0.0266
     12 C           1.7500   -1.2960    0.0000 C.3     1  LIG1        0.0294
     13 C           1.2580    1.3000    0.0000 C.ar    1  LIG1        0.0160
     14 C           0.2500    1.3000    0.0000 C.ar    1  LIG1        0.0212
     15 N          -2.2460    0.4290    0.0000 N.3     1  LIG1       -0.1555
     16 C          -2.7500   -0.4380    0.0000 C.3     1  LIG1        0.0958
     17 C          -2.2580   -1.3040    0.0000 C.3     1  LIG1        0.0191
     18 C          -2.7630   -2.1750    0.0000 C.3     1  LIG1        0.0015
     19 C          -2.7500    1.3000    0.0000 C.3     1  LIG1        0.0958
     20 C          -3.7500    1.3210    0.0000 C.3     1  LIG1        0.0191
     21 C          -4.2540    2.1790    0.0000 C.3     1  LIG1        0.0015
     22 O          -1.2500   -0.5670    0.0000 O.2     1  LIG1       -0.1528
     23 O          -1.2420    1.4380    0.0000 O.2     1  LIG1       -0.1528
@<TRIPOS>BOND
     1     1     2    1
     2     1    15    1
     3     1    22    2
     4     1    23    2
     5     2     3   ar
     6     2    14   ar
     7     3     4   ar
     8     4     5   ar
     9     4    12    1
    10     5     6    1
    11     5    13   ar
    12     6     7   am
    13     6    10    1
    14     7     8    2
    15     7     9    1
    16    10    11    1
    17    11    12    1
    18    13    14   ar
    19    15    16    1
    20    15    19    1
    21    16    17    1
    22    17    18    1
    23    19    20    1
    24    20    21    1
