@<TRIPOS>MOLECULE
36199_ChemDiv_C250-0309
 20 22 0 0 0
SMALL
GASTEIGER
Energy = 0

@<TRIPOS>ATOM
      1 C          -0.0460   -0.2330    0.0000 C.2     1  LIG1        0.1334
      2 C          -0.0460   -1.2670    0.0000 C.2     1  LIG1        0.2837
      3 N           0.9210   -1.5460    0.0000 N.am    1  LIG1       -0.1814
      4 C           1.4920   -0.7330    0.0000 C.3     1  LIG1        0.1620
      5 N           0.9420    0.1170    0.0000 N.2     1  LIG1       -0.2494
      6 C           1.7380    0.1000    0.0000 C.3     1  LIG1        0.0431
      7 C           2.6670    0.4210    0.0000 C.3     1  LIG1        0.0037
      8 C           3.5170   -0.1750    0.0000 C.3     1  LIG1        0.0001
      9 C           3.5670   -1.1920    0.0000 C.3     1  LIG1        0.0001
     10 C           2.8040   -1.8040    0.0000 C.3     1  LIG1        0.0037
     11 C           1.9960   -1.5920    0.0000 C.3     1  LIG1        0.0431
     12 O          -0.9330   -1.7750    0.0000 O.2     1  LIG1       -0.2667
     13 C          -0.9330    0.2710    0.0000 C.ar    1  LIG1        0.0325
     14 C          -0.9330    1.2960    0.0000 C.ar    1  LIG1        0.0601
     15 C          -1.8170    1.8080    0.0000 C.ar    1  LIG1        0.0228
     16 C          -2.7000    1.2960    0.0000 C.ar    1  LIG1        0.0585
     17 C          -2.7000    0.2710    0.0000 C.ar    1  LIG1        0.0115
     18 C          -1.8170   -0.2330    0.0000 C.ar    1  LIG1        0.0033
     19 CL         -3.5710    1.7960    0.0000 Cl      1  LIG1       -0.0822
     20 CL         -0.0630    1.8000    0.0000 Cl      1  LIG1       -0.0822
@<TRIPOS>BOND
     1     1     2    1
     2     1     5    2
     3     1    13    1
     4     2     3   am
     5     2    12    2
     6     3     4    1
     7     4     5    1
     8     4     6    1
     9     4    11    1
    10     6     7    1
    11     7     8    1
    12     8     9    1
    13     9    10    1
    14    10    11    1
    15    13    14   ar
    16    13    18   ar
    17    14    15   ar
    18    14    20    1
    19    15    16   ar
    20    16    17   ar
    21    16    19    1
    22    17    18   ar
