@<TRIPOS>MOLECULE
36193_ChemDiv_C250-0301
 20 22 0 0 0
SMALL
GASTEIGER
Energy = 0

@<TRIPOS>ATOM
      1 C           0.2000   -0.9880    0.0000 C.2     1  LIG1        0.1328
      2 C           0.2080   -2.0080    0.0000 C.2     1  LIG1        0.2837
      3 N           1.1630   -2.2880    0.0000 N.am    1  LIG1       -0.1814
      4 C           1.7330   -1.4830    0.0000 C.3     1  LIG1        0.1620
      5 N           1.1750   -0.6540    0.0000 N.2     1  LIG1       -0.2494
      6 C           2.3170   -0.6880    0.0000 C.3     1  LIG1        0.0431
      7 C           3.2630   -1.0040    0.0000 C.3     1  LIG1        0.0038
      8 C           3.2500   -1.9960    0.0000 C.3     1  LIG1        0.0038
      9 C           2.3040   -2.2880    0.0000 C.3     1  LIG1        0.0431
     10 O          -0.6630   -2.5040    0.0000 O.2     1  LIG1       -0.2667
     11 C          -0.6710   -0.4920    0.0000 C.ar    1  LIG1        0.0279
     12 C          -1.5420   -1.0000    0.0000 C.ar    1  LIG1        0.0387
     13 C          -2.4130   -0.4920    0.0000 C.ar    1  LIG1        0.1418
     14 C          -2.4130    0.5130    0.0000 C.ar    1  LIG1        0.0737
     15 C          -1.5420    1.0210    0.0000 C.ar    1  LIG1        0.1418
     16 C          -0.6710    0.5130    0.0000 C.ar    1  LIG1        0.0387
     17 O          -1.5420    2.0130    0.0000 O.3     1  LIG1       -0.4713
     18 C          -2.4040    2.5080    0.0000 C.3     1  LIG1        0.2525
     19 O          -3.2670   -0.9880    0.0000 O.3     1  LIG1       -0.4713
     20 C          -3.2670   -1.9790    0.0000 C.3     1  LIG1        0.2525
@<TRIPOS>BOND
     1     1     2    1
     2     1     5    2
     3     1    11    1
     4     2     3   am
     5     2    10    2
     6     3     4    1
     7     4     5    1
     8     4     6    1
     9     4     9    1
    10     6     7    1
    11     7     8    1
    12     8     9    1
    13    11    12   ar
    14    11    16   ar
    15    12    13   ar
    16    13    14   ar
    17    13    19    1
    18    14    15   ar
    19    15    16   ar
    20    15    17    1
    21    17    18    1
    22    19    20    1
