@<TRIPOS>MOLECULE
36195_ChemDiv_C250-0305
 16 17 0 0 0
SMALL
GASTEIGER
Energy = 0

@<TRIPOS>ATOM
      1 C           0.6380   -0.2460    0.0000 C.2     1  LIG1        0.1334
      2 C           0.6380   -1.2580    0.0000 C.2     1  LIG1        0.2837
      3 N           1.5920   -1.5380    0.0000 N.am    1  LIG1       -0.1814
      4 C           2.1630   -0.7330    0.0000 C.3     1  LIG1        0.1623
      5 N           1.6130    0.1000    0.0000 N.2     1  LIG1       -0.2494
      6 C           2.8210   -0.0040    0.0000 C.3     1  LIG1        0.0468
      7 C           2.6500   -1.5920    0.0000 C.3     1  LIG1        0.0468
      8 O          -0.2330   -1.7580    0.0000 O.2     1  LIG1       -0.2667
      9 C          -0.2330    0.2500    0.0000 C.ar    1  LIG1        0.0325
     10 C          -0.2330    1.2580    0.0000 C.ar    1  LIG1        0.0601
     11 C          -1.1000    1.7630    0.0000 C.ar    1  LIG1        0.0228
     12 C          -1.9710    1.2580    0.0000 C.ar    1  LIG1        0.0585
     13 C          -1.9710    0.2500    0.0000 C.ar    1  LIG1        0.0115
     14 C          -1.1000   -0.2460    0.0000 C.ar    1  LIG1        0.0033
     15 CL         -2.8250    1.7500    0.0000 Cl      1  LIG1       -0.0822
     16 CL          0.6250    1.7540    0.0000 Cl      1  LIG1       -0.0822
@<TRIPOS>BOND
     1     1     2    1
     2     1     5    2
     3     1     9    1
     4     2     3   am
     5     2     8    2
     6     3     4    1
     7     4     5    1
     8     4     6    1
     9     4     7    1
    10     9    10   ar
    11     9    14   ar
    12    10    11   ar
    13    10    16    1
    14    11    12   ar
    15    12    13   ar
    16    12    15    1
    17    13    14   ar
