@<TRIPOS>MOLECULE
36194_ChemDiv_C224-0530
 30 34 0 0 0
SMALL
GASTEIGER
Energy = 0

@<TRIPOS>ATOM
      1 S           1.1420   -0.1580    0.0000 S.O2    1  LIG1        0.0637
      2 N           0.2750   -0.6580    0.0000 N.3     1  LIG1       -0.1433
      3 C          -0.5920   -0.1580    0.0000 C.3     1  LIG1        0.1585
      4 C          -1.4580   -0.6580    0.0000 C.3     1  LIG1        0.1586
      5 N          -1.4580   -1.6630    0.0000 N.4     1  LIG1        0.3830
      6 C          -2.3170   -2.1630    0.0000 C.3     1  LIG1        0.1664
      7 C          -3.1960   -1.6500    0.0000 C.ar    1  LIG1        0.0376
      8 C          -4.0670   -2.1500    0.0000 C.ar    1  LIG1        0.0416
      9 C          -4.9330   -1.6500    0.0000 C.ar    1  LIG1        0.1763
     10 C          -4.9330   -0.6540    0.0000 C.ar    1  LIG1        0.1764
     11 O          -5.8830   -0.3420    0.0000 O.3     1  LIG1       -0.4346
     12 C          -6.4580   -1.1420    0.0000 C.3     1  LIG1        0.4294
     13 O          -5.8880   -1.9500    0.0000 O.3     1  LIG1       -0.4346
     14 C          -4.0580   -0.1540    0.0000 C.ar    1  LIG1        0.0401
     15 C          -3.1960   -0.6540    0.0000 C.ar    1  LIG1        0.0048
     16 C          -0.5920   -2.1630    0.0000 C.3     1  LIG1        0.1586
     17 C           0.2750   -1.6670    0.0000 C.3     1  LIG1        0.1585
     18 C           2.2670    0.5670    0.0000 C.ar    1  LIG1        0.1220
     19 C           3.1250    0.1000    0.0000 C.ar    1  LIG1        0.0169
     20 C           3.9580    0.6080    0.0000 C.ar    1  LIG1       -0.0050
     21 C           3.9290    1.5880    0.0000 C.ar    1  LIG1        0.0695
     22 N           4.7630    2.1040    0.0000 N.am    1  LIG1       -0.1795
     23 C           5.6210    1.6460    0.0000 C.2     1  LIG1        0.2459
     24 O           6.4580    2.1630    0.0000 O.2     1  LIG1       -0.2730
     25 C           5.6540    0.6670    0.0000 C.3     1  LIG1        0.0919
     26 C           4.8210    0.1580    0.0000 C.3     1  LIG1        0.0373
     27 C           3.0670    2.0420    0.0000 C.ar    1  LIG1        0.0176
     28 C           2.2330    1.5290    0.0000 C.ar    1  LIG1        0.0212
     29 O           0.7130    0.6630    0.0000 O.2     1  LIG1       -0.1528
     30 O           1.6630   -1.0210    0.0000 O.2     1  LIG1       -0.1528
@<TRIPOS>BOND
     1     1     2    1
     2     1    18    1
     3     1    29    2
     4     1    30    2
     5     2     3    1
     6     2    17    1
     7     3     4    1
     8     4     5    1
     9     5     6    1
    10     5    16    1
    11     6     7    1
    12     7     8   ar
    13     7    15   ar
    14     8     9   ar
    15     9    10   ar
    16     9    13    1
    17    10    11    1
    18    10    14   ar
    19    11    12    1
    20    12    13    1
    21    14    15   ar
    22    16    17    1
    23    18    19   ar
    24    18    28   ar
    25    19    20   ar
    26    20    21   ar
    27    20    26    1
    28    21    22    1
    29    21    27   ar
    30    22    23   am
    31    23    24    2
    32    23    25    1
    33    25    26    1
    34    27    28   ar
