@<TRIPOS>MOLECULE
36201_ChemDiv_C250-0314
 19 21 0 0 0
SMALL
GASTEIGER
Energy = 0

@<TRIPOS>ATOM
      1 C          -0.5080   -1.2630    0.0000 C.2     1  LIG1        0.2837
      2 N           0.4500   -1.5420    0.0000 N.am    1  LIG1       -0.1814
      3 C           1.0130   -0.7380    0.0000 C.3     1  LIG1        0.1620
      4 N           0.4710    0.1000    0.0000 N.2     1  LIG1       -0.2494
      5 C          -0.5080   -0.2460    0.0000 C.2     1  LIG1        0.1326
      6 C          -1.3790    0.2500    0.0000 C.ar    1  LIG1        0.0218
      7 C          -1.3790    1.2630    0.0000 C.ar    1  LIG1        0.0013
      8 C          -2.2500    1.7710    0.0000 C.ar    1  LIG1       -0.0042
      9 C          -3.1250    1.2630    0.0000 C.ar    1  LIG1       -0.0218
     10 C          -3.1250    0.2500    0.0000 C.ar    1  LIG1       -0.0042
     11 C          -2.2500   -0.2460    0.0000 C.ar    1  LIG1        0.0013
     12 C          -3.9830    1.7540    0.0000 C.3     1  LIG1        0.0310
     13 C           1.5130   -1.5960    0.0000 C.3     1  LIG1        0.0431
     14 C           2.4880   -1.5960    0.0000 C.3     1  LIG1        0.0037
     15 C           2.9830   -0.7420    0.0000 C.3     1  LIG1        0.0002
     16 C           2.5000    0.1170    0.0000 C.3     1  LIG1        0.0037
     17 C           1.5130    0.1210    0.0000 C.3     1  LIG1        0.0431
     18 C           3.9790   -0.7420    0.0000 C.3     1  LIG1        0.0000
     19 O          -1.3790   -1.7670    0.0000 O.2     1  LIG1       -0.2667
@<TRIPOS>BOND
     1     1     2   am
     2     1     5    1
     3     1    19    2
     4     2     3    1
     5     3     4    1
     6     3    13    1
     7     3    17    1
     8     4     5    2
     9     5     6    1
    10     6     7   ar
    11     6    11   ar
    12     7     8   ar
    13     8     9   ar
    14     9    10   ar
    15     9    12    1
    16    10    11   ar
    17    13    14    1
    18    14    15    1
    19    15    16    1
    20    15    18    1
    21    16    17    1
