@<TRIPOS>MOLECULE
36208_ChemDiv_C565-0149
 36 40 0 0 0
SMALL
GASTEIGER
Energy = 0

@<TRIPOS>ATOM
      1 S          -1.2960    0.7500    0.0000 S.O2    1  LIG1        0.0775
      2 N          -0.4290    1.2540    0.0000 N.3     1  LIG1       -0.0654
      3 C           0.4380    0.7500    0.0000 C.3     1  LIG1        0.1958
      4 C           1.3210    1.2540    0.0000 C.2     1  LIG1        0.2477
      5 N           2.1880    0.7500    0.0000 N.am    1  LIG1       -0.2746
      6 C           2.1880   -0.2420    0.0000 C.3     1  LIG1        0.1149
      7 C           3.0380   -0.7460    0.0000 C.3     1  LIG1        0.1137
      8 N           3.8920   -0.2420    0.0000 N.pl3   1  LIG1       -0.2897
      9 C           4.7580   -0.7330    0.0000 C.ar    1  LIG1        0.1318
     10 N           5.6250   -0.2420    0.0000 N.ar    1  LIG1       -0.2292
     11 C           6.4920   -0.7330    0.0000 C.ar    1  LIG1        0.1003
     12 C           6.4920   -1.7250    0.0000 C.ar    1  LIG1        0.0208
     13 C           5.6250   -2.2130    0.0000 C.ar    1  LIG1        0.0045
     14 C           4.7580   -1.7250    0.0000 C.ar    1  LIG1        0.0343
     15 C           3.8920    0.7500    0.0000 C.3     1  LIG1        0.1137
     16 C           3.0380    1.2540    0.0000 C.3     1  LIG1        0.1149
     17 O           1.3210    2.2580    0.0000 O.2     1  LIG1       -0.2729
     18 C           0.4380   -0.2420    0.0000 C.ar    1  LIG1        0.0041
     19 C          -0.4290   -0.7460    0.0000 C.ar    1  LIG1       -0.0024
     20 C          -0.4290   -1.7540    0.0000 C.ar    1  LIG1       -0.0003
     21 C           0.4380   -2.2540    0.0000 C.ar    1  LIG1       -0.0000
     22 C           1.3210   -1.7540    0.0000 C.ar    1  LIG1       -0.0003
     23 C           1.3210   -0.7460    0.0000 C.ar    1  LIG1       -0.0024
     24 C          -2.1630    0.2630    0.0000 C.ar    1  LIG1        0.1233
     25 C          -3.0290    0.7500    0.0000 C.ar    1  LIG1        0.0170
     26 C          -3.8960    0.2630    0.0000 C.ar    1  LIG1       -0.0050
     27 C          -3.8960   -0.7460    0.0000 C.ar    1  LIG1        0.0695
     28 N          -4.7630   -1.2500    0.0000 N.am    1  LIG1       -0.1795
     29 C          -5.6290   -0.7460    0.0000 C.2     1  LIG1        0.2459
     30 O          -6.4920   -1.2500    0.0000 O.2     1  LIG1       -0.2730
     31 C          -5.6290    0.2630    0.0000 C.3     1  LIG1        0.0919
     32 C          -4.7630    0.7500    0.0000 C.3     1  LIG1        0.0373
     33 C          -3.0290   -1.2500    0.0000 C.ar    1  LIG1        0.0176
     34 C          -2.1630   -0.7460    0.0000 C.ar    1  LIG1        0.0213
     35 O          -0.7920   -0.1170    0.0000 O.2     1  LIG1       -0.1516
     36 O          -1.8000    1.6290    0.0000 O.2     1  LIG1       -0.1516
@<TRIPOS>BOND
     1     1     2    1
     2     1    24    1
     3     1    35    2
     4     1    36    2
     5     2     3    1
     6     3     4    1
     7     3    18    1
     8     4     5   am
     9     4    17    2
    10     5     6    1
    11     5    16    1
    12     6     7    1
    13     7     8    1
    14     8     9    1
    15     8    15    1
    16     9    10   ar
    17     9    14   ar
    18    10    11   ar
    19    11    12   ar
    20    12    13   ar
    21    13    14   ar
    22    15    16    1
    23    18    19   ar
    24    18    23   ar
    25    19    20   ar
    26    20    21   ar
    27    21    22   ar
    28    22    23   ar
    29    24    25   ar
    30    24    34   ar
    31    25    26   ar
    32    26    27   ar
    33    26    32    1
    34    27    28    1
    35    27    33   ar
    36    28    29   am
    37    29    30    2
    38    29    31    1
    39    31    32    1
    40    33    34   ar
