@<TRIPOS>MOLECULE
36209_ChemDiv_G233-0111
 27 30 0 0 0
SMALL
GASTEIGER
Energy = 0

@<TRIPOS>ATOM
      1 S           0.4290    2.9960    0.0000 S.O2    1  LIG1        0.0298
      2 C          -0.4330    2.4960    0.0000 C.ar    1  LIG1        0.1239
      3 C          -0.4330    1.4920    0.0000 C.ar    1  LIG1        0.0697
      4 N           0.4290    0.9920    0.0000 N.pl3   1  LIG1       -0.2763
      5 C           1.3000    1.4830    0.0000 C.ar    1  LIG1        0.0697
      6 C           1.3000    2.4880    0.0000 C.ar    1  LIG1        0.1239
      7 C           2.1670    2.9960    0.0000 C.ar    1  LIG1        0.0200
      8 C           3.0420    2.4830    0.0000 C.ar    1  LIG1        0.0014
      9 C           3.0380    1.4750    0.0000 C.ar    1  LIG1        0.0014
     10 C           2.1630    0.9880    0.0000 C.ar    1  LIG1        0.0162
     11 C           0.4130   -0.0130    0.0000 C.3     1  LIG1        0.1833
     12 C          -0.4460   -0.5040    0.0000 C.2     1  LIG1        0.2662
     13 N          -0.4540   -1.5080    0.0000 N.am    1  LIG1       -0.1755
     14 C          -1.3250   -2.0040    0.0000 C.ar    1  LIG1        0.1008
     15 C          -1.3250   -2.9960    0.0000 C.ar    1  LIG1        0.1553
     16 F          -0.4540   -3.4960    0.0000 F       1  LIG1       -0.2028
     17 C          -2.1830   -3.4880    0.0000 C.ar    1  LIG1        0.0310
     18 C          -3.0460   -2.9880    0.0000 C.ar    1  LIG1        0.0024
     19 C          -3.0460   -1.9920    0.0000 C.ar    1  LIG1        0.0015
     20 C          -2.1750   -1.4920    0.0000 C.ar    1  LIG1        0.0189
     21 O          -1.3130    0.0040    0.0000 O.2     1  LIG1       -0.2711
     22 C          -1.2960    1.0000    0.0000 C.ar    1  LIG1        0.0162
     23 C          -2.1540    1.4920    0.0000 C.ar    1  LIG1        0.0014
     24 C          -2.1540    2.4960    0.0000 C.ar    1  LIG1        0.0014
     25 C          -1.2960    3.0000    0.0000 C.ar    1  LIG1        0.0200
     26 O           1.3000    3.5000    0.0000 O.2     1  LIG1       -0.1642
     27 O          -0.4330    3.4960    0.0000 O.2     1  LIG1       -0.1642
@<TRIPOS>BOND
     1     1     2    1
     2     1     6    1
     3     1    26    2
     4     1    27    2
     5     2     3   ar
     6     2    25   ar
     7     3     4    1
     8     3    22   ar
     9     4     5    1
    10     4    11    1
    11     5     6   ar
    12     5    10   ar
    13     6     7   ar
    14     7     8   ar
    15     8     9   ar
    16     9    10   ar
    17    11    12    1
    18    12    13   am
    19    12    21    2
    20    13    14    1
    21    14    15   ar
    22    14    20   ar
    23    15    16    1
    24    15    17   ar
    25    17    18   ar
    26    18    19   ar
    27    19    20   ar
    28    22    23   ar
    29    23    24   ar
    30    24    25   ar
