@<TRIPOS>MOLECULE
36203_ChemDiv_C200-3173
 35 38 0 0 0
SMALL
GASTEIGER
Energy = 0

@<TRIPOS>ATOM
      1 C          -1.1250    2.0250    0.0000 C.ar    1  LIG1        0.1334
      2 C          -1.1250    1.0080    0.0000 C.ar    1  LIG1        0.0863
      3 N          -0.2580    0.5080    0.0000 N.ar    1  LIG1       -0.2704
      4 C           0.6040    1.0080    0.0000 C.ar    1  LIG1        0.3381
      5 N           0.6040    2.0080    0.0000 N.ar    1  LIG1       -0.2260
      6 C          -0.2580    2.5250    0.0000 C.ar    1  LIG1        0.2854
      7 O          -0.2580    3.5080    0.0000 O.2     1  LIG1       -0.2649
      8 C           1.4670    2.5080    0.0000 C.ar    1  LIG1        0.0709
      9 C           2.3330    2.0080    0.0000 C.ar    1  LIG1        0.0135
     10 C           3.1960    2.5000    0.0000 C.ar    1  LIG1       -0.0204
     11 C           3.1960    3.5000    0.0000 C.ar    1  LIG1       -0.0042
     12 C           2.3170    4.0000    0.0000 C.ar    1  LIG1        0.0012
     13 C           1.4630    3.4960    0.0000 C.ar    1  LIG1        0.0177
     14 C           4.0630    2.0080    0.0000 C.3     1  LIG1        0.0311
     15 O           1.4670    0.5080    0.0000 O.2     1  LIG1       -0.2458
     16 C          -0.2580   -0.4920    0.0000 C.3     1  LIG1        0.1956
     17 C           0.6040   -0.9920    0.0000 C.2     1  LIG1        0.2489
     18 N           0.6000   -1.9960    0.0000 N.am    1  LIG1       -0.2780
     19 C          -0.2750   -2.4960    0.0000 C.3     1  LIG1        0.0935
     20 C          -0.2750   -3.4960    0.0000 C.3     1  LIG1        0.0215
     21 C          -1.1380   -3.9960    0.0000 C.3     1  LIG1        0.0018
     22 C           1.4670   -2.5040    0.0000 C.3     1  LIG1        0.0935
     23 C           2.3330   -2.0080    0.0000 C.3     1  LIG1        0.0215
     24 C           3.2080   -2.5080    0.0000 C.3     1  LIG1        0.0018
     25 O           1.4670   -0.5040    0.0000 O.2     1  LIG1       -0.2728
     26 C          -2.0790    0.7040    0.0000 C.ar    1  LIG1        0.0363
     27 C          -2.6710    1.5080    0.0000 C.ar    1  LIG1        0.0617
     28 N          -2.0790    2.3250    0.0000 N.ar    1  LIG1       -0.3202
     29 C          -2.3880    3.2830    0.0000 C.3     1  LIG1        0.1306
     30 C          -3.6630    1.4000    0.0000 C.ar    1  LIG1        0.0203
     31 C          -4.0670    0.4920    0.0000 C.ar    1  LIG1        0.0384
     32 C          -3.4750   -0.3250    0.0000 C.ar    1  LIG1        0.1389
     33 C          -2.4880   -0.2040    0.0000 C.ar    1  LIG1        0.0398
     34 O          -3.8710   -1.2460    0.0000 O.3     1  LIG1       -0.4714
     35 C          -3.2750   -2.0540    0.0000 C.3     1  LIG1        0.2525
@<TRIPOS>BOND
     1     1     2   ar
     2     1     6   ar
     3     1    28   ar
     4     2     3   ar
     5     2    26   ar
     6     3     4   ar
     7     3    16    1
     8     4     5   ar
     9     4    15    2
    10     5     6   ar
    11     5     8    1
    12     6     7    2
    13     8     9   ar
    14     8    13   ar
    15     9    10   ar
    16    10    11   ar
    17    10    14    1
    18    11    12   ar
    19    12    13   ar
    20    16    17    1
    21    17    18   am
    22    17    25    2
    23    18    19    1
    24    18    22    1
    25    19    20    1
    26    20    21    1
    27    22    23    1
    28    23    24    1
    29    26    27   ar
    30    26    33   ar
    31    27    28   ar
    32    27    30   ar
    33    28    29    1
    34    30    31   ar
    35    31    32   ar
    36    32    33   ar
    37    32    34    1
    38    34    35    1
