@<TRIPOS>MOLECULE
36200_ChemDiv_C464-3097
 28 30 0 0 0
SMALL
GASTEIGER
Energy = 0

@<TRIPOS>ATOM
      1 S           0.0000    0.8670    0.0000 S.O2    1  LIG1        0.0768
      2 C           0.9960    0.8670    0.0000 C.ar    1  LIG1        0.1233
      3 C           1.4880    1.7290    0.0000 C.ar    1  LIG1        0.0170
      4 C           2.4880    1.7420    0.0000 C.ar    1  LIG1       -0.0050
      5 C           2.9920    0.8670    0.0000 C.ar    1  LIG1        0.0695
      6 N           3.9920    0.8670    0.0000 N.am    1  LIG1       -0.1795
      7 C           4.4830    1.7290    0.0000 C.2     1  LIG1        0.2459
      8 O           5.4960    1.7290    0.0000 O.2     1  LIG1       -0.2730
      9 C           3.9920    2.6040    0.0000 C.3     1  LIG1        0.0919
     10 C           2.9790    2.6040    0.0000 C.3     1  LIG1        0.0373
     11 C           2.4880    0.0000    0.0000 C.ar    1  LIG1        0.0176
     12 C           1.4880    0.0000    0.0000 C.ar    1  LIG1        0.0213
     13 O          -0.0130   -0.1330    0.0000 O.2     1  LIG1       -0.1516
     14 O          -0.0130    1.8630    0.0000 O.2     1  LIG1       -0.1516
     15 N          -1.0000    0.8670    0.0000 N.3     1  LIG1       -0.0773
     16 C          -1.5040    0.0000    0.0000 C.3     1  LIG1        0.1251
     17 C          -1.0000   -0.8630    0.0000 C.3     1  LIG1        0.1079
     18 C          -1.4920   -1.7380    0.0000 C.2     1  LIG1        0.2471
     19 N          -2.4920   -1.7380    0.0000 N.am    1  LIG1       -0.1792
     20 C          -2.9960   -0.8750    0.0000 C.ar    1  LIG1        0.0730
     21 C          -3.9960   -0.8750    0.0000 C.ar    1  LIG1        0.0120
     22 C          -4.5000    0.0000    0.0000 C.ar    1  LIG1       -0.0245
     23 C          -3.9960    0.8670    0.0000 C.ar    1  LIG1       -0.0257
     24 C          -2.9960    0.8670    0.0000 C.ar    1  LIG1       -0.0032
     25 C          -2.5040   -0.0080    0.0000 C.ar    1  LIG1        0.0163
     26 C          -4.5000    1.7290    0.0000 C.3     1  LIG1        0.0307
     27 C          -5.5000   -0.0080    0.0000 C.3     1  LIG1        0.0307
     28 O          -1.0000   -2.6000    0.0000 O.2     1  LIG1       -0.2729
@<TRIPOS>BOND
     1     1     2    1
     2     1    13    2
     3     1    14    2
     4     1    15    1
     5     2     3   ar
     6     2    12   ar
     7     3     4   ar
     8     4     5   ar
     9     4    10    1
    10     5     6    1
    11     5    11   ar
    12     6     7   am
    13     7     8    2
    14     7     9    1
    15     9    10    1
    16    11    12   ar
    17    15    16    1
    18    16    17    1
    19    17    18    1
    20    18    19   am
    21    18    28    2
    22    19    20    1
    23    20    21   ar
    24    20    25   ar
    25    21    22   ar
    26    22    23   ar
    27    22    27    1
    28    23    24   ar
    29    23    26    1
    30    24    25   ar
