@<TRIPOS>MOLECULE
36202_ChemDiv_C548-3888
 35 39 0 0 0
SMALL
GASTEIGER
Energy = 0

@<TRIPOS>ATOM
      1 S           2.7710   -0.8540    0.0000 S.O2    1  LIG1        0.0638
      2 N           2.2830   -1.7250    0.0000 N.3     1  LIG1       -0.1447
      3 C           1.2790   -1.7330    0.0000 C.3     1  LIG1        0.1806
      4 C           0.7920   -2.6040    0.0000 C.2     1  LIG1        0.2441
      5 N          -0.2170   -2.6040    0.0000 N.am    1  LIG1       -0.2669
      6 C          -0.7000   -1.7460    0.0000 C.3     1  LIG1        0.1565
      7 C          -1.6960   -1.7460    0.0000 C.3     1  LIG1        0.1610
      8 N          -2.1960   -2.6040    0.0000 N.4     1  LIG1        0.3834
      9 C          -3.2000   -2.6040    0.0000 C.3     1  LIG1        0.1664
     10 C          -3.7000   -1.7330    0.0000 C.ar    1  LIG1        0.0376
     11 C          -4.7040   -1.7460    0.0000 C.ar    1  LIG1        0.0416
     12 C          -5.2040   -0.8750    0.0000 C.ar    1  LIG1        0.1763
     13 C          -4.6960   -0.0130    0.0000 C.ar    1  LIG1        0.1764
     14 O          -5.3580    0.7420    0.0000 O.3     1  LIG1       -0.4346
     15 C          -6.2670    0.3380    0.0000 C.3     1  LIG1        0.4294
     16 O          -6.1750   -0.6580    0.0000 O.3     1  LIG1       -0.4346
     17 C          -3.6880   -0.0130    0.0000 C.ar    1  LIG1        0.0401
     18 C          -3.1920   -0.8750    0.0000 C.ar    1  LIG1        0.0048
     19 C          -1.7080   -3.4790    0.0000 C.3     1  LIG1        0.1610
     20 C          -0.7130   -3.4670    0.0000 C.3     1  LIG1        0.1565
     21 O           1.3000   -3.4670    0.0000 O.2     1  LIG1       -0.2733
     22 C           2.7920   -2.5830    0.0000 C.3     1  LIG1        0.1155
     23 C           3.2710    0.0170    0.0000 C.ar    1  LIG1        0.1220
     24 C           4.2750    0.0170    0.0000 C.ar    1  LIG1        0.0169
     25 C           4.7630    0.8880    0.0000 C.ar    1  LIG1       -0.0050
     26 C           4.2670    1.7580    0.0000 C.ar    1  LIG1        0.0695
     27 N           4.7630    2.6210    0.0000 N.am    1  LIG1       -0.1795
     28 C           5.7580    2.6210    0.0000 C.2     1  LIG1        0.2459
     29 O           6.2670    3.4830    0.0000 O.2     1  LIG1       -0.2730
     30 C           6.2580    1.7500    0.0000 C.3     1  LIG1        0.0919
     31 C           5.7580    0.8880    0.0000 C.3     1  LIG1        0.0373
     32 C           3.2710    1.7580    0.0000 C.ar    1  LIG1        0.0176
     33 C           2.7630    0.8880    0.0000 C.ar    1  LIG1        0.0212
     34 O           3.6540   -1.3500    0.0000 O.2     1  LIG1       -0.1528
     35 O           1.9210   -0.3540    0.0000 O.2     1  LIG1       -0.1528
@<TRIPOS>BOND
     1     1     2    1
     2     1    23    1
     3     1    34    2
     4     1    35    2
     5     2     3    1
     6     2    22    1
     7     3     4    1
     8     4     5   am
     9     4    21    2
    10     5     6    1
    11     5    20    1
    12     6     7    1
    13     7     8    1
    14     8     9    1
    15     8    19    1
    16     9    10    1
    17    10    11   ar
    18    10    18   ar
    19    11    12   ar
    20    12    13   ar
    21    12    16    1
    22    13    14    1
    23    13    17   ar
    24    14    15    1
    25    15    16    1
    26    17    18   ar
    27    19    20    1
    28    23    24   ar
    29    23    33   ar
    30    24    25   ar
    31    25    26   ar
    32    25    31    1
    33    26    27    1
    34    26    32   ar
    35    27    28   am
    36    28    29    2
    37    28    30    1
    38    30    31    1
    39    32    33   ar
