@<TRIPOS>MOLECULE
36206_ChemDiv_C565-0144
 37 41 0 0 0
SMALL
GASTEIGER
Energy = 0

@<TRIPOS>ATOM
      1 S          -0.8790    1.5130    0.0000 S.O2    1  LIG1        0.0775
      2 N          -0.0170    2.0170    0.0000 N.3     1  LIG1       -0.0654
      3 C           0.8500    1.5130    0.0000 C.3     1  LIG1        0.1958
      4 C           1.7130    2.0170    0.0000 C.2     1  LIG1        0.2476
      5 N           2.5790    1.5130    0.0000 N.am    1  LIG1       -0.2781
      6 C           2.5790    0.5130    0.0000 C.3     1  LIG1        0.0935
      7 C           3.4420    0.0080    0.0000 C.3     1  LIG1        0.0219
      8 C           4.3210    0.5000    0.0000 C.3     1  LIG1        0.0078
      9 C           5.2000   -0.0040    0.0000 C.3     1  LIG1        0.0265
     10 C           5.1830   -1.0040    0.0000 C.ar    1  LIG1       -0.0222
     11 C           4.3210   -1.4960    0.0000 C.ar    1  LIG1       -0.0043
     12 C           4.3210   -2.5040    0.0000 C.ar    1  LIG1       -0.0003
     13 C           5.1830   -3.0130    0.0000 C.ar    1  LIG1       -0.0000
     14 C           6.0630   -2.4920    0.0000 C.ar    1  LIG1       -0.0003
     15 C           6.0500   -1.4960    0.0000 C.ar    1  LIG1       -0.0043
     16 C           4.3080    1.5130    0.0000 C.3     1  LIG1        0.0219
     17 C           3.4420    2.0040    0.0000 C.3     1  LIG1        0.0935
     18 O           1.7130    3.0170    0.0000 O.2     1  LIG1       -0.2729
     19 C           0.8500    0.5130    0.0000 C.ar    1  LIG1        0.0041
     20 C          -0.0170    0.0080    0.0000 C.ar    1  LIG1       -0.0024
     21 C          -0.0170   -0.9880    0.0000 C.ar    1  LIG1       -0.0003
     22 C           0.8500   -1.4790    0.0000 C.ar    1  LIG1       -0.0000
     23 C           1.7130   -0.9880    0.0000 C.ar    1  LIG1       -0.0003
     24 C           1.7130    0.0080    0.0000 C.ar    1  LIG1       -0.0024
     25 C          -1.7460    1.0080    0.0000 C.ar    1  LIG1        0.1233
     26 C          -2.6080    1.5130    0.0000 C.ar    1  LIG1        0.0170
     27 C          -3.4750    1.0080    0.0000 C.ar    1  LIG1       -0.0050
     28 C          -3.4750    0.0080    0.0000 C.ar    1  LIG1        0.0695
     29 N          -4.3380   -0.4830    0.0000 N.am    1  LIG1       -0.1795
     30 C          -5.2040    0.0080    0.0000 C.2     1  LIG1        0.2459
     31 O          -6.0630   -0.4830    0.0000 O.2     1  LIG1       -0.2730
     32 C          -5.2040    1.0080    0.0000 C.3     1  LIG1        0.0919
     33 C          -4.3380    1.5130    0.0000 C.3     1  LIG1        0.0373
     34 C          -2.6080   -0.4830    0.0000 C.ar    1  LIG1        0.0176
     35 C          -1.7460    0.0080    0.0000 C.ar    1  LIG1        0.0213
     36 O          -0.3750    0.6460    0.0000 O.2     1  LIG1       -0.1516
     37 O          -1.3830    2.3750    0.0000 O.2     1  LIG1       -0.1516
@<TRIPOS>BOND
     1     1     2    1
     2     1    25    1
     3     1    36    2
     4     1    37    2
     5     2     3    1
     6     3     4    1
     7     3    19    1
     8     4     5   am
     9     4    18    2
    10     5     6    1
    11     5    17    1
    12     6     7    1
    13     7     8    1
    14     8     9    1
    15     8    16    1
    16     9    10    1
    17    10    11   ar
    18    10    15   ar
    19    11    12   ar
    20    12    13   ar
    21    13    14   ar
    22    14    15   ar
    23    16    17    1
    24    19    20   ar
    25    19    24   ar
    26    20    21   ar
    27    21    22   ar
    28    22    23   ar
    29    23    24   ar
    30    25    26   ar
    31    25    35   ar
    32    26    27   ar
    33    27    28   ar
    34    27    33    1
    35    28    29    1
    36    28    34   ar
    37    29    30   am
    38    30    31    2
    39    30    32    1
    40    32    33    1
    41    34    35   ar
