@<TRIPOS>MOLECULE
36215_ChemDiv_G233-0120
 28 31 0 0 0
SMALL
GASTEIGER
Energy = 0

@<TRIPOS>ATOM
      1 S           1.2880    2.9920    0.0000 S.O2    1  LIG1        0.0298
      2 C           0.4250    2.4960    0.0000 C.ar    1  LIG1        0.1239
      3 C           0.4250    1.4880    0.0000 C.ar    1  LIG1        0.0697
      4 N           1.2880    0.9880    0.0000 N.pl3   1  LIG1       -0.2763
      5 C           2.1580    1.4830    0.0000 C.ar    1  LIG1        0.0697
      6 C           2.1580    2.4830    0.0000 C.ar    1  LIG1        0.1239
      7 C           3.0250    2.9920    0.0000 C.ar    1  LIG1        0.0200
      8 C           3.9000    2.4790    0.0000 C.ar    1  LIG1        0.0014
      9 C           3.8960    1.4710    0.0000 C.ar    1  LIG1        0.0014
     10 C           3.0210    0.9830    0.0000 C.ar    1  LIG1        0.0162
     11 C           1.2710   -0.0170    0.0000 C.3     1  LIG1        0.1833
     12 C           0.4080   -0.5080    0.0000 C.2     1  LIG1        0.2661
     13 N           0.4040   -1.5130    0.0000 N.am    1  LIG1       -0.1777
     14 C          -0.4670   -2.0130    0.0000 C.ar    1  LIG1        0.0764
     15 C          -1.3210   -1.4960    0.0000 C.ar    1  LIG1        0.0535
     16 C          -2.1920   -1.9960    0.0000 C.ar    1  LIG1        0.1400
     17 O          -3.0380   -1.4960    0.0000 O.3     1  LIG1       -0.4714
     18 C          -3.9040   -1.9920    0.0000 C.3     1  LIG1        0.2525
     19 C          -2.1920   -2.9960    0.0000 C.ar    1  LIG1        0.0370
     20 C          -1.3290   -3.4920    0.0000 C.ar    1  LIG1        0.0044
     21 C          -0.4670   -3.0040    0.0000 C.ar    1  LIG1        0.0168
     22 O          -0.4580    0.0000    0.0000 O.2     1  LIG1       -0.2711
     23 C          -0.4380    0.9960    0.0000 C.ar    1  LIG1        0.0162
     24 C          -1.3000    1.4880    0.0000 C.ar    1  LIG1        0.0014
     25 C          -1.3000    2.4960    0.0000 C.ar    1  LIG1        0.0014
     26 C          -0.4380    3.0000    0.0000 C.ar    1  LIG1        0.0200
     27 O           2.1580    3.4960    0.0000 O.2     1  LIG1       -0.1642
     28 O           0.4250    3.4920    0.0000 O.2     1  LIG1       -0.1642
@<TRIPOS>BOND
     1     1     2    1
     2     1     6    1
     3     1    27    2
     4     1    28    2
     5     2     3   ar
     6     2    26   ar
     7     3     4    1
     8     3    23   ar
     9     4     5    1
    10     4    11    1
    11     5     6   ar
    12     5    10   ar
    13     6     7   ar
    14     7     8   ar
    15     8     9   ar
    16     9    10   ar
    17    11    12    1
    18    12    13   am
    19    12    22    2
    20    13    14    1
    21    14    15   ar
    22    14    21   ar
    23    15    16   ar
    24    16    17    1
    25    16    19   ar
    26    17    18    1
    27    19    20   ar
    28    20    21   ar
    29    23    24   ar
    30    24    25   ar
    31    25    26   ar
