@<TRIPOS>MOLECULE
36216_ChemDiv_C209-0178
 21 23 0 0 0
SMALL
GASTEIGER
Energy = 0

@<TRIPOS>ATOM
      1 N          -0.0630    1.7920    0.0000 N.pl3   1  LIG1       -0.2287
      2 C           0.7960    2.2920    0.0000 C.3     1  LIG1        0.1702
      3 C           1.6580    1.7920    0.0000 C.2     1  LIG1        0.2653
      4 N           1.6580    0.7920    0.0000 N.am    1  LIG1       -0.1765
      5 C           0.7960    0.2920    0.0000 C.ar    1  LIG1        0.0883
      6 C          -0.0630    0.7920    0.0000 C.ar    1  LIG1        0.0811
      7 C          -0.9380    0.2920    0.0000 C.ar    1  LIG1        0.0176
      8 C          -0.9380   -0.7080    0.0000 C.ar    1  LIG1        0.0059
      9 C          -0.0630   -1.2080    0.0000 C.ar    1  LIG1        0.0550
     10 C          -0.0630   -2.2080    0.0000 C.2     1  LIG1        0.2491
     11 N          -0.9250   -2.7040    0.0000 N.am    1  LIG1       -0.2761
     12 C          -1.1380   -3.6880    0.0000 C.3     1  LIG1        0.0938
     13 C          -2.1290   -3.7880    0.0000 C.3     1  LIG1        0.0233
     14 C          -2.5420   -2.8710    0.0000 C.3     1  LIG1        0.0233
     15 C          -1.7920   -2.2080    0.0000 C.3     1  LIG1        0.0938
     16 O           0.8040   -2.7040    0.0000 O.2     1  LIG1       -0.2699
     17 C           0.7960   -0.7080    0.0000 C.ar    1  LIG1        0.0224
     18 O           2.5380    2.2920    0.0000 O.2     1  LIG1       -0.2711
     19 C           0.7960    3.2920    0.0000 C.3     1  LIG1        0.0289
     20 C          -0.0710    3.7920    0.0000 C.3     1  LIG1        0.0023
     21 C           1.6580    3.7920    0.0000 C.3     1  LIG1        0.0023
@<TRIPOS>BOND
     1     1     2    1
     2     1     6    1
     3     2     3    1
     4     2    19    1
     5     3     4   am
     6     3    18    2
     7     4     5    1
     8     5     6   ar
     9     5    17   ar
    10     6     7   ar
    11     7     8   ar
    12     8     9   ar
    13     9    10    1
    14     9    17   ar
    15    10    11   am
    16    10    16    2
    17    11    12    1
    18    11    15    1
    19    12    13    1
    20    13    14    1
    21    14    15    1
    22    19    20    1
    23    19    21    1
