@<TRIPOS>MOLECULE
36219_ChemDiv_G233-0123
 30 33 0 0 0
SMALL
GASTEIGER
Energy = 0

@<TRIPOS>ATOM
      1 S           1.2880    3.0000    0.0000 S.O2    1  LIG1        0.0298
      2 C           0.4250    2.5000    0.0000 C.ar    1  LIG1        0.1239
      3 C           0.4250    1.4920    0.0000 C.ar    1  LIG1        0.0697
      4 N           1.2880    0.9920    0.0000 N.pl3   1  LIG1       -0.2763
      5 C           2.1580    1.4880    0.0000 C.ar    1  LIG1        0.0697
      6 C           2.1580    2.4880    0.0000 C.ar    1  LIG1        0.1239
      7 C           3.0250    3.0000    0.0000 C.ar    1  LIG1        0.0200
      8 C           3.9000    2.4830    0.0000 C.ar    1  LIG1        0.0014
      9 C           3.8960    1.4750    0.0000 C.ar    1  LIG1        0.0014
     10 C           3.0210    0.9880    0.0000 C.ar    1  LIG1        0.0162
     11 C           1.2710   -0.0130    0.0000 C.3     1  LIG1        0.1833
     12 C           0.4080   -0.5040    0.0000 C.2     1  LIG1        0.2662
     13 N           0.4040   -1.5080    0.0000 N.am    1  LIG1       -0.1746
     14 C          -0.4670   -2.0080    0.0000 C.ar    1  LIG1        0.1102
     15 C          -1.3210   -1.4920    0.0000 C.ar    1  LIG1        0.0566
     16 C          -2.1920   -1.9920    0.0000 C.ar    1  LIG1        0.1402
     17 C          -2.1920   -2.9880    0.0000 C.ar    1  LIG1        0.0401
     18 C          -1.3290   -3.4880    0.0000 C.ar    1  LIG1        0.0414
     19 C          -0.4670   -3.0000    0.0000 C.ar    1  LIG1        0.1541
     20 O           0.3920   -3.5000    0.0000 O.3     1  LIG1       -0.4701
     21 C           1.2670   -3.0000    0.0000 C.3     1  LIG1        0.2525
     22 O          -3.0380   -1.4920    0.0000 O.3     1  LIG1       -0.4714
     23 C          -3.9040   -1.9880    0.0000 C.3     1  LIG1        0.2525
     24 O          -0.4580    0.0040    0.0000 O.2     1  LIG1       -0.2711
     25 C          -0.4380    1.0040    0.0000 C.ar    1  LIG1        0.0162
     26 C          -1.3000    1.4920    0.0000 C.ar    1  LIG1        0.0014
     27 C          -1.3000    2.5000    0.0000 C.ar    1  LIG1        0.0014
     28 C          -0.4380    3.0040    0.0000 C.ar    1  LIG1        0.0200
     29 O           0.4250    3.4960    0.0000 O.2     1  LIG1       -0.1642
     30 O           2.1580    3.5040    0.0000 O.2     1  LIG1       -0.1642
@<TRIPOS>BOND
     1     1     2    1
     2     1     6    1
     3     1    29    2
     4     1    30    2
     5     2     3   ar
     6     2    28   ar
     7     3     4    1
     8     3    25   ar
     9     4     5    1
    10     4    11    1
    11     5     6   ar
    12     5    10   ar
    13     6     7   ar
    14     7     8   ar
    15     8     9   ar
    16     9    10   ar
    17    11    12    1
    18    12    13   am
    19    12    24    2
    20    13    14    1
    21    14    15   ar
    22    14    19   ar
    23    15    16   ar
    24    16    17   ar
    25    16    22    1
    26    17    18   ar
    27    18    19   ar
    28    19    20    1
    29    20    21    1
    30    22    23    1
    31    25    26   ar
    32    26    27   ar
    33    27    28   ar
