@<TRIPOS>MOLECULE
36217_ChemDiv_G233-0122
 30 33 0 0 0
SMALL
GASTEIGER
Energy = 0

@<TRIPOS>ATOM
      1 S           0.8710    3.4920    0.0000 S.O2    1  LIG1        0.0298
      2 C           0.0080    2.9920    0.0000 C.ar    1  LIG1        0.1239
      3 C           0.0040    1.9830    0.0000 C.ar    1  LIG1        0.0697
      4 N           0.8670    1.4880    0.0000 N.pl3   1  LIG1       -0.2763
      5 C           1.7330    1.9790    0.0000 C.ar    1  LIG1        0.0697
      6 C           1.7330    2.9830    0.0000 C.ar    1  LIG1        0.1239
      7 C           2.6080    3.4920    0.0000 C.ar    1  LIG1        0.0200
      8 C           3.4790    2.9790    0.0000 C.ar    1  LIG1        0.0014
      9 C           3.4710    1.9710    0.0000 C.ar    1  LIG1        0.0014
     10 C           2.5920    1.4790    0.0000 C.ar    1  LIG1        0.0162
     11 C           0.8540    0.4830    0.0000 C.3     1  LIG1        0.1833
     12 C          -0.0130   -0.0080    0.0000 C.2     1  LIG1        0.2662
     13 N          -0.0210   -1.0130    0.0000 N.am    1  LIG1       -0.1747
     14 C          -0.8830   -1.5130    0.0000 C.ar    1  LIG1        0.1074
     15 C          -0.8830   -2.5040    0.0000 C.ar    1  LIG1        0.1569
     16 C          -1.7460   -2.9960    0.0000 C.ar    1  LIG1        0.0751
     17 C          -2.6130   -2.4960    0.0000 C.ar    1  LIG1        0.1418
     18 C          -2.6080   -1.4960    0.0000 C.ar    1  LIG1        0.0384
     19 C          -1.7460   -1.0000    0.0000 C.ar    1  LIG1        0.0228
     20 O          -3.4750   -2.9960    0.0000 O.3     1  LIG1       -0.4713
     21 C          -3.4830   -3.9920    0.0000 C.3     1  LIG1        0.2525
     22 O          -0.0210   -3.0040    0.0000 O.3     1  LIG1       -0.4700
     23 C           0.8380   -2.5040    0.0000 C.3     1  LIG1        0.2525
     24 O          -0.8830    0.5000    0.0000 O.2     1  LIG1       -0.2711
     25 C          -0.8580    1.4960    0.0000 C.ar    1  LIG1        0.0162
     26 C          -1.7210    1.9830    0.0000 C.ar    1  LIG1        0.0014
     27 C          -1.7210    2.9920    0.0000 C.ar    1  LIG1        0.0014
     28 C          -0.8580    3.4960    0.0000 C.ar    1  LIG1        0.0200
     29 O           1.7330    3.9960    0.0000 O.2     1  LIG1       -0.1642
     30 O           0.0040    3.9920    0.0000 O.2     1  LIG1       -0.1642
@<TRIPOS>BOND
     1     1     2    1
     2     1     6    1
     3     1    29    2
     4     1    30    2
     5     2     3   ar
     6     2    28   ar
     7     3     4    1
     8     3    25   ar
     9     4     5    1
    10     4    11    1
    11     5     6   ar
    12     5    10   ar
    13     6     7   ar
    14     7     8   ar
    15     8     9   ar
    16     9    10   ar
    17    11    12    1
    18    12    13   am
    19    12    24    2
    20    13    14    1
    21    14    15   ar
    22    14    19   ar
    23    15    16   ar
    24    15    22    1
    25    16    17   ar
    26    17    18   ar
    27    17    20    1
    28    18    19   ar
    29    20    21    1
    30    22    23    1
    31    25    26   ar
    32    26    27   ar
    33    27    28   ar
