@<TRIPOS>MOLECULE
36214_ChemDiv_C208-0499
 33 37 0 0 0
SMALL
GASTEIGER
Energy = 0

@<TRIPOS>ATOM
      1 S          -2.9670   -1.0710    0.0000 S.O2    1  LIG1        0.0634
      2 N          -3.8380   -0.5880    0.0000 N.3     1  LIG1       -0.1504
      3 C          -4.7040   -1.0960    0.0000 C.3     1  LIG1        0.1279
      4 C          -5.5750   -0.6130    0.0000 C.3     1  LIG1        0.1613
      5 O          -5.6000    0.3880    0.0000 O.3     1  LIG1       -0.3507
      6 C          -4.7330    0.9000    0.0000 C.3     1  LIG1        0.1613
      7 C          -3.8630    0.4210    0.0000 C.3     1  LIG1        0.1279
      8 C          -2.0750   -1.5630    0.0000 C.ar    1  LIG1        0.1223
      9 C          -1.2130   -1.0580    0.0000 C.ar    1  LIG1        0.0216
     10 C          -0.3580   -1.5540    0.0000 C.ar    1  LIG1        0.0237
     11 C           0.5130   -1.0580    0.0000 C.ar    1  LIG1        0.0613
     12 C           1.3830   -1.5630    0.0000 C.ar    1  LIG1        0.0671
     13 C           1.3830   -2.5420    0.0000 C.ar    1  LIG1        0.2794
     14 N           0.5130   -3.0380    0.0000 N.ar    1  LIG1       -0.2079
     15 C          -0.3580   -2.5420    0.0000 C.ar    1  LIG1        0.0847
     16 C          -1.2130   -3.0380    0.0000 C.ar    1  LIG1        0.0206
     17 C          -2.0750   -2.5420    0.0000 C.ar    1  LIG1        0.0215
     18 O           2.2630   -3.0250    0.0000 O.2     1  LIG1       -0.2652
     19 C           0.5000   -0.0540    0.0000 C.2     1  LIG1        0.2653
     20 N           1.3830    0.4420    0.0000 N.am    1  LIG1       -0.1968
     21 C           2.2500   -0.0540    0.0000 C.3     1  LIG1        0.1419
     22 C           3.1170    0.4420    0.0000 C.ar    1  LIG1        0.0027
     23 C           3.1170    1.4460    0.0000 C.ar    1  LIG1        0.0376
     24 C           3.9750    1.9540    0.0000 C.ar    1  LIG1        0.1762
     25 C           4.8630    1.4460    0.0000 C.ar    1  LIG1        0.1764
     26 O           5.5960    2.1380    0.0000 O.3     1  LIG1       -0.4346
     27 C           5.1540    3.0420    0.0000 C.3     1  LIG1        0.4294
     28 O           4.1750    2.9210    0.0000 O.3     1  LIG1       -0.4346
     29 C           4.8630    0.4420    0.0000 C.ar    1  LIG1        0.0399
     30 C           3.9790   -0.0540    0.0000 C.ar    1  LIG1        0.0008
     31 O          -0.3580    0.4420    0.0000 O.2     1  LIG1       -0.2684
     32 O          -2.4710   -0.1880    0.0000 O.2     1  LIG1       -0.1528
     33 O          -3.4460   -1.9500    0.0000 O.2     1  LIG1       -0.1528
@<TRIPOS>BOND
     1     1     2    1
     2     1     8    1
     3     1    32    2
     4     1    33    2
     5     2     3    1
     6     2     7    1
     7     3     4    1
     8     4     5    1
     9     5     6    1
    10     6     7    1
    11     8     9   ar
    12     8    17   ar
    13     9    10   ar
    14    10    11   ar
    15    10    15   ar
    16    11    12   ar
    17    11    19    1
    18    12    13   ar
    19    13    14   ar
    20    13    18    2
    21    14    15   ar
    22    15    16   ar
    23    16    17   ar
    24    19    20   am
    25    19    31    2
    26    20    21    1
    27    21    22    1
    28    22    23   ar
    29    22    30   ar
    30    23    24   ar
    31    24    25   ar
    32    24    28    1
    33    25    26    1
    34    25    29   ar
    35    26    27    1
    36    27    28    1
    37    29    30   ar
