@<TRIPOS>MOLECULE
36212_ChemDiv_C206-0348
 24 25 0 0 0
SMALL
GASTEIGER
Energy = 0

@<TRIPOS>ATOM
      1 S           1.3130   -1.0000    0.0000 S.O2    1  LIG1       -0.0548
      2 C           2.1830   -0.4960    0.0000 C.ar    1  LIG1        0.1261
      3 C           2.1830    0.5000    0.0000 C.ar    1  LIG1        0.0569
      4 C           3.0420    0.9960    0.0000 C.ar    1  LIG1        0.1402
      5 C           3.9130    0.5000    0.0000 C.ar    1  LIG1        0.0401
      6 C           3.9130   -0.4960    0.0000 C.ar    1  LIG1        0.0413
      7 C           3.0420   -0.9920    0.0000 C.ar    1  LIG1        0.1545
      8 O           3.0420   -1.9920    0.0000 O.3     1  LIG1       -0.4702
      9 C           2.1830   -2.4960    0.0000 C.3     1  LIG1        0.2525
     10 O           3.0420    1.9960    0.0000 O.3     1  LIG1       -0.4714
     11 C           2.1830    2.5000    0.0000 C.3     1  LIG1        0.2525
     12 N           0.4330   -1.5170    0.0000 N.pl3   1  LIG1       -0.5357
     13 C          -0.4330   -1.0130    0.0000 C.ar    1  LIG1       -0.1122
     14 C          -0.4500   -0.0210    0.0000 C.ar    1  LIG1       -0.0225
     15 C          -1.3170    0.4790    0.0000 C.ar    1  LIG1        0.0181
     16 C          -2.1630   -0.0210    0.0000 C.ar    1  LIG1        0.1249
     17 S          -3.0460    0.5000    0.0000 S.O2    1  LIG1        0.0935
     18 O          -2.5460    1.3630    0.0000 O.2     1  LIG1       -0.1503
     19 O          -3.5580   -0.3670    0.0000 O.2     1  LIG1       -0.1503
     20 N          -3.9170    0.9960    0.0000 N.3     1  LIG1        0.0392
     21 C          -2.1630   -1.0130    0.0000 C.ar    1  LIG1        0.0181
     22 C          -1.3000   -1.5170    0.0000 C.ar    1  LIG1       -0.0225
     23 O           1.8170   -1.8670    0.0000 O.2     1  LIG1       -0.1841
     24 O           0.8000   -0.1380    0.0000 O.2     1  LIG1       -0.1841
@<TRIPOS>BOND
     1     1     2    1
     2     1    12    1
     3     1    23    2
     4     1    24    2
     5     2     3   ar
     6     2     7   ar
     7     3     4   ar
     8     4     5   ar
     9     4    10    1
    10     5     6   ar
    11     6     7   ar
    12     7     8    1
    13     8     9    1
    14    10    11    1
    15    12    13    1
    16    13    14   ar
    17    13    22   ar
    18    14    15   ar
    19    15    16   ar
    20    16    17    1
    21    16    21   ar
    22    17    18    2
    23    17    19    2
    24    17    20    1
    25    21    22   ar
