@<TRIPOS>MOLECULE
36213_ChemDiv_G233-0118
 27 30 0 0 0
SMALL
GASTEIGER
Energy = 0

@<TRIPOS>ATOM
      1 S           0.8630    2.9920    0.0000 S.O2    1  LIG1        0.0298
      2 C           0.0000    2.4920    0.0000 C.ar    1  LIG1        0.1239
      3 C           0.0000    1.4880    0.0000 C.ar    1  LIG1        0.0697
      4 N           0.8630    0.9880    0.0000 N.pl3   1  LIG1       -0.2763
      5 C           1.7330    1.4790    0.0000 C.ar    1  LIG1        0.0697
      6 C           1.7330    2.4830    0.0000 C.ar    1  LIG1        0.1239
      7 C           2.6000    2.9920    0.0000 C.ar    1  LIG1        0.0200
      8 C           3.4750    2.4790    0.0000 C.ar    1  LIG1        0.0014
      9 C           3.4710    1.4710    0.0000 C.ar    1  LIG1        0.0014
     10 C           2.5960    0.9830    0.0000 C.ar    1  LIG1        0.0162
     11 C           0.8460   -0.0170    0.0000 C.3     1  LIG1        0.1833
     12 C          -0.0130   -0.5080    0.0000 C.2     1  LIG1        0.2661
     13 N          -0.0210   -1.5130    0.0000 N.am    1  LIG1       -0.1778
     14 C          -0.8920   -2.0080    0.0000 C.ar    1  LIG1        0.0734
     15 C          -0.8920   -3.0040    0.0000 C.ar    1  LIG1        0.0171
     16 C          -1.7540   -3.4920    0.0000 C.ar    1  LIG1        0.0080
     17 C          -2.6130   -2.9920    0.0000 C.ar    1  LIG1        0.0347
     18 BR         -3.4790   -3.4920    0.0000 Br      1  LIG1       -0.0490
     19 C          -2.6130   -1.9960    0.0000 C.ar    1  LIG1        0.0080
     20 C          -1.7420   -1.4960    0.0000 C.ar    1  LIG1        0.0171
     21 O          -0.8790    0.0000    0.0000 O.2     1  LIG1       -0.2711
     22 C          -0.8630    0.9960    0.0000 C.ar    1  LIG1        0.0162
     23 C          -1.7210    1.4880    0.0000 C.ar    1  LIG1        0.0014
     24 C          -1.7210    2.4920    0.0000 C.ar    1  LIG1        0.0014
     25 C          -0.8630    2.9960    0.0000 C.ar    1  LIG1        0.0200
     26 O           0.0000    3.4920    0.0000 O.2     1  LIG1       -0.1642
     27 O           1.7330    3.4960    0.0000 O.2     1  LIG1       -0.1642
@<TRIPOS>BOND
     1     1     2    1
     2     1     6    1
     3     1    26    2
     4     1    27    2
     5     2     3   ar
     6     2    25   ar
     7     3     4    1
     8     3    22   ar
     9     4     5    1
    10     4    11    1
    11     5     6   ar
    12     5    10   ar
    13     6     7   ar
    14     7     8   ar
    15     8     9   ar
    16     9    10   ar
    17    11    12    1
    18    12    13   am
    19    12    21    2
    20    13    14    1
    21    14    15   ar
    22    14    20   ar
    23    15    16   ar
    24    16    17   ar
    25    17    18    1
    26    17    19   ar
    27    19    20   ar
    28    22    23   ar
    29    23    24   ar
    30    24    25   ar
