@<TRIPOS>MOLECULE
36224_ChemDiv_C800-0185
 25 28 0 0 0
SMALL
GASTEIGER
Energy = 0

@<TRIPOS>ATOM
      1 N           0.8580    2.7210    0.0000 N.pl3   1  LIG1       -0.3004
      2 C           0.8580    1.7210    0.0000 C.ar    1  LIG1        0.0637
      3 C           1.7210    1.2250    0.0000 C.ar    1  LIG1        0.0868
      4 N           2.5790    1.7250    0.0000 N.am    1  LIG1       -0.1766
      5 C           2.5790    2.7210    0.0000 C.2     1  LIG1        0.2636
      6 C           1.7210    3.2170    0.0000 C.3     1  LIG1        0.1519
      7 C           1.3540    4.2500    0.0000 C.3     1  LIG1        0.0310
      8 C           0.3580    4.2380    0.0000 C.3     1  LIG1        0.0236
      9 C           0.0460    3.3040    0.0000 C.3     1  LIG1        0.0913
     10 O           3.4420    3.2290    0.0000 O.2     1  LIG1       -0.2712
     11 C           1.7290    0.2250    0.0000 C.ar    1  LIG1        0.0224
     12 C           0.8580   -0.2710    0.0000 C.ar    1  LIG1        0.0550
     13 C           0.8710   -1.2670    0.0000 C.2     1  LIG1        0.2491
     14 N           0.0000   -1.7670    0.0000 N.am    1  LIG1       -0.2761
     15 C           0.0130   -2.7630    0.0000 C.3     1  LIG1        0.0941
     16 C          -0.8580   -3.2580    0.0000 C.3     1  LIG1        0.0271
     17 C          -1.7210   -2.7540    0.0000 C.3     1  LIG1        0.0399
     18 C          -2.5830   -3.2540    0.0000 C.2     1  LIG1        0.0501
     19 O          -2.5960   -4.2500    0.0000 O.co2   1  LIG1       -0.5492
     20 O          -3.4460   -2.7460    0.0000 O.co2   1  LIG1       -0.5492
     21 C          -1.7210   -1.7580    0.0000 C.3     1  LIG1        0.0271
     22 C          -0.8580   -1.2670    0.0000 C.3     1  LIG1        0.0941
     23 O           1.7290   -1.7670    0.0000 O.2     1  LIG1       -0.2699
     24 C           0.0000    0.2250    0.0000 C.ar    1  LIG1        0.0059
     25 C           0.0000    1.2250    0.0000 C.ar    1  LIG1        0.0160
@<TRIPOS>BOND
     1     1     2    1
     2     1     6    1
     3     1     9    1
     4     2     3   ar
     5     2    25   ar
     6     3     4    1
     7     3    11   ar
     8     4     5   am
     9     5     6    1
    10     5    10    2
    11     6     7    1
    12     7     8    1
    13     8     9    1
    14    11    12   ar
    15    12    13    1
    16    12    24   ar
    17    13    14   am
    18    13    23    2
    19    14    15    1
    20    14    22    1
    21    15    16    1
    22    16    17    1
    23    17    18    1
    24    17    21    1
    25    18    19   ar
    26    18    20   ar
    27    21    22    1
    28    24    25   ar
