@<TRIPOS>MOLECULE
36223_ChemDiv_G233-0126
 32 35 0 0 0
SMALL
GASTEIGER
Energy = 0

@<TRIPOS>ATOM
      1 S           1.2880    3.7420    0.0000 S.O2    1  LIG1        0.0298
      2 C           0.4250    3.2460    0.0000 C.ar    1  LIG1        0.1239
      3 C           0.4250    2.2380    0.0000 C.ar    1  LIG1        0.0697
      4 N           1.2880    1.7380    0.0000 N.pl3   1  LIG1       -0.2763
      5 C           2.1580    2.2290    0.0000 C.ar    1  LIG1        0.0697
      6 C           2.1580    3.2330    0.0000 C.ar    1  LIG1        0.1239
      7 C           3.0250    3.7420    0.0000 C.ar    1  LIG1        0.0200
      8 C           3.9040    3.2290    0.0000 C.ar    1  LIG1        0.0014
      9 C           3.9000    2.2210    0.0000 C.ar    1  LIG1        0.0014
     10 C           3.0210    1.7330    0.0000 C.ar    1  LIG1        0.0162
     11 C           1.2710    0.7330    0.0000 C.3     1  LIG1        0.1833
     12 C           0.4080    0.2380    0.0000 C.2     1  LIG1        0.2661
     13 N           0.4040   -0.7630    0.0000 N.am    1  LIG1       -0.1775
     14 C          -0.4670   -1.2630    0.0000 C.ar    1  LIG1        0.0797
     15 C          -1.3210   -0.7500    0.0000 C.ar    1  LIG1        0.0568
     16 C          -2.1920   -1.2500    0.0000 C.ar    1  LIG1        0.1767
     17 C          -2.1920   -2.2460    0.0000 C.ar    1  LIG1        0.2061
     18 C          -1.3290   -2.7460    0.0000 C.ar    1  LIG1        0.1767
     19 C          -0.4670   -2.2580    0.0000 C.ar    1  LIG1        0.0568
     20 O          -1.3290   -3.7460    0.0000 O.3     1  LIG1       -0.4682
     21 C          -0.4670   -4.2420    0.0000 C.3     1  LIG1        0.2526
     22 O          -3.0540   -2.7420    0.0000 O.3     1  LIG1       -0.4654
     23 C          -3.0580   -3.7380    0.0000 C.3     1  LIG1        0.2528
     24 O          -3.0420   -0.7500    0.0000 O.3     1  LIG1       -0.4682
     25 C          -3.9080   -1.2420    0.0000 C.3     1  LIG1        0.2526
     26 O          -0.4580    0.7500    0.0000 O.2     1  LIG1       -0.2711
     27 C          -0.4380    1.7460    0.0000 C.ar    1  LIG1        0.0162
     28 C          -1.3000    2.2380    0.0000 C.ar    1  LIG1        0.0014
     29 C          -1.3000    3.2460    0.0000 C.ar    1  LIG1        0.0014
     30 C          -0.4380    3.7500    0.0000 C.ar    1  LIG1        0.0200
     31 O           0.4250    4.2380    0.0000 O.2     1  LIG1       -0.1642
     32 O           2.1580    4.2420    0.0000 O.2     1  LIG1       -0.1642
@<TRIPOS>BOND
     1     1     2    1
     2     1     6    1
     3     1    31    2
     4     1    32    2
     5     2     3   ar
     6     2    30   ar
     7     3     4    1
     8     3    27   ar
     9     4     5    1
    10     4    11    1
    11     5     6   ar
    12     5    10   ar
    13     6     7   ar
    14     7     8   ar
    15     8     9   ar
    16     9    10   ar
    17    11    12    1
    18    12    13   am
    19    12    26    2
    20    13    14    1
    21    14    15   ar
    22    14    19   ar
    23    15    16   ar
    24    16    17   ar
    25    16    24    1
    26    17    18   ar
    27    17    22    1
    28    18    19   ar
    29    18    20    1
    30    20    21    1
    31    22    23    1
    32    24    25    1
    33    27    28   ar
    34    28    29   ar
    35    29    30   ar
