@<TRIPOS>MOLECULE
36227_ChemDiv_C250-0032
 18 20 0 0 0
SMALL
GASTEIGER
Energy = 0

@<TRIPOS>ATOM
      1 C           1.3170   -0.6380    0.0000 C.2     1  LIG1        0.1198
      2 N           1.6210    0.3210    0.0000 N.am    1  LIG1       -0.2105
      3 C           0.8290    0.9080    0.0000 C.3     1  LIG1        0.1594
      4 N           0.0210    0.3250    0.0000 N.2     1  LIG1       -0.2523
      5 C           0.3290   -0.6210    0.0000 C.2     1  LIG1        0.0991
      6 C          -0.3040   -1.4080    0.0000 C.ar    1  LIG1        0.0191
      7 C           0.0580   -2.3460    0.0000 C.ar    1  LIG1        0.0015
      8 C          -0.5630   -3.1250    0.0000 C.ar    1  LIG1        0.0000
      9 C          -1.5630   -2.9580    0.0000 C.ar    1  LIG1        0.0000
     10 C          -1.9130   -2.0420    0.0000 C.ar    1  LIG1        0.0000
     11 C          -1.2920   -1.2540    0.0000 C.ar    1  LIG1        0.0015
     12 C           1.7040    1.4130    0.0000 C.3     1  LIG1        0.0430
     13 C           1.8580    2.3960    0.0000 C.3     1  LIG1        0.0037
     14 C           1.1750    3.1290    0.0000 C.3     1  LIG1        0.0001
     15 C           0.1790    3.0630    0.0000 C.3     1  LIG1        0.0001
     16 C          -0.3880    2.2290    0.0000 C.3     1  LIG1        0.0037
     17 C          -0.0960    1.2750    0.0000 C.3     1  LIG1        0.0430
     18 S           1.9080   -1.4670    0.0000 S.2     1  LIG1       -0.0316
@<TRIPOS>BOND
     1     1     2    1
     2     1     5    1
     3     1    18    2
     4     2     3    1
     5     3     4    1
     6     3    12    1
     7     3    17    1
     8     4     5    2
     9     5     6    1
    10     6     7   ar
    11     6    11   ar
    12     7     8   ar
    13     8     9   ar
    14     9    10   ar
    15    10    11   ar
    16    12    13    1
    17    13    14    1
    18    14    15    1
    19    15    16    1
    20    16    17    1
