@<TRIPOS>MOLECULE
36229_ChemDiv_C250-0033
 17 18 0 0 0
SMALL
GASTEIGER
Energy = 0

@<TRIPOS>ATOM
      1 C           0.4000    0.9630    0.0000 C.3     1  LIG1        0.1596
      2 N           1.1880    0.3710    0.0000 N.am    1  LIG1       -0.2105
      3 C           0.8710   -0.5790    0.0000 C.2     1  LIG1        0.1198
      4 C          -0.1080   -0.5750    0.0000 C.2     1  LIG1        0.0991
      5 N          -0.4250    0.3790    0.0000 N.2     1  LIG1       -0.2523
      6 C          -0.7420   -1.3500    0.0000 C.ar    1  LIG1        0.0191
      7 C          -0.3790   -2.2830    0.0000 C.ar    1  LIG1        0.0015
      8 C          -1.0040   -3.0670    0.0000 C.ar    1  LIG1        0.0000
      9 C          -2.0000   -2.9000    0.0000 C.ar    1  LIG1        0.0000
     10 C          -2.3580   -1.9790    0.0000 C.ar    1  LIG1        0.0000
     11 C          -1.7210   -1.1960    0.0000 C.ar    1  LIG1        0.0015
     12 S           1.4710   -1.4080    0.0000 S.2     1  LIG1       -0.0316
     13 C           1.2670    1.4580    0.0000 C.3     1  LIG1        0.0430
     14 C           1.4170    2.4540    0.0000 C.3     1  LIG1        0.0036
     15 C           2.3540    2.8170    0.0000 C.3     1  LIG1        0.0001
     16 C           0.6460    3.0710    0.0000 C.3     1  LIG1        0.0001
     17 C          -0.5290    1.3250    0.0000 C.3     1  LIG1        0.0467
@<TRIPOS>BOND
     1     1     2    1
     2     1     5    1
     3     1    13    1
     4     1    17    1
     5     2     3    1
     6     3     4    1
     7     3    12    2
     8     4     5    2
     9     4     6    1
    10     6     7   ar
    11     6    11   ar
    12     7     8   ar
    13     8     9   ar
    14     9    10   ar
    15    10    11   ar
    16    13    14    1
    17    14    15    1
    18    14    16    1
