@<TRIPOS>MOLECULE
36221_ChemDiv_G233-0125
 30 33 0 0 0
SMALL
GASTEIGER
Energy = 0

@<TRIPOS>ATOM
      1 S           1.2920    3.7420    0.0000 S.O2    1  LIG1        0.0298
      2 C           0.4290    3.2380    0.0000 C.ar    1  LIG1        0.1239
      3 C           0.4290    2.2380    0.0000 C.ar    1  LIG1        0.0697
      4 N           1.2920    1.7420    0.0000 N.pl3   1  LIG1       -0.2763
      5 C           2.1630    2.2250    0.0000 C.ar    1  LIG1        0.0697
      6 C           2.1630    3.2380    0.0000 C.ar    1  LIG1        0.1239
      7 C           3.0290    3.7380    0.0000 C.ar    1  LIG1        0.0200
      8 C           3.9040    3.2210    0.0000 C.ar    1  LIG1        0.0014
      9 C           3.9000    2.2250    0.0000 C.ar    1  LIG1        0.0014
     10 C           3.0250    1.7250    0.0000 C.ar    1  LIG1        0.0162
     11 C           1.2750    0.7330    0.0000 C.3     1  LIG1        0.1833
     12 C           0.4130    0.2330    0.0000 C.2     1  LIG1        0.2661
     13 N           0.4080   -0.7710    0.0000 N.am    1  LIG1       -0.1776
     14 C          -0.4630   -1.2630    0.0000 C.ar    1  LIG1        0.0795
     15 C          -1.3170   -0.7540    0.0000 C.ar    1  LIG1        0.0537
     16 C          -2.1880   -1.2460    0.0000 C.ar    1  LIG1        0.1431
     17 C          -2.1880   -2.2500    0.0000 C.ar    1  LIG1        0.0738
     18 C          -1.3250   -2.7500    0.0000 C.ar    1  LIG1        0.1431
     19 C          -0.4630   -2.2500    0.0000 C.ar    1  LIG1        0.0537
     20 O          -1.3170   -3.7460    0.0000 O.3     1  LIG1       -0.4713
     21 C          -0.4540   -4.2460    0.0000 C.3     1  LIG1        0.2525
     22 O          -3.0380   -0.7540    0.0000 O.3     1  LIG1       -0.4713
     23 C          -3.9080   -1.2460    0.0000 C.3     1  LIG1        0.2525
     24 O          -0.4540    0.7460    0.0000 O.2     1  LIG1       -0.2711
     25 C          -0.4330    1.7420    0.0000 C.ar    1  LIG1        0.0162
     26 C          -1.2960    2.2380    0.0000 C.ar    1  LIG1        0.0014
     27 C          -1.2960    3.2380    0.0000 C.ar    1  LIG1        0.0014
     28 C          -0.4330    3.7500    0.0000 C.ar    1  LIG1        0.0200
     29 O           2.1630    4.2460    0.0000 O.2     1  LIG1       -0.1642
     30 O           0.4290    4.2380    0.0000 O.2     1  LIG1       -0.1642
@<TRIPOS>BOND
     1     1     2    1
     2     1     6    1
     3     1    29    2
     4     1    30    2
     5     2     3   ar
     6     2    28   ar
     7     3     4    1
     8     3    25   ar
     9     4     5    1
    10     4    11    1
    11     5     6   ar
    12     5    10   ar
    13     6     7   ar
    14     7     8   ar
    15     8     9   ar
    16     9    10   ar
    17    11    12    1
    18    12    13   am
    19    12    24    2
    20    13    14    1
    21    14    15   ar
    22    14    19   ar
    23    15    16   ar
    24    16    17   ar
    25    16    22    1
    26    17    18   ar
    27    18    19   ar
    28    18    20    1
    29    20    21    1
    30    22    23    1
    31    25    26   ar
    32    26    27   ar
    33    27    28   ar
