@<TRIPOS>MOLECULE
36228_ChemDiv_C597-0109
 37 41 0 0 0
SMALL
GASTEIGER
Energy = 0

@<TRIPOS>ATOM
      1 S           1.4170    0.0250    0.0000 S.O2    1  LIG1        0.0772
      2 N           0.9130    0.9170    0.0000 N.3     1  LIG1       -0.0696
      3 C           1.4290    1.7790    0.0000 C.3     1  LIG1        0.1780
      4 C           0.9290    2.6580    0.0000 C.2     1  LIG1        0.2440
      5 N          -0.0790    2.6580    0.0000 N.am    1  LIG1       -0.2739
      6 C          -0.6210    3.4790    0.0000 C.3     1  LIG1        0.1196
      7 C          -1.5540    3.5130    0.0000 C.2     1  LIG1       -0.0089
      8 C          -2.0630    2.6330    0.0000 C.2     1  LIG1       -0.0231
      9 C          -1.5920    1.7960    0.0000 C.3     1  LIG1        0.0476
     10 C          -0.5880    1.7830    0.0000 C.3     1  LIG1        0.0984
     11 C          -2.9670    2.6420    0.0000 C.ar    1  LIG1       -0.0042
     12 C          -3.4580    3.5420    0.0000 C.ar    1  LIG1       -0.0003
     13 C          -4.4460    3.4960    0.0000 C.ar    1  LIG1       -0.0000
     14 C          -4.9540    2.6170    0.0000 C.ar    1  LIG1       -0.0000
     15 C          -4.4750    1.7790    0.0000 C.ar    1  LIG1       -0.0000
     16 C          -3.4750    1.7630    0.0000 C.ar    1  LIG1       -0.0003
     17 O           1.4540    3.5290    0.0000 O.2     1  LIG1       -0.2733
     18 C           2.4210    1.7630    0.0000 C.3     1  LIG1        0.0550
     19 C           2.9420    2.6250    0.0000 C.ar    1  LIG1       -0.0202
     20 C           3.9290    2.6000    0.0000 C.ar    1  LIG1       -0.0042
     21 C           4.4500    3.4540    0.0000 C.ar    1  LIG1       -0.0003
     22 C           3.9710    4.3290    0.0000 C.ar    1  LIG1       -0.0000
     23 C           2.9710    4.3460    0.0000 C.ar    1  LIG1       -0.0003
     24 C           2.4540    3.4960    0.0000 C.ar    1  LIG1       -0.0042
     25 C           1.9250   -0.8540    0.0000 C.ar    1  LIG1        0.1233
     26 C           2.9330   -0.8540    0.0000 C.ar    1  LIG1        0.0170
     27 C           3.4330   -1.7170    0.0000 C.ar    1  LIG1       -0.0050
     28 C           2.9330   -2.5880    0.0000 C.ar    1  LIG1        0.0695
     29 N           3.4380   -3.4580    0.0000 N.am    1  LIG1       -0.1795
     30 C           4.4500   -3.4670    0.0000 C.2     1  LIG1        0.2459
     31 O           4.9500   -4.3460    0.0000 O.2     1  LIG1       -0.2730
     32 C           4.9500   -2.5960    0.0000 C.3     1  LIG1        0.0919
     33 C           4.4420   -1.7210    0.0000 C.3     1  LIG1        0.0373
     34 C           1.9330   -2.5960    0.0000 C.ar    1  LIG1        0.0176
     35 C           1.4170   -1.7170    0.0000 C.ar    1  LIG1        0.0213
     36 O           0.5380   -0.4790    0.0000 O.2     1  LIG1       -0.1516
     37 O           2.2920    0.5420    0.0000 O.2     1  LIG1       -0.1516
@<TRIPOS>BOND
     1     1     2    1
     2     1    25    1
     3     1    36    2
     4     1    37    2
     5     2     3    1
     6     3     4    1
     7     3    18    1
     8     4     5   am
     9     4    17    2
    10     5     6    1
    11     5    10    1
    12     6     7    1
    13     7     8    2
    14     8     9    1
    15     8    11    1
    16     9    10    1
    17    11    12   ar
    18    11    16   ar
    19    12    13   ar
    20    13    14   ar
    21    14    15   ar
    22    15    16   ar
    23    18    19    1
    24    19    20   ar
    25    19    24   ar
    26    20    21   ar
    27    21    22   ar
    28    22    23   ar
    29    23    24   ar
    30    25    26   ar
    31    25    35   ar
    32    26    27   ar
    33    27    28   ar
    34    27    33    1
    35    28    29    1
    36    28    34   ar
    37    29    30   am
    38    30    31    2
    39    30    32    1
    40    32    33    1
    41    34    35   ar
