@<TRIPOS>MOLECULE
36235_ChemDiv_C250-0272
 16 17 0 0 0
SMALL
GASTEIGER
Energy = 0

@<TRIPOS>ATOM
      1 C           0.6330   -1.2460    0.0000 C.2     1  LIG1        0.1198
      2 N           1.5670   -1.5210    0.0000 N.am    1  LIG1       -0.2105
      3 C           2.2170   -0.7080    0.0000 C.3     1  LIG1        0.1597
      4 N           1.5920    0.0920    0.0000 N.2     1  LIG1       -0.2523
      5 C           0.6290   -0.2420    0.0000 C.2     1  LIG1        0.0992
      6 C          -0.2330    0.2460    0.0000 C.ar    1  LIG1        0.0200
      7 C          -1.1000   -0.2500    0.0000 C.ar    1  LIG1        0.0138
      8 C          -1.9630    0.2460    0.0000 C.ar    1  LIG1        0.0682
      9 C          -1.9630    1.2420    0.0000 C.ar    1  LIG1        0.0682
     10 C          -1.1000    1.7460    0.0000 C.ar    1  LIG1        0.0123
     11 C          -0.2330    1.2500    0.0000 C.ar    1  LIG1        0.0025
     12 CL         -2.8210    1.7460    0.0000 Cl      1  LIG1       -0.0814
     13 CL         -2.8210   -0.2500    0.0000 Cl      1  LIG1       -0.0814
     14 C           2.8170    0.0790    0.0000 C.3     1  LIG1        0.0467
     15 C           2.7830   -1.5210    0.0000 C.3     1  LIG1        0.0467
     16 S          -0.2250   -1.7420    0.0000 S.2     1  LIG1       -0.0316
@<TRIPOS>BOND
     1     1     2    1
     2     1     5    1
     3     1    16    2
     4     2     3    1
     5     3     4    1
     6     3    14    1
     7     3    15    1
     8     4     5    2
     9     5     6    1
    10     6     7   ar
    11     6    11   ar
    12     7     8   ar
    13     8     9   ar
    14     8    13    1
    15     9    10   ar
    16     9    12    1
    17    10    11   ar
