@<TRIPOS>MOLECULE
36233_ChemDiv_C250-0269
 15 16 0 0 0
SMALL
GASTEIGER
Energy = 0

@<TRIPOS>ATOM
      1 C           0.7080   -1.2500    0.0000 C.2     1  LIG1        0.1198
      2 N           1.6710   -1.5540    0.0000 N.am    1  LIG1       -0.2105
      3 C           2.2500   -0.7380    0.0000 C.3     1  LIG1        0.1597
      4 N           1.6630    0.0670    0.0000 N.2     1  LIG1       -0.2523
      5 C           0.7080   -0.2420    0.0000 C.2     1  LIG1        0.0991
      6 C          -0.1540    0.2460    0.0000 C.ar    1  LIG1        0.0191
      7 C          -0.1540    1.2580    0.0000 C.ar    1  LIG1        0.0020
      8 C          -1.0210    1.7540    0.0000 C.ar    1  LIG1        0.0067
      9 C          -1.8880    1.2460    0.0000 C.ar    1  LIG1        0.0346
     10 C          -1.8880    0.2460    0.0000 C.ar    1  LIG1        0.0067
     11 C          -1.0210   -0.2540    0.0000 C.ar    1  LIG1        0.0020
     12 BR         -2.7500    1.7460    0.0000 Br      1  LIG1       -0.0490
     13 C           2.7460   -1.6000    0.0000 C.3     1  LIG1        0.0467
     14 C           2.7460    0.1250    0.0000 C.3     1  LIG1        0.0467
     15 S          -0.1540   -1.7500    0.0000 S.2     1  LIG1       -0.0316
@<TRIPOS>BOND
     1     1     2    1
     2     1     5    1
     3     1    15    2
     4     2     3    1
     5     3     4    1
     6     3    13    1
     7     3    14    1
     8     4     5    2
     9     5     6    1
    10     6     7   ar
    11     6    11   ar
    12     7     8   ar
    13     8     9   ar
    14     9    10   ar
    15     9    12    1
    16    10    11   ar
