@<TRIPOS>MOLECULE
36234_ChemDiv_C224-0585
 28 32 0 0 0
SMALL
GASTEIGER
Energy = 0

@<TRIPOS>ATOM
      1 S           0.0830    0.4710    0.0000 S.O2    1  LIG1        0.0633
      2 N          -0.7830   -0.0250    0.0000 N.3     1  LIG1       -0.1551
      3 C          -1.5540    0.3250    0.0000 C.3     1  LIG1        0.1016
      4 C          -2.8330   -0.1040    0.0000 C.3     1  LIG1        0.0562
      5 C          -3.6790   -0.5040    0.0000 C.ar    1  LIG1        0.0409
      6 N          -3.7750   -1.4460    0.0000 N.ar    1  LIG1       -0.2991
      7 C          -4.6330   -1.8580    0.0000 C.ar    1  LIG1        0.2607
      8 C          -5.4080   -1.3130    0.0000 C.ar    1  LIG1        0.0608
      9 C          -5.3290   -0.3580    0.0000 C.ar    1  LIG1        0.0060
     10 C          -4.4670    0.0500    0.0000 C.ar    1  LIG1        0.0130
     11 O          -4.7130   -2.7960    0.0000 O.2     1  LIG1       -0.2670
     12 C          -2.9880   -1.9920    0.0000 C.3     1  LIG1        0.1101
     13 C          -2.1460   -1.5960    0.0000 C.3     1  LIG1        0.0409
     14 C          -0.8710   -1.0710    0.0000 C.3     1  LIG1        0.0977
     15 C          -2.0670   -0.6420    0.0000 C.3     1  LIG1        0.0107
     16 C           1.2080    1.2000    0.0000 C.ar    1  LIG1        0.1220
     17 C           2.0710    0.7290    0.0000 C.ar    1  LIG1        0.0169
     18 C           2.9040    1.2420    0.0000 C.ar    1  LIG1       -0.0050
     19 C           2.8750    2.2250    0.0000 C.ar    1  LIG1        0.0695
     20 N           3.7040    2.7380    0.0000 N.am    1  LIG1       -0.1795
     21 C           4.5670    2.2790    0.0000 C.2     1  LIG1        0.2459
     22 O           5.4040    2.8000    0.0000 O.2     1  LIG1       -0.2730
     23 C           4.6000    1.3000    0.0000 C.3     1  LIG1        0.0919
     24 C           3.7670    0.7920    0.0000 C.3     1  LIG1        0.0373
     25 C           2.0080    2.6750    0.0000 C.ar    1  LIG1        0.0176
     26 C           1.1790    2.1630    0.0000 C.ar    1  LIG1        0.0212
     27 O          -0.3420    1.2920    0.0000 O.2     1  LIG1       -0.1528
     28 O           0.6040   -0.3880    0.0000 O.2     1  LIG1       -0.1528
@<TRIPOS>BOND
     1     1     2    1
     2     1    16    1
     3     1    27    2
     4     1    28    2
     5     2     3    1
     6     2    14    1
     7     3     4    1
     8     4     5    1
     9     4    15    1
    10     5     6   ar
    11     5    10   ar
    12     6     7   ar
    13     6    12    1
    14     7     8   ar
    15     7    11    2
    16     8     9   ar
    17     9    10   ar
    18    12    13    1
    19    13    14    1
    20    13    15    1
    21    16    17   ar
    22    16    26   ar
    23    17    18   ar
    24    18    19   ar
    25    18    24    1
    26    19    20    1
    27    19    25   ar
    28    20    21   am
    29    21    22    2
    30    21    23    1
    31    23    24    1
    32    25    26   ar
