@<TRIPOS>MOLECULE
36239_ChemDiv_C250-0289
 22 24 0 0 0
SMALL
GASTEIGER
Energy = 0

@<TRIPOS>ATOM
      1 C          -0.1040   -1.9130    0.0000 C.2     1  LIG1        0.1198
      2 C          -0.1130   -0.8830    0.0000 C.2     1  LIG1        0.0993
      3 N           0.8710   -0.5460    0.0000 N.2     1  LIG1       -0.2523
      4 C           1.4210   -1.3830    0.0000 C.3     1  LIG1        0.1594
      5 N           0.8460   -2.1960    0.0000 N.am    1  LIG1       -0.2105
      6 C           1.8710   -0.5670    0.0000 C.3     1  LIG1        0.0430
      7 C           2.8380   -0.3710    0.0000 C.3     1  LIG1        0.0037
      8 C           3.6000   -1.0830    0.0000 C.3     1  LIG1        0.0001
      9 C           3.5080   -2.1080    0.0000 C.3     1  LIG1        0.0001
     10 C           2.6630   -2.6250    0.0000 C.3     1  LIG1        0.0037
     11 C           1.8830   -2.2920    0.0000 C.3     1  LIG1        0.0430
     12 C          -0.9880   -0.3880    0.0000 C.ar    1  LIG1        0.0251
     13 C          -0.9880    0.6290    0.0000 C.ar    1  LIG1        0.0386
     14 C          -1.8670    1.1420    0.0000 C.ar    1  LIG1        0.1418
     15 C          -2.7420    0.6290    0.0000 C.ar    1  LIG1        0.0737
     16 C          -2.7420   -0.3880    0.0000 C.ar    1  LIG1        0.1418
     17 C          -1.8670   -0.8960    0.0000 C.ar    1  LIG1        0.0386
     18 O          -3.6040   -0.8830    0.0000 O.3     1  LIG1       -0.4713
     19 C          -3.6040   -1.8830    0.0000 C.3     1  LIG1        0.2525
     20 O          -1.8670    2.1380    0.0000 O.3     1  LIG1       -0.4713
     21 C          -2.7380    2.6250    0.0000 C.3     1  LIG1        0.2525
     22 S          -0.9830   -2.4130    0.0000 S.2     1  LIG1       -0.0316
@<TRIPOS>BOND
     1     1     2    1
     2     1     5    1
     3     1    22    2
     4     2     3    2
     5     2    12    1
     6     3     4    1
     7     4     5    1
     8     4     6    1
     9     4    11    1
    10     6     7    1
    11     7     8    1
    12     8     9    1
    13     9    10    1
    14    10    11    1
    15    12    13   ar
    16    12    17   ar
    17    13    14   ar
    18    14    15   ar
    19    14    20    1
    20    15    16   ar
    21    16    17   ar
    22    16    18    1
    23    18    19    1
    24    20    21    1
