@<TRIPOS>MOLECULE
36232_ChemDiv_K906-2078
 36 40 0 0 0
SMALL
GASTEIGER
Energy = 0

@<TRIPOS>ATOM
      1 S           0.8670    0.3750    0.0000 S.O2    1  LIG1        0.0772
      2 N           1.7420    0.8790    0.0000 N.3     1  LIG1       -0.0695
      3 C           2.6000    0.3710    0.0000 C.3     1  LIG1        0.1795
      4 C           3.4670    0.8710    0.0000 C.2     1  LIG1        0.2594
      5 N           3.4670    1.8710    0.0000 N.am    1  LIG1       -0.2060
      6 C           2.6000    2.3750    0.0000 C.3     1  LIG1        0.0954
      7 C           2.7540    3.3670    0.0000 C.3     1  LIG1        0.0217
      8 C           2.0670    4.0830    0.0000 C.3     1  LIG1        0.0018
      9 C           1.0830    4.0130    0.0000 C.3     1  LIG1        0.0001
     10 C           0.5130    3.1920    0.0000 C.3     1  LIG1        0.0001
     11 C           0.8040    2.2380    0.0000 C.3     1  LIG1        0.0018
     12 C           1.7420    1.8710    0.0000 C.3     1  LIG1        0.0217
     13 O           4.3380    0.3710    0.0000 O.2     1  LIG1       -0.2718
     14 C           2.6000   -0.6250    0.0000 C.3     1  LIG1        0.0567
     15 C           1.7330   -1.1290    0.0000 C.ar    1  LIG1        0.0003
     16 C           0.7920   -0.8210    0.0000 C.ar    1  LIG1        0.0946
     17 N           0.2000   -1.6330    0.0000 N.ar    1  LIG1       -0.2442
     18 C           0.7920   -2.4420    0.0000 C.ar    1  LIG1        0.0810
     19 C           1.7420   -2.1330    0.0000 C.ar    1  LIG1        0.0152
     20 C           2.4790   -2.8040    0.0000 C.ar    1  LIG1        0.0012
     21 C           2.2670   -3.7710    0.0000 C.ar    1  LIG1        0.0001
     22 C           1.3170   -4.0830    0.0000 C.ar    1  LIG1        0.0015
     23 C           0.5790   -3.4170    0.0000 C.ar    1  LIG1        0.0191
     24 C          -0.0040   -0.1250    0.0000 C.ar    1  LIG1        0.1233
     25 C          -0.8710    0.3750    0.0000 C.ar    1  LIG1        0.0170
     26 C          -1.7330   -0.1210    0.0000 C.ar    1  LIG1       -0.0050
     27 C          -1.7330   -1.1250    0.0000 C.ar    1  LIG1        0.0695
     28 N          -2.5920   -1.6210    0.0000 N.am    1  LIG1       -0.1795
     29 C          -3.4710   -1.1210    0.0000 C.2     1  LIG1        0.2459
     30 O          -4.3420   -1.6330    0.0000 O.2     1  LIG1       -0.2730
     31 C          -3.4710   -0.1210    0.0000 C.3     1  LIG1        0.0919
     32 C          -2.5920    0.3750    0.0000 C.3     1  LIG1        0.0373
     33 C          -0.8710   -1.6250    0.0000 C.ar    1  LIG1        0.0176
     34 C          -0.0040   -1.1250    0.0000 C.ar    1  LIG1        0.0213
     35 O           1.3670   -0.5000    0.0000 O.2     1  LIG1       -0.1516
     36 O           0.3670    1.2500    0.0000 O.2     1  LIG1       -0.1516
@<TRIPOS>BOND
     1     1     2    1
     2     1    24    1
     3     1    35    2
     4     1    36    2
     5     2     3    1
     6     3     4    1
     7     3    14    1
     8     4     5   am
     9     4    13    2
    10     5     6    1
    11     6     7    1
    12     6    12    1
    13     7     8    1
    14     8     9    1
    15     9    10    1
    16    10    11    1
    17    11    12    1
    18    14    15    1
    19    15    16   ar
    20    15    19   ar
    21    16    17   ar
    22    17    18   ar
    23    18    19   ar
    24    18    23   ar
    25    19    20   ar
    26    20    21   ar
    27    21    22   ar
    28    22    23   ar
    29    24    25   ar
    30    24    34   ar
    31    25    26   ar
    32    26    27   ar
    33    26    32    1
    34    27    28    1
    35    27    33   ar
    36    28    29   am
    37    29    30    2
    38    29    31    1
    39    31    32    1
    40    33    34   ar
