@<TRIPOS>MOLECULE
36231_ChemDiv_C250-0268
 19 21 0 0 0
SMALL
GASTEIGER
Energy = 0

@<TRIPOS>ATOM
      1 C          -0.5380   -1.2540    0.0000 C.2     1  LIG1        0.1198
      2 N           0.4250   -1.5580    0.0000 N.am    1  LIG1       -0.2105
      3 C           1.0080   -0.7380    0.0000 C.3     1  LIG1        0.1594
      4 N           0.4170    0.0670    0.0000 N.2     1  LIG1       -0.2523
      5 C          -0.5380   -0.2420    0.0000 C.2     1  LIG1        0.0991
      6 C          -1.4040    0.2460    0.0000 C.ar    1  LIG1        0.0191
      7 C          -1.4040    1.2580    0.0000 C.ar    1  LIG1        0.0020
      8 C          -2.2710    1.7580    0.0000 C.ar    1  LIG1        0.0067
      9 C          -3.1330    1.2460    0.0000 C.ar    1  LIG1        0.0346
     10 C          -3.1330    0.2460    0.0000 C.ar    1  LIG1        0.0067
     11 C          -2.2710   -0.2540    0.0000 C.ar    1  LIG1        0.0020
     12 BR         -4.0000    1.7460    0.0000 Br      1  LIG1       -0.0490
     13 C           1.5040   -1.6040    0.0000 C.3     1  LIG1        0.0430
     14 C           2.4920   -1.6040    0.0000 C.3     1  LIG1        0.0037
     15 C           2.9920   -0.7420    0.0000 C.3     1  LIG1        0.0002
     16 C           2.4920    0.1210    0.0000 C.3     1  LIG1        0.0037
     17 C           1.5040    0.1250    0.0000 C.3     1  LIG1        0.0430
     18 C           3.9960   -0.7420    0.0000 C.3     1  LIG1        0.0000
     19 S          -1.4040   -1.7540    0.0000 S.2     1  LIG1       -0.0316
@<TRIPOS>BOND
     1     1     2    1
     2     1     5    1
     3     1    19    2
     4     2     3    1
     5     3     4    1
     6     3    13    1
     7     3    17    1
     8     4     5    2
     9     5     6    1
    10     6     7   ar
    11     6    11   ar
    12     7     8   ar
    13     8     9   ar
    14     9    10   ar
    15     9    12    1
    16    10    11   ar
    17    13    14    1
    18    14    15    1
    19    15    16    1
    20    15    18    1
    21    16    17    1
