@<TRIPOS>MOLECULE
36230_ChemDiv_C597-0174
 37 40 0 0 0
SMALL
GASTEIGER
Energy = 0

@<TRIPOS>ATOM
      1 S           0.7580    0.0130    0.0000 S.O2    1  LIG1        0.0772
      2 N           0.2580    0.8960    0.0000 N.3     1  LIG1       -0.0696
      3 C           0.7670    1.7500    0.0000 C.3     1  LIG1        0.1780
      4 C           0.2750    2.6210    0.0000 C.2     1  LIG1        0.2440
      5 N          -0.7250    2.6210    0.0000 N.am    1  LIG1       -0.2742
      6 C          -1.2380    3.4920    0.0000 C.3     1  LIG1        0.1202
      7 C          -2.2420    3.4630    0.0000 C.ar    1  LIG1       -0.0023
      8 C          -2.7710    4.3250    0.0000 C.ar    1  LIG1       -0.0026
      9 C          -3.7790    4.3000    0.0000 C.ar    1  LIG1       -0.0003
     10 C          -4.2670    3.4330    0.0000 C.ar    1  LIG1       -0.0000
     11 C          -3.7380    2.5710    0.0000 C.ar    1  LIG1       -0.0003
     12 C          -2.7250    2.5960    0.0000 C.ar    1  LIG1       -0.0026
     13 C          -1.2380    1.7500    0.0000 C.3     1  LIG1        0.0938
     14 C          -0.7630    0.8750    0.0000 C.3     1  LIG1        0.0215
     15 C          -1.2500   -0.0040    0.0000 C.3     1  LIG1        0.0018
     16 C          -0.7790   -0.8830    0.0000 C.3     1  LIG1        0.0001
     17 O           0.7960    3.4880    0.0000 O.2     1  LIG1       -0.2733
     18 C           1.7540    1.7330    0.0000 C.3     1  LIG1        0.0550
     19 C           2.2710    2.5880    0.0000 C.ar    1  LIG1       -0.0202
     20 C           1.7880    3.4540    0.0000 C.ar    1  LIG1       -0.0042
     21 C           2.3000    4.2960    0.0000 C.ar    1  LIG1       -0.0003
     22 C           3.2920    4.2790    0.0000 C.ar    1  LIG1       -0.0000
     23 C           3.7670    3.4080    0.0000 C.ar    1  LIG1       -0.0003
     24 C           3.2500    2.5630    0.0000 C.ar    1  LIG1       -0.0042
     25 C           1.2630   -0.8630    0.0000 C.ar    1  LIG1        0.1233
     26 C           2.2630   -0.8630    0.0000 C.ar    1  LIG1        0.0170
     27 C           2.7580   -1.7170    0.0000 C.ar    1  LIG1       -0.0050
     28 C           2.2630   -2.5790    0.0000 C.ar    1  LIG1        0.0695
     29 N           2.7630   -3.4460    0.0000 N.am    1  LIG1       -0.1795
     30 C           3.7670   -3.4500    0.0000 C.2     1  LIG1        0.2459
     31 O           4.2630   -4.3250    0.0000 O.2     1  LIG1       -0.2730
     32 C           4.2630   -2.5920    0.0000 C.3     1  LIG1        0.0919
     33 C           3.7580   -1.7210    0.0000 C.3     1  LIG1        0.0373
     34 C           1.2710   -2.5880    0.0000 C.ar    1  LIG1        0.0176
     35 C           0.7580   -1.7170    0.0000 C.ar    1  LIG1        0.0213
     36 O          -0.1130   -0.4880    0.0000 O.2     1  LIG1       -0.1516
     37 O           1.6250    0.5210    0.0000 O.2     1  LIG1       -0.1516
@<TRIPOS>BOND
     1     1     2    1
     2     1    25    1
     3     1    36    2
     4     1    37    2
     5     2     3    1
     6     3     4    1
     7     3    18    1
     8     4     5   am
     9     4    17    2
    10     5     6    1
    11     5    13    1
    12     6     7    1
    13     7     8   ar
    14     7    12   ar
    15     8     9   ar
    16     9    10   ar
    17    10    11   ar
    18    11    12   ar
    19    13    14    1
    20    14    15    1
    21    15    16    1
    22    18    19    1
    23    19    20   ar
    24    19    24   ar
    25    20    21   ar
    26    21    22   ar
    27    22    23   ar
    28    23    24   ar
    29    25    26   ar
    30    25    35   ar
    31    26    27   ar
    32    27    28   ar
    33    27    33    1
    34    28    29    1
    35    28    34   ar
    36    29    30   am
    37    30    31    2
    38    30    32    1
    39    32    33    1
    40    34    35   ar
