@<TRIPOS>MOLECULE
36236_ChemDiv_C224-1275
 27 31 0 0 0
SMALL
GASTEIGER
Energy = 0

@<TRIPOS>ATOM
      1 S           1.4170   -0.0790    0.0000 S.O2    1  LIG1        0.0647
      2 N           0.5500   -0.5790    0.0000 N.3     1  LIG1       -0.1550
      3 C          -0.2210   -0.2250    0.0000 C.3     1  LIG1        0.1016
      4 C          -1.5080   -0.6540    0.0000 C.3     1  LIG1        0.0562
      5 C          -2.3540   -1.0580    0.0000 C.ar    1  LIG1        0.0409
      6 N          -2.4460   -2.0000    0.0000 N.ar    1  LIG1       -0.2991
      7 C          -3.3080   -2.4130    0.0000 C.ar    1  LIG1        0.2607
      8 C          -4.0830   -1.8670    0.0000 C.ar    1  LIG1        0.0608
      9 C          -4.0080   -0.9130    0.0000 C.ar    1  LIG1        0.0060
     10 C          -3.1420   -0.5040    0.0000 C.ar    1  LIG1        0.0130
     11 O          -3.3880   -3.3540    0.0000 O.2     1  LIG1       -0.2670
     12 C          -1.6580   -2.5500    0.0000 C.3     1  LIG1        0.1101
     13 C          -0.8130   -2.1500    0.0000 C.3     1  LIG1        0.0409
     14 C           0.4580   -1.6290    0.0000 C.3     1  LIG1        0.0977
     15 C          -0.7380   -1.1960    0.0000 C.3     1  LIG1        0.0107
     16 C           2.3080    0.3750    0.0000 C.ar    1  LIG1        0.1397
     17 C           2.3540    1.3540    0.0000 C.ar    1  LIG1        0.0998
     18 N           1.5210    1.9000    0.0000 N.ar    1  LIG1       -0.2425
     19 C           1.5670    2.9000    0.0000 C.ar    1  LIG1        0.0989
     20 C           2.4540    3.3580    0.0000 C.ar    1  LIG1        0.0207
     21 C           3.2920    2.8080    0.0000 C.ar    1  LIG1        0.0031
     22 C           3.2460    1.8210    0.0000 C.ar    1  LIG1        0.0190
     23 C           4.0790    1.2790    0.0000 C.ar    1  LIG1        0.0016
     24 C           4.0330    0.2830    0.0000 C.ar    1  LIG1        0.0015
     25 C           3.1500   -0.1710    0.0000 C.ar    1  LIG1        0.0215
     26 O           0.9290    0.8080    0.0000 O.2     1  LIG1       -0.1527
     27 O           1.8250   -0.9880    0.0000 O.2     1  LIG1       -0.1527
@<TRIPOS>BOND
     1     1     2    1
     2     1    16    1
     3     1    26    2
     4     1    27    2
     5     2     3    1
     6     2    14    1
     7     3     4    1
     8     4     5    1
     9     4    15    1
    10     5     6   ar
    11     5    10   ar
    12     6     7   ar
    13     6    12    1
    14     7     8   ar
    15     7    11    2
    16     8     9   ar
    17     9    10   ar
    18    12    13    1
    19    13    14    1
    20    13    15    1
    21    16    17   ar
    22    16    25   ar
    23    17    18   ar
    24    17    22   ar
    25    18    19   ar
    26    19    20   ar
    27    20    21   ar
    28    21    22   ar
    29    22    23   ar
    30    23    24   ar
    31    24    25   ar
