@<TRIPOS>MOLECULE
36238_ChemDiv_C261-0236
 32 37 0 0 0
SMALL
GASTEIGER
Energy = 0

@<TRIPOS>ATOM
      1 S          -0.8130   -0.8670    0.0000 S.O2    1  LIG1        0.0633
      2 N          -1.7040   -0.4670    0.0000 N.3     1  LIG1       -0.1551
      3 C          -1.9040    0.3500    0.0000 C.3     1  LIG1        0.1016
      4 C          -3.0580    1.0920    0.0000 C.3     1  LIG1        0.0562
      5 C          -3.9130    1.5000    0.0000 C.ar    1  LIG1        0.0409
      6 N          -4.7000    0.9630    0.0000 N.ar    1  LIG1       -0.2991
      7 C          -5.5460    1.3710    0.0000 C.ar    1  LIG1        0.2607
      8 C          -5.6210    2.3250    0.0000 C.ar    1  LIG1        0.0608
      9 C          -4.8380    2.8670    0.0000 C.ar    1  LIG1        0.0060
     10 C          -3.9790    2.4420    0.0000 C.ar    1  LIG1        0.0130
     11 O          -6.3290    0.8420    0.0000 O.2     1  LIG1       -0.2670
     12 C          -4.6250    0.0250    0.0000 C.3     1  LIG1        0.1101
     13 C          -3.7670   -0.3960    0.0000 C.3     1  LIG1        0.0409
     14 C          -2.5670   -1.0580    0.0000 C.3     1  LIG1        0.0977
     15 C          -2.9790    0.1380    0.0000 C.3     1  LIG1        0.0107
     16 C           0.0630   -1.3670    0.0000 C.ar    1  LIG1        0.1238
     17 C           0.9290   -0.8670    0.0000 C.ar    1  LIG1        0.0406
     18 C           1.7920   -1.3670    0.0000 C.ar    1  LIG1        0.1019
     19 N           2.7420   -1.0580    0.0000 N.ar    1  LIG1       -0.2250
     20 C           3.3250   -1.8670    0.0000 C.ar    1  LIG1        0.1623
     21 N           2.7420   -2.6670    0.0000 N.ar    1  LIG1       -0.2251
     22 C           1.7920   -2.3630    0.0000 C.ar    1  LIG1        0.1007
     23 C           0.9290   -2.8630    0.0000 C.ar    1  LIG1        0.0221
     24 C           0.0630   -2.3630    0.0000 C.ar    1  LIG1        0.0216
     25 C           4.3250   -1.8210    0.0000 C.ar    1  LIG1        0.0358
     26 C           4.7960   -0.9380    0.0000 C.ar    1  LIG1        0.0030
     27 C           5.7920   -0.8960    0.0000 C.ar    1  LIG1        0.0001
     28 C           6.3290   -1.7460    0.0000 C.ar    1  LIG1        0.0000
     29 C           5.8580   -2.6210    0.0000 C.ar    1  LIG1        0.0001
     30 C           4.8630   -2.6670    0.0000 C.ar    1  LIG1        0.0030
     31 O          -1.3130   -1.7380    0.0000 O.2     1  LIG1       -0.1528
     32 O          -0.3130    0.0130    0.0000 O.2     1  LIG1       -0.1528
@<TRIPOS>BOND
     1     1     2    1
     2     1    16    1
     3     1    31    2
     4     1    32    2
     5     2     3    1
     6     2    14    1
     7     3     4    1
     8     4     5    1
     9     4    15    1
    10     5     6   ar
    11     5    10   ar
    12     6     7   ar
    13     6    12    1
    14     7     8   ar
    15     7    11    2
    16     8     9   ar
    17     9    10   ar
    18    12    13    1
    19    13    14    1
    20    13    15    1
    21    16    17   ar
    22    16    24   ar
    23    17    18   ar
    24    18    19   ar
    25    18    22   ar
    26    19    20   ar
    27    20    21   ar
    28    20    25    1
    29    21    22   ar
    30    22    23   ar
    31    23    24   ar
    32    25    26   ar
    33    25    30   ar
    34    26    27   ar
    35    27    28   ar
    36    28    29   ar
    37    29    30   ar
