@<TRIPOS>MOLECULE
36237_ChemDiv_C250-0286
 20 22 0 0 0
SMALL
GASTEIGER
Energy = 0

@<TRIPOS>ATOM
      1 C           0.1460   -1.9920    0.0000 C.2     1  LIG1        0.1198
      2 C           0.1380   -0.9830    0.0000 C.2     1  LIG1        0.0993
      3 N           1.1420   -0.6000    0.0000 N.2     1  LIG1       -0.2523
      4 C           1.7330   -1.4330    0.0000 C.3     1  LIG1        0.1594
      5 N           1.0540   -2.2170    0.0000 N.am    1  LIG1       -0.2105
      6 C           2.3830   -0.6670    0.0000 C.3     1  LIG1        0.0430
      7 C           3.3040   -1.0540    0.0000 C.3     1  LIG1        0.0038
      8 C           3.2290   -2.0420    0.0000 C.3     1  LIG1        0.0038
      9 C           2.2500   -2.2790    0.0000 C.3     1  LIG1        0.0430
     10 C          -0.7250   -0.4960    0.0000 C.ar    1  LIG1        0.0251
     11 C          -0.7250    0.5130    0.0000 C.ar    1  LIG1        0.0386
     12 C          -1.5880    1.0080    0.0000 C.ar    1  LIG1        0.1418
     13 C          -2.4460    0.5000    0.0000 C.ar    1  LIG1        0.0737
     14 C          -2.4460   -0.4960    0.0000 C.ar    1  LIG1        0.1418
     15 C          -1.5880   -0.9920    0.0000 C.ar    1  LIG1        0.0386
     16 O          -3.3080   -0.9830    0.0000 O.3     1  LIG1       -0.4713
     17 C          -3.3080   -1.9790    0.0000 C.3     1  LIG1        0.2525
     18 O          -1.5880    1.9960    0.0000 O.3     1  LIG1       -0.4713
     19 C          -2.4460    2.4920    0.0000 C.3     1  LIG1        0.2525
     20 S          -0.7130   -2.4880    0.0000 S.2     1  LIG1       -0.0316
@<TRIPOS>BOND
     1     1     2    1
     2     1     5    1
     3     1    20    2
     4     2     3    2
     5     2    10    1
     6     3     4    1
     7     4     5    1
     8     4     6    1
     9     4     9    1
    10     6     7    1
    11     7     8    1
    12     8     9    1
    13    10    11   ar
    14    10    15   ar
    15    11    12   ar
    16    12    13   ar
    17    12    18    1
    18    13    14   ar
    19    14    15   ar
    20    14    16    1
    21    16    17    1
    22    18    19    1
