@<TRIPOS>MOLECULE
36246_ChemDiv_K784-7081
 36 39 0 0 0
SMALL
GASTEIGER
Energy = 0

@<TRIPOS>ATOM
      1 S          -0.8670    3.5710    0.0000 S.O2    1  LIG1       -0.0036
      2 C          -1.7290    3.0710    0.0000 C.3     1  LIG1        0.1820
      3 C          -1.7290    2.0710    0.0000 C.3     1  LIG1        0.1937
      4 C          -0.8580    1.5710    0.0000 C.2     1  LIG1        0.2671
      5 N          -0.8580    0.5630    0.0000 N.am    1  LIG1       -0.1764
      6 C          -1.7210    0.0630    0.0000 C.ar    1  LIG1        0.0883
      7 C          -2.5960    0.5630    0.0000 C.ar    1  LIG1        0.0811
      8 N          -2.6000    1.5630    0.0000 N.pl3   1  LIG1       -0.2269
      9 C          -3.4580    0.0630    0.0000 C.ar    1  LIG1        0.0176
     10 C          -3.4580   -0.9460    0.0000 C.ar    1  LIG1        0.0060
     11 C          -2.5960   -1.4460    0.0000 C.ar    1  LIG1        0.0564
     12 C          -2.5830   -2.4460    0.0000 C.2     1  LIG1        0.2648
     13 O          -3.4580   -2.9460    0.0000 O.2     1  LIG1       -0.2684
     14 N          -1.7210   -2.9460    0.0000 N.am    1  LIG1       -0.2014
     15 C          -0.8580   -2.4460    0.0000 C.3     1  LIG1        0.1216
     16 C           0.0080   -2.9460    0.0000 C.3     1  LIG1        0.0861
     17 C           0.8710   -2.4460    0.0000 C.3     1  LIG1        0.1401
     18 N           1.7380   -2.9420    0.0000 N.4     1  LIG1        0.3730
     19 C           2.5920   -2.4290    0.0000 C.3     1  LIG1        0.0871
     20 C           2.5920   -1.4290    0.0000 C.3     1  LIG1        0.0626
     21 C           3.4540   -2.9330    0.0000 C.3     1  LIG1        0.0569
     22 C           3.4540   -3.9330    0.0000 C.3     1  LIG1        0.0120
     23 C           2.5920   -4.4330    0.0000 C.3     1  LIG1        0.0629
     24 C           1.7380   -3.9330    0.0000 C.3     1  LIG1        0.1383
     25 C          -1.7210   -0.9460    0.0000 C.ar    1  LIG1        0.0225
     26 O           0.0130    2.0710    0.0000 O.2     1  LIG1       -0.2711
     27 O          -1.3670    4.4330    0.0000 O.2     1  LIG1       -0.1726
     28 O          -0.3670    2.7080    0.0000 O.2     1  LIG1       -0.1726
     29 C           0.0130    4.0540    0.0000 C.3     1  LIG1        0.1772
     30 C           0.8790    3.5580    0.0000 C.ar    1  LIG1        0.0018
     31 C           1.7380    4.0420    0.0000 C.ar    1  LIG1        0.0041
     32 C           2.5920    3.5580    0.0000 C.ar    1  LIG1        0.0343
     33 BR          3.4540    4.0540    0.0000 Br      1  LIG1       -0.0490
     34 C           2.6000    2.5460    0.0000 C.ar    1  LIG1        0.0067
     35 C           1.7250    2.0580    0.0000 C.ar    1  LIG1        0.0002
     36 C           0.8710    2.5580    0.0000 C.ar    1  LIG1       -0.0025
@<TRIPOS>BOND
     1     1     2    1
     2     1    27    2
     3     1    28    2
     4     1    29    1
     5     2     3    1
     6     3     4    1
     7     3     8    1
     8     4     5   am
     9     4    26    2
    10     5     6    1
    11     6     7   ar
    12     6    25   ar
    13     7     8    1
    14     7     9   ar
    15     9    10   ar
    16    10    11   ar
    17    11    12    1
    18    11    25   ar
    19    12    13    2
    20    12    14   am
    21    14    15    1
    22    15    16    1
    23    16    17    1
    24    17    18    1
    25    18    19    1
    26    18    24    1
    27    19    20    1
    28    19    21    1
    29    21    22    1
    30    22    23    1
    31    23    24    1
    32    29    30    1
    33    30    31   ar
    34    30    36   ar
    35    31    32   ar
    36    32    33    1
    37    32    34   ar
    38    34    35   ar
    39    35    36   ar
