@<TRIPOS>MOLECULE
36249_ChemDiv_G233-0144
 29 32 0 0 0
SMALL
GASTEIGER
Energy = 0

@<TRIPOS>ATOM
      1 S           0.8630    2.9920    0.0000 S.O2    1  LIG1        0.0298
      2 C           0.0000    2.4880    0.0000 C.ar    1  LIG1        0.1239
      3 C          -0.0040    1.4920    0.0000 C.ar    1  LIG1        0.0697
      4 N           0.8580    0.9920    0.0000 N.pl3   1  LIG1       -0.2763
      5 C           1.7250    1.4750    0.0000 C.ar    1  LIG1        0.0697
      6 C           1.7250    2.4880    0.0000 C.ar    1  LIG1        0.1239
      7 C           2.6000    2.9880    0.0000 C.ar    1  LIG1        0.0200
      8 C           3.4710    2.4750    0.0000 C.ar    1  LIG1        0.0014
      9 C           3.4630    1.4750    0.0000 C.ar    1  LIG1        0.0014
     10 C           2.5830    0.9750    0.0000 C.ar    1  LIG1        0.0162
     11 C           0.8460   -0.0170    0.0000 C.3     1  LIG1        0.1833
     12 C          -0.0210   -0.5130    0.0000 C.2     1  LIG1        0.2662
     13 N          -0.0290   -1.5170    0.0000 N.am    1  LIG1       -0.1747
     14 C          -0.8920   -2.0130    0.0000 C.ar    1  LIG1        0.1081
     15 C          -1.7540   -1.5000    0.0000 C.ar    1  LIG1        0.0311
     16 C          -2.6130   -1.9960    0.0000 C.ar    1  LIG1        0.0592
     17 C          -2.6210   -2.9960    0.0000 C.ar    1  LIG1        0.0146
     18 C          -1.7540   -3.4960    0.0000 C.ar    1  LIG1        0.0391
     19 C          -0.8920   -2.9960    0.0000 C.ar    1  LIG1        0.1539
     20 O          -0.0290   -3.4960    0.0000 O.3     1  LIG1       -0.4701
     21 C           0.8330   -2.9960    0.0000 C.3     1  LIG1        0.2525
     22 CL         -3.4750   -1.4880    0.0000 Cl      1  LIG1       -0.0822
     23 O          -0.8920    0.0000    0.0000 O.2     1  LIG1       -0.2711
     24 C          -0.8670    0.9920    0.0000 C.ar    1  LIG1        0.0162
     25 C          -1.7290    1.4920    0.0000 C.ar    1  LIG1        0.0014
     26 C          -1.7290    2.4880    0.0000 C.ar    1  LIG1        0.0014
     27 C          -0.8670    3.0040    0.0000 C.ar    1  LIG1        0.0200
     28 O          -0.0040    3.4920    0.0000 O.2     1  LIG1       -0.1642
     29 O           1.7250    3.5000    0.0000 O.2     1  LIG1       -0.1642
@<TRIPOS>BOND
     1     1     2    1
     2     1     6    1
     3     1    28    2
     4     1    29    2
     5     2     3   ar
     6     2    27   ar
     7     3     4    1
     8     3    24   ar
     9     4     5    1
    10     4    11    1
    11     5     6   ar
    12     5    10   ar
    13     6     7   ar
    14     7     8   ar
    15     8     9   ar
    16     9    10   ar
    17    11    12    1
    18    12    13   am
    19    12    23    2
    20    13    14    1
    21    14    15   ar
    22    14    19   ar
    23    15    16   ar
    24    16    17   ar
    25    16    22    1
    26    17    18   ar
    27    18    19   ar
    28    19    20    1
    29    20    21    1
    30    24    25   ar
    31    25    26   ar
    32    26    27   ar
