@<TRIPOS>MOLECULE
36248_ChemDiv_K784-7082
 35 38 0 0 0
SMALL
GASTEIGER
Energy = 0

@<TRIPOS>ATOM
      1 S          -0.8670    3.9290    0.0000 S.O2    1  LIG1       -0.0036
      2 C          -1.7290    3.4290    0.0000 C.3     1  LIG1        0.1820
      3 C          -1.7290    2.4290    0.0000 C.3     1  LIG1        0.1937
      4 C          -0.8580    1.9290    0.0000 C.2     1  LIG1        0.2671
      5 N          -0.8580    0.9170    0.0000 N.am    1  LIG1       -0.1764
      6 C          -1.7210    0.4170    0.0000 C.ar    1  LIG1        0.0883
      7 C          -2.5960    0.9170    0.0000 C.ar    1  LIG1        0.0811
      8 N          -2.6000    1.9170    0.0000 N.pl3   1  LIG1       -0.2269
      9 C          -3.4580    0.4170    0.0000 C.ar    1  LIG1        0.0176
     10 C          -3.4580   -0.5880    0.0000 C.ar    1  LIG1        0.0060
     11 C          -2.5960   -1.0920    0.0000 C.ar    1  LIG1        0.0564
     12 C          -2.5880   -2.0920    0.0000 C.2     1  LIG1        0.2650
     13 O          -3.4580   -2.5920    0.0000 O.2     1  LIG1       -0.2684
     14 N          -1.7210   -2.5920    0.0000 N.am    1  LIG1       -0.1953
     15 C          -0.8580   -3.0920    0.0000 C.3     1  LIG1        0.1778
     16 C           0.0080   -2.5920    0.0000 C.3     1  LIG1        0.1624
     17 N           0.8710   -3.0880    0.0000 N.4     1  LIG1        0.3786
     18 C           0.7500   -4.1170    0.0000 C.3     1  LIG1        0.1386
     19 C           1.2880   -4.7920    0.0000 C.3     1  LIG1        0.0627
     20 C           2.3040   -4.7460    0.0000 C.3     1  LIG1        0.0063
     21 C           2.8960   -3.8670    0.0000 C.3     1  LIG1        0.0063
     22 C           2.5630   -2.8500    0.0000 C.3     1  LIG1        0.0627
     23 C           1.5920   -2.5460    0.0000 C.3     1  LIG1        0.1386
     24 C          -1.7210   -0.5880    0.0000 C.ar    1  LIG1        0.0225
     25 O           0.0130    2.4290    0.0000 O.2     1  LIG1       -0.2711
     26 O          -1.3670    4.7920    0.0000 O.2     1  LIG1       -0.1726
     27 O          -0.3670    3.0670    0.0000 O.2     1  LIG1       -0.1726
     28 C           0.0130    4.4130    0.0000 C.3     1  LIG1        0.1772
     29 C           0.8790    3.9170    0.0000 C.ar    1  LIG1        0.0018
     30 C           1.7380    4.4000    0.0000 C.ar    1  LIG1        0.0041
     31 C           2.5920    3.9170    0.0000 C.ar    1  LIG1        0.0343
     32 BR          3.4540    4.4130    0.0000 Br      1  LIG1       -0.0490
     33 C           2.6000    2.9040    0.0000 C.ar    1  LIG1        0.0067
     34 C           1.7250    2.4130    0.0000 C.ar    1  LIG1        0.0002
     35 C           0.8710    2.9130    0.0000 C.ar    1  LIG1       -0.0025
@<TRIPOS>BOND
     1     1     2    1
     2     1    26    2
     3     1    27    2
     4     1    28    1
     5     2     3    1
     6     3     4    1
     7     3     8    1
     8     4     5   am
     9     4    25    2
    10     5     6    1
    11     6     7   ar
    12     6    24   ar
    13     7     8    1
    14     7     9   ar
    15     9    10   ar
    16    10    11   ar
    17    11    12    1
    18    11    24   ar
    19    12    13    2
    20    12    14   am
    21    14    15    1
    22    15    16    1
    23    16    17    1
    24    17    18    1
    25    17    23    1
    26    18    19    1
    27    19    20    1
    28    20    21    1
    29    21    22    1
    30    22    23    1
    31    28    29    1
    32    29    30   ar
    33    29    35   ar
    34    30    31   ar
    35    31    32    1
    36    31    33   ar
    37    33    34   ar
    38    34    35   ar
