@<TRIPOS>MOLECULE
36244_ChemDiv_K784-6718
 32 35 0 0 0
SMALL
GASTEIGER
Energy = 0

@<TRIPOS>ATOM
      1 S           2.9670    0.7500    0.0000 S.O2    1  LIG1       -0.0036
      2 C           2.0960    1.2500    0.0000 C.3     1  LIG1        0.1820
      3 C           1.2380    0.7630    0.0000 C.3     1  LIG1        0.1937
      4 C           1.2380   -0.2500    0.0000 C.2     1  LIG1        0.2671
      5 N           0.3630   -0.7500    0.0000 N.am    1  LIG1       -0.1764
      6 C          -0.5000   -0.2460    0.0000 C.ar    1  LIG1        0.0883
      7 C          -0.5000    0.7630    0.0000 C.ar    1  LIG1        0.0811
      8 N           0.3630    1.2630    0.0000 N.pl3   1  LIG1       -0.2269
      9 C          -1.3670    1.2630    0.0000 C.ar    1  LIG1        0.0176
     10 C          -2.2380    0.7500    0.0000 C.ar    1  LIG1        0.0060
     11 C          -2.2380   -0.2500    0.0000 C.ar    1  LIG1        0.0564
     12 C          -3.1040   -0.7500    0.0000 C.2     1  LIG1        0.2651
     13 N          -3.9750   -0.2500    0.0000 N.am    1  LIG1       -0.1963
     14 C          -4.8330    0.2500    0.0000 C.3     1  LIG1        0.1482
     15 C          -5.6960   -0.2500    0.0000 C.ar    1  LIG1        0.0290
     16 S          -6.6130    0.1580    0.0000 S.2     1  LIG1       -0.0890
     17 C          -7.2790   -0.5830    0.0000 C.ar    1  LIG1        0.0352
     18 C          -6.7790   -1.4420    0.0000 C.ar    1  LIG1        0.0072
     19 C          -5.8000   -1.2420    0.0000 C.ar    1  LIG1        0.0044
     20 O          -3.1040   -1.7540    0.0000 O.2     1  LIG1       -0.2684
     21 C          -1.3670   -0.7500    0.0000 C.ar    1  LIG1        0.0225
     22 O           2.0960   -0.7500    0.0000 O.2     1  LIG1       -0.2711
     23 O           2.9580    1.7580    0.0000 O.2     1  LIG1       -0.1726
     24 O           3.6790    0.0420    0.0000 O.2     1  LIG1       -0.1726
     25 C           3.8330    1.2460    0.0000 C.3     1  LIG1        0.1772
     26 C           4.6960    0.7460    0.0000 C.ar    1  LIG1        0.0018
     27 C           5.5540    1.2460    0.0000 C.ar    1  LIG1        0.0041
     28 C           6.4170    0.7500    0.0000 C.ar    1  LIG1        0.0343
     29 BR          7.2790    1.2630    0.0000 Br      1  LIG1       -0.0490
     30 C           6.4170   -0.2500    0.0000 C.ar    1  LIG1        0.0067
     31 C           5.5540   -0.7500    0.0000 C.ar    1  LIG1        0.0002
     32 C           4.6960   -0.2500    0.0000 C.ar    1  LIG1       -0.0025
@<TRIPOS>BOND
     1     1     2    1
     2     1    23    2
     3     1    24    2
     4     1    25    1
     5     2     3    1
     6     3     4    1
     7     3     8    1
     8     4     5   am
     9     4    22    2
    10     5     6    1
    11     6     7   ar
    12     6    21   ar
    13     7     8    1
    14     7     9   ar
    15     9    10   ar
    16    10    11   ar
    17    11    12    1
    18    11    21   ar
    19    12    13   am
    20    12    20    2
    21    13    14    1
    22    14    15    1
    23    15    16   ar
    24    15    19   ar
    25    16    17   ar
    26    17    18   ar
    27    18    19   ar
    28    25    26    1
    29    26    27   ar
    30    26    32   ar
    31    27    28   ar
    32    28    29    1
    33    28    30   ar
    34    30    31   ar
    35    31    32   ar
