@<TRIPOS>MOLECULE
36240_ChemDiv_C361-0798
 31 36 0 0 0
SMALL
GASTEIGER
Energy = 0

@<TRIPOS>ATOM
      1 S           0.3040    0.2040    0.0000 S.O2    1  LIG1        0.0633
      2 N           1.2000    0.7080    0.0000 N.3     1  LIG1       -0.1551
      3 C           1.9380    0.3630    0.0000 C.3     1  LIG1        0.1016
      4 C           3.1920    0.7880    0.0000 C.3     1  LIG1        0.0562
      5 C           4.0370    1.1790    0.0000 C.ar    1  LIG1        0.0409
      6 N           4.1170    2.0880    0.0000 N.ar    1  LIG1       -0.2991
      7 C           4.9500    2.4830    0.0000 C.ar    1  LIG1        0.2607
      8 C           5.7170    1.9630    0.0000 C.ar    1  LIG1        0.0608
      9 C           5.6250    1.0380    0.0000 C.ar    1  LIG1        0.0060
     10 C           4.7920    0.6460    0.0000 C.ar    1  LIG1        0.0130
     11 O           5.0290    3.4080    0.0000 O.2     1  LIG1       -0.2670
     12 C           3.3500    2.6210    0.0000 C.3     1  LIG1        0.1101
     13 C           2.5170    2.2290    0.0000 C.3     1  LIG1        0.0409
     14 C           1.2750    1.7290    0.0000 C.3     1  LIG1        0.0977
     15 C           2.4380    1.3040    0.0000 C.3     1  LIG1        0.0107
     16 C          -0.5750   -0.3130    0.0000 C.ar    1  LIG1        0.1220
     17 C          -1.4540    0.2040    0.0000 C.ar    1  LIG1        0.0169
     18 C          -2.3500   -0.3130    0.0000 C.ar    1  LIG1       -0.0054
     19 C          -2.3500   -1.3330    0.0000 C.ar    1  LIG1        0.0500
     20 N          -3.3040   -1.6460    0.0000 N.am    1  LIG1       -0.2586
     21 C          -3.8250   -2.5250    0.0000 C.2     1  LIG1        0.2288
     22 C          -4.8420   -2.5250    0.0000 C.3     1  LIG1        0.0771
     23 C          -5.7210   -3.0420    0.0000 C.3     1  LIG1        0.0096
     24 C          -5.7210   -2.0210    0.0000 C.3     1  LIG1        0.0096
     25 O          -3.3040   -3.4040    0.0000 O.2     1  LIG1       -0.2745
     26 C          -3.9170   -0.8130    0.0000 C.3     1  LIG1        0.1029
     27 C          -3.3040    0.0000    0.0000 C.3     1  LIG1        0.0495
     28 C          -1.4540   -1.8330    0.0000 C.ar    1  LIG1        0.0160
     29 C          -0.5750   -1.3330    0.0000 C.ar    1  LIG1        0.0212
     30 O          -0.2000    1.0830    0.0000 O.2     1  LIG1       -0.1528
     31 O           0.8210   -0.6880    0.0000 O.2     1  LIG1       -0.1528
@<TRIPOS>BOND
     1     1     2    1
     2     1    16    1
     3     1    30    2
     4     1    31    2
     5     2     3    1
     6     2    14    1
     7     3     4    1
     8     4     5    1
     9     4    15    1
    10     5     6   ar
    11     5    10   ar
    12     6     7   ar
    13     6    12    1
    14     7     8   ar
    15     7    11    2
    16     8     9   ar
    17     9    10   ar
    18    12    13    1
    19    13    14    1
    20    13    15    1
    21    16    17   ar
    22    16    29   ar
    23    17    18   ar
    24    18    19   ar
    25    18    27    1
    26    19    20    1
    27    19    28   ar
    28    20    21   am
    29    20    26    1
    30    21    22    1
    31    21    25    2
    32    22    23    1
    33    22    24    1
    34    23    24    1
    35    26    27    1
    36    28    29   ar
