@<TRIPOS>MOLECULE
36253_ChemDiv_G233-0150
 31 34 0 0 0
SMALL
GASTEIGER
Energy = 0

@<TRIPOS>ATOM
      1 S           1.7250    3.4880    0.0000 S.O2    1  LIG1        0.0298
      2 C           0.8630    2.9830    0.0000 C.ar    1  LIG1        0.1239
      3 C           0.8630    1.9880    0.0000 C.ar    1  LIG1        0.0697
      4 N           1.7250    1.4880    0.0000 N.pl3   1  LIG1       -0.2763
      5 C           2.5960    1.9710    0.0000 C.ar    1  LIG1        0.0697
      6 C           2.5960    2.9830    0.0000 C.ar    1  LIG1        0.1239
      7 C           3.4630    3.4830    0.0000 C.ar    1  LIG1        0.0200
      8 C           4.3380    2.9710    0.0000 C.ar    1  LIG1        0.0014
      9 C           4.3330    1.9710    0.0000 C.ar    1  LIG1        0.0014
     10 C           3.4540    1.4750    0.0000 C.ar    1  LIG1        0.0162
     11 C           1.7080    0.4790    0.0000 C.3     1  LIG1        0.1833
     12 C           0.8460   -0.0170    0.0000 C.2     1  LIG1        0.2661
     13 N           0.8420   -1.0210    0.0000 N.am    1  LIG1       -0.1778
     14 C          -0.0290   -1.5130    0.0000 C.ar    1  LIG1        0.0734
     15 C          -0.0290   -2.5000    0.0000 C.ar    1  LIG1        0.0168
     16 C          -0.8920   -3.0000    0.0000 C.ar    1  LIG1        0.0078
     17 C          -1.7540   -2.5000    0.0000 C.ar    1  LIG1        0.0757
     18 C          -2.6210   -2.9960    0.0000 C.2     1  LIG1        0.3412
     19 O          -2.6290   -3.9920    0.0000 O.2     1  LIG1       -0.2449
     20 O          -3.4790   -2.4960    0.0000 O.3     1  LIG1       -0.4454
     21 C          -3.4750   -1.5000    0.0000 C.3     1  LIG1        0.2089
     22 C          -4.3420   -0.9920    0.0000 C.3     1  LIG1        0.0513
     23 C          -1.7540   -1.5000    0.0000 C.ar    1  LIG1        0.0078
     24 C          -0.8790   -1.0040    0.0000 C.ar    1  LIG1        0.0168
     25 O          -0.0210    0.4960    0.0000 O.2     1  LIG1       -0.2711
     26 C           0.0000    1.4880    0.0000 C.ar    1  LIG1        0.0162
     27 C          -0.8630    1.9880    0.0000 C.ar    1  LIG1        0.0014
     28 C          -0.8630    2.9830    0.0000 C.ar    1  LIG1        0.0014
     29 C           0.0000    3.4960    0.0000 C.ar    1  LIG1        0.0200
     30 O           0.8630    3.9880    0.0000 O.2     1  LIG1       -0.1642
     31 O           2.5960    3.9960    0.0000 O.2     1  LIG1       -0.1642
@<TRIPOS>BOND
     1     1     2    1
     2     1     6    1
     3     1    30    2
     4     1    31    2
     5     2     3   ar
     6     2    29   ar
     7     3     4    1
     8     3    26   ar
     9     4     5    1
    10     4    11    1
    11     5     6   ar
    12     5    10   ar
    13     6     7   ar
    14     7     8   ar
    15     8     9   ar
    16     9    10   ar
    17    11    12    1
    18    12    13   am
    19    12    25    2
    20    13    14    1
    21    14    15   ar
    22    14    24   ar
    23    15    16   ar
    24    16    17   ar
    25    17    18    1
    26    17    23   ar
    27    18    19    2
    28    18    20    1
    29    20    21    1
    30    21    22    1
    31    23    24   ar
    32    26    27   ar
    33    27    28   ar
    34    28    29   ar
