@<TRIPOS>MOLECULE
36251_ChemDiv_G233-0147
 29 32 0 0 0
SMALL
GASTEIGER
Energy = 0

@<TRIPOS>ATOM
      1 S           0.4380    3.4960    0.0000 S.O2    1  LIG1        0.0298
      2 C          -0.4210    2.9880    0.0000 C.ar    1  LIG1        0.1239
      3 C          -0.4330    1.9880    0.0000 C.ar    1  LIG1        0.0697
      4 N           0.4290    1.4880    0.0000 N.pl3   1  LIG1       -0.2763
      5 C           1.3000    1.9790    0.0000 C.ar    1  LIG1        0.0697
      6 C           1.3040    2.9830    0.0000 C.ar    1  LIG1        0.1239
      7 C           2.1750    3.4880    0.0000 C.ar    1  LIG1        0.0200
      8 C           3.0420    2.9750    0.0000 C.ar    1  LIG1        0.0014
      9 C           3.0420    1.9710    0.0000 C.ar    1  LIG1        0.0014
     10 C           2.1670    1.4790    0.0000 C.ar    1  LIG1        0.0162
     11 C           0.4250    0.4920    0.0000 C.3     1  LIG1        0.1833
     12 C          -0.4460   -0.0040    0.0000 C.2     1  LIG1        0.2661
     13 N          -0.4460   -1.0130    0.0000 N.am    1  LIG1       -0.1776
     14 C          -1.3130   -1.5000    0.0000 C.ar    1  LIG1        0.0779
     15 C          -1.3130   -2.4960    0.0000 C.ar    1  LIG1        0.0720
     16 C          -0.4460   -2.9960    0.0000 C.2     1  LIG1        0.2854
     17 O           0.4130   -2.4960    0.0000 O.2     1  LIG1       -0.2666
     18 N          -0.4460   -3.9920    0.0000 N.am    1  LIG1       -0.0837
     19 C          -2.1750   -2.9920    0.0000 C.ar    1  LIG1        0.0059
     20 C          -3.0460   -2.4920    0.0000 C.ar    1  LIG1        0.0002
     21 C          -3.0330   -1.4880    0.0000 C.ar    1  LIG1        0.0013
     22 C          -2.1710   -0.9960    0.0000 C.ar    1  LIG1        0.0167
     23 O          -1.3080    0.5080    0.0000 O.2     1  LIG1       -0.2711
     24 C          -1.2920    1.4960    0.0000 C.ar    1  LIG1        0.0162
     25 C          -2.1540    1.9880    0.0000 C.ar    1  LIG1        0.0014
     26 C          -2.1540    2.9880    0.0000 C.ar    1  LIG1        0.0014
     27 C          -1.2920    3.4960    0.0000 C.ar    1  LIG1        0.0200
     28 O          -0.4330    3.9960    0.0000 O.2     1  LIG1       -0.1642
     29 O           1.3040    3.9960    0.0000 O.2     1  LIG1       -0.1642
@<TRIPOS>BOND
     1     1     2    1
     2     1     6    1
     3     1    28    2
     4     1    29    2
     5     2     3   ar
     6     2    27   ar
     7     3     4    1
     8     3    24   ar
     9     4     5    1
    10     4    11    1
    11     5     6   ar
    12     5    10   ar
    13     6     7   ar
    14     7     8   ar
    15     8     9   ar
    16     9    10   ar
    17    11    12    1
    18    12    13   am
    19    12    23    2
    20    13    14    1
    21    14    15   ar
    22    14    22   ar
    23    15    16    1
    24    15    19   ar
    25    16    17    2
    26    16    18   am
    27    19    20   ar
    28    20    21   ar
    29    21    22   ar
    30    24    25   ar
    31    25    26   ar
    32    26    27   ar
