@<TRIPOS>MOLECULE
36252_ChemDiv_K786-0471
 26 29 0 0 0
SMALL
GASTEIGER
Energy = 0

@<TRIPOS>ATOM
      1 C          -2.5880   -1.2710    0.0000 C.2     1  LIG1        0.2491
      2 N          -1.7170   -1.7710    0.0000 N.am    1  LIG1       -0.2761
      3 C          -0.8580   -1.2710    0.0000 C.3     1  LIG1        0.0937
      4 C           0.0040   -1.7540    0.0000 C.3     1  LIG1        0.0219
      5 C           0.0040   -2.7540    0.0000 C.3     1  LIG1        0.0078
      6 C           0.8790   -3.2460    0.0000 C.3     1  LIG1        0.0265
      7 C           1.7290   -2.7380    0.0000 C.ar    1  LIG1       -0.0222
      8 C           2.5920   -3.2330    0.0000 C.ar    1  LIG1       -0.0043
      9 C           3.4540   -2.7250    0.0000 C.ar    1  LIG1       -0.0003
     10 C           3.4380   -1.7250    0.0000 C.ar    1  LIG1       -0.0000
     11 C           2.5710   -1.2420    0.0000 C.ar    1  LIG1       -0.0003
     12 C           1.7130   -1.7500    0.0000 C.ar    1  LIG1       -0.0043
     13 C          -0.8580   -3.2540    0.0000 C.3     1  LIG1        0.0219
     14 C          -1.7170   -2.7540    0.0000 C.3     1  LIG1        0.0937
     15 C          -2.5960   -0.2670    0.0000 C.ar    1  LIG1        0.0550
     16 C          -1.7170    0.2420    0.0000 C.ar    1  LIG1        0.0224
     17 C          -1.7170    1.2460    0.0000 C.ar    1  LIG1        0.0883
     18 N          -0.8580    1.7420    0.0000 N.am    1  LIG1       -0.1764
     19 C          -0.8580    2.7540    0.0000 C.2     1  LIG1        0.2676
     20 C          -1.7250    3.2580    0.0000 C.3     1  LIG1        0.1988
     21 N          -2.6000    2.7540    0.0000 N.pl3   1  LIG1       -0.2264
     22 C          -2.5960    1.7420    0.0000 C.ar    1  LIG1        0.0811
     23 C          -3.4580    1.2460    0.0000 C.ar    1  LIG1        0.0176
     24 C          -3.4580    0.2420    0.0000 C.ar    1  LIG1        0.0059
     25 O           0.0210    3.2580    0.0000 O.2     1  LIG1       -0.2711
     26 O          -3.4580   -1.7710    0.0000 O.2     1  LIG1       -0.2699
@<TRIPOS>BOND
     1     1     2   am
     2     1    15    1
     3     1    26    2
     4     2     3    1
     5     2    14    1
     6     3     4    1
     7     4     5    1
     8     5     6    1
     9     5    13    1
    10     6     7    1
    11     7     8   ar
    12     7    12   ar
    13     8     9   ar
    14     9    10   ar
    15    10    11   ar
    16    11    12   ar
    17    13    14    1
    18    15    16   ar
    19    15    24   ar
    20    16    17   ar
    21    17    18    1
    22    17    22   ar
    23    18    19   am
    24    19    20    1
    25    19    25    2
    26    20    21    1
    27    21    22    1
    28    22    23   ar
    29    23    24   ar
