@<TRIPOS>MOLECULE
36255_ChemDiv_G233-0163
 29 32 0 0 0
SMALL
GASTEIGER
Energy = 0

@<TRIPOS>ATOM
      1 S           1.3000    3.7380    0.0000 S.O2    1  LIG1        0.0298
      2 C           0.4380    3.2290    0.0000 C.ar    1  LIG1        0.1239
      3 C           0.4290    2.2290    0.0000 C.ar    1  LIG1        0.0697
      4 N           1.2880    1.7290    0.0000 N.pl3   1  LIG1       -0.2763
      5 C           2.1580    2.2210    0.0000 C.ar    1  LIG1        0.0697
      6 C           2.1670    3.2250    0.0000 C.ar    1  LIG1        0.1239
      7 C           3.0380    3.7290    0.0000 C.ar    1  LIG1        0.0200
      8 C           3.9000    3.2170    0.0000 C.ar    1  LIG1        0.0014
      9 C           3.9000    2.2130    0.0000 C.ar    1  LIG1        0.0014
     10 C           3.0250    1.7210    0.0000 C.ar    1  LIG1        0.0162
     11 C           1.2830    0.7330    0.0000 C.3     1  LIG1        0.1833
     12 C           0.4130    0.2380    0.0000 C.2     1  LIG1        0.2661
     13 N           0.4130   -0.7710    0.0000 N.am    1  LIG1       -0.1778
     14 C          -0.4540   -1.2580    0.0000 C.ar    1  LIG1        0.0736
     15 C          -1.3080   -0.7540    0.0000 C.ar    1  LIG1        0.0197
     16 C          -2.1830   -1.2420    0.0000 C.ar    1  LIG1        0.0382
     17 C          -2.1830   -2.2500    0.0000 C.ar    1  LIG1        0.1386
     18 C          -1.3130   -2.7500    0.0000 C.ar    1  LIG1        0.0382
     19 C          -0.4540   -2.2540    0.0000 C.ar    1  LIG1        0.0197
     20 O          -3.0460   -2.7380    0.0000 O.3     1  LIG1       -0.4755
     21 C          -3.0460   -3.7330    0.0000 C.3     1  LIG1        0.2055
     22 C          -3.9040   -4.2330    0.0000 C.3     1  LIG1        0.0512
     23 O          -0.4460    0.7500    0.0000 O.2     1  LIG1       -0.2711
     24 C          -0.4330    1.7380    0.0000 C.ar    1  LIG1        0.0162
     25 C          -1.2920    2.2290    0.0000 C.ar    1  LIG1        0.0014
     26 C          -1.2920    3.2290    0.0000 C.ar    1  LIG1        0.0014
     27 C          -0.4330    3.7380    0.0000 C.ar    1  LIG1        0.0200
     28 O           0.4290    4.2330    0.0000 O.2     1  LIG1       -0.1642
     29 O           2.1670    4.2330    0.0000 O.2     1  LIG1       -0.1642
@<TRIPOS>BOND
     1     1     2    1
     2     1     6    1
     3     1    28    2
     4     1    29    2
     5     2     3   ar
     6     2    27   ar
     7     3     4    1
     8     3    24   ar
     9     4     5    1
    10     4    11    1
    11     5     6   ar
    12     5    10   ar
    13     6     7   ar
    14     7     8   ar
    15     8     9   ar
    16     9    10   ar
    17    11    12    1
    18    12    13   am
    19    12    23    2
    20    13    14    1
    21    14    15   ar
    22    14    19   ar
    23    15    16   ar
    24    16    17   ar
    25    17    18   ar
    26    17    20    1
    27    18    19   ar
    28    20    21    1
    29    21    22    1
    30    24    25   ar
    31    25    26   ar
    32    26    27   ar
