@<TRIPOS>MOLECULE
36258_ChemDiv_E245-0983
 28 32 0 0 0
SMALL
GASTEIGER
Energy = 0

@<TRIPOS>ATOM
      1 S           0.1630    0.5830    0.0000 S.O2    1  LIG1        0.0633
      2 N          -0.8210    0.5710    0.0000 N.3     1  LIG1       -0.1551
      3 C          -1.3250    1.4170    0.0000 C.3     1  LIG1        0.1016
      4 C          -3.0420    1.3920    0.0000 C.3     1  LIG1        0.0562
      5 C          -3.8920    0.9000    0.0000 C.ar    1  LIG1        0.0409
      6 N          -3.8920   -0.0830    0.0000 N.ar    1  LIG1       -0.2991
      7 C          -4.7420   -0.5750    0.0000 C.ar    1  LIG1        0.2607
      8 C          -5.5960   -0.0830    0.0000 C.ar    1  LIG1        0.0608
      9 C          -5.5960    0.9000    0.0000 C.ar    1  LIG1        0.0060
     10 C          -4.7420    1.3920    0.0000 C.ar    1  LIG1        0.0130
     11 O          -4.7420   -1.5630    0.0000 O.2     1  LIG1       -0.2670
     12 C          -3.0420   -0.5750    0.0000 C.3     1  LIG1        0.1101
     13 C          -2.1920   -0.0830    0.0000 C.3     1  LIG1        0.0409
     14 C          -1.3540   -0.1290    0.0000 C.3     1  LIG1        0.0977
     15 C          -2.1920    0.9000    0.0000 C.3     1  LIG1        0.0107
     16 C           1.1380    0.5830    0.0000 C.ar    1  LIG1        0.1223
     17 C           1.6460   -0.2670    0.0000 C.ar    1  LIG1        0.0214
     18 C           2.6290   -0.2630    0.0000 C.ar    1  LIG1        0.0192
     19 C           3.1210    0.5960    0.0000 C.ar    1  LIG1        0.0846
     20 N           4.1040    0.6000    0.0000 N.ar    1  LIG1       -0.2079
     21 C           4.6080   -0.2380    0.0000 C.ar    1  LIG1        0.2793
     22 C           4.1210   -1.1040    0.0000 C.ar    1  LIG1        0.0625
     23 C           3.1380   -1.1130    0.0000 C.ar    1  LIG1        0.0065
     24 O           5.5920   -0.2250    0.0000 O.2     1  LIG1       -0.2652
     25 C           2.6250    1.4460    0.0000 C.ar    1  LIG1        0.0206
     26 C           1.6290    1.4380    0.0000 C.ar    1  LIG1        0.0215
     27 O           0.1500    1.5670    0.0000 O.2     1  LIG1       -0.1528
     28 O           0.1670   -0.4040    0.0000 O.2     1  LIG1       -0.1528
@<TRIPOS>BOND
     1     1     2    1
     2     1    16    1
     3     1    27    2
     4     1    28    2
     5     2     3    1
     6     2    14    1
     7     3     4    1
     8     4     5    1
     9     4    15    1
    10     5     6   ar
    11     5    10   ar
    12     6     7   ar
    13     6    12    1
    14     7     8   ar
    15     7    11    2
    16     8     9   ar
    17     9    10   ar
    18    12    13    1
    19    13    14    1
    20    13    15    1
    21    16    17   ar
    22    16    26   ar
    23    17    18   ar
    24    18    19   ar
    25    18    23   ar
    26    19    20   ar
    27    19    25   ar
    28    20    21   ar
    29    21    22   ar
    30    21    24    2
    31    22    23   ar
    32    25    26   ar
