@<TRIPOS>MOLECULE
36256_ChemDiv_K786-0966
 34 37 0 0 0
SMALL
GASTEIGER
Energy = 0

@<TRIPOS>ATOM
      1 N          -4.3250    2.0000    0.0000 N.pl3   1  LIG1       -0.2287
      2 C          -3.4540    2.5040    0.0000 C.3     1  LIG1        0.1702
      3 C          -2.5790    2.0040    0.0000 C.2     1  LIG1        0.2653
      4 N          -2.5790    1.0000    0.0000 N.am    1  LIG1       -0.1765
      5 C          -3.4460    0.4960    0.0000 C.ar    1  LIG1        0.0883
      6 C          -4.3210    1.0000    0.0000 C.ar    1  LIG1        0.0811
      7 C          -5.1830    0.4960    0.0000 C.ar    1  LIG1        0.0176
      8 C          -5.1830   -0.5040    0.0000 C.ar    1  LIG1        0.0060
      9 C          -4.3210   -1.0040    0.0000 C.ar    1  LIG1        0.0564
     10 C          -4.3210   -2.0040    0.0000 C.2     1  LIG1        0.2648
     11 O          -5.1830   -2.5170    0.0000 O.2     1  LIG1       -0.2684
     12 N          -3.4460   -2.5170    0.0000 N.am    1  LIG1       -0.2014
     13 C          -2.5790   -2.0170    0.0000 C.3     1  LIG1        0.1216
     14 C          -1.7170   -2.5040    0.0000 C.3     1  LIG1        0.0861
     15 C          -0.8500   -2.0040    0.0000 C.3     1  LIG1        0.1404
     16 N           0.0130   -2.5040    0.0000 N.4     1  LIG1        0.3773
     17 C           0.0130   -3.5000    0.0000 C.3     1  LIG1        0.1386
     18 C           0.8670   -3.9920    0.0000 C.3     1  LIG1        0.0632
     19 C           1.7330   -3.5000    0.0000 C.3     1  LIG1        0.0162
     20 C           2.5960   -4.0040    0.0000 C.3     1  LIG1        0.0268
     21 C           3.4630   -3.4920    0.0000 C.ar    1  LIG1       -0.0222
     22 C           4.3250   -3.9790    0.0000 C.ar    1  LIG1       -0.0043
     23 C           5.1880   -3.4630    0.0000 C.ar    1  LIG1       -0.0003
     24 C           5.1710   -2.4710    0.0000 C.ar    1  LIG1       -0.0000
     25 C           4.2960   -1.9830    0.0000 C.ar    1  LIG1       -0.0003
     26 C           3.4420   -2.4920    0.0000 C.ar    1  LIG1       -0.0043
     27 C           1.7330   -2.5000    0.0000 C.3     1  LIG1        0.0632
     28 C           0.8670   -2.0000    0.0000 C.3     1  LIG1        0.1386
     29 C          -3.4460   -0.5040    0.0000 C.ar    1  LIG1        0.0225
     30 O          -1.7170    2.5170    0.0000 O.2     1  LIG1       -0.2711
     31 C          -3.4540    3.5040    0.0000 C.3     1  LIG1        0.0289
     32 C          -4.3210    4.0000    0.0000 C.3     1  LIG1        0.0022
     33 C          -5.1880    3.5000    0.0000 C.3     1  LIG1        0.0001
     34 C          -2.5920    4.0040    0.0000 C.3     1  LIG1        0.0023
@<TRIPOS>BOND
     1     1     2    1
     2     1     6    1
     3     2     3    1
     4     2    31    1
     5     3     4   am
     6     3    30    2
     7     4     5    1
     8     5     6   ar
     9     5    29   ar
    10     6     7   ar
    11     7     8   ar
    12     8     9   ar
    13     9    10    1
    14     9    29   ar
    15    10    11    2
    16    10    12   am
    17    12    13    1
    18    13    14    1
    19    14    15    1
    20    15    16    1
    21    16    17    1
    22    16    28    1
    23    17    18    1
    24    18    19    1
    25    19    20    1
    26    19    27    1
    27    20    21    1
    28    21    22   ar
    29    21    26   ar
    30    22    23   ar
    31    23    24   ar
    32    24    25   ar
    33    25    26   ar
    34    27    28    1
    35    31    32    1
    36    31    34    1
    37    32    33    1
