@<TRIPOS>MOLECULE
36254_ChemDiv_K786-0502
 33 36 0 0 0
SMALL
GASTEIGER
Energy = 0

@<TRIPOS>ATOM
      1 N          -2.1580    0.5000    0.0000 N.am    1  LIG1       -0.1765
      2 C          -2.1580    1.5130    0.0000 C.2     1  LIG1        0.2653
      3 C          -3.0420    1.9960    0.0000 C.3     1  LIG1        0.1703
      4 N          -3.9040    1.4960    0.0000 N.pl3   1  LIG1       -0.2287
      5 C          -3.8880    0.4960    0.0000 C.ar    1  LIG1        0.0811
      6 C          -3.0170   -0.0040    0.0000 C.ar    1  LIG1        0.0883
      7 C          -3.0250   -1.0170    0.0000 C.ar    1  LIG1        0.0225
      8 C          -3.8880   -1.5170    0.0000 C.ar    1  LIG1        0.0564
      9 C          -3.8880   -2.5210    0.0000 C.2     1  LIG1        0.2648
     10 N          -3.0250   -3.0250    0.0000 N.am    1  LIG1       -0.2017
     11 C          -2.1580   -2.5170    0.0000 C.3     1  LIG1        0.1158
     12 C          -1.2960   -3.0080    0.0000 C.3     1  LIG1        0.0336
     13 C          -0.4330   -2.5040    0.0000 C.3     1  LIG1        0.0647
     14 C           0.4330   -3.0040    0.0000 C.3     1  LIG1        0.1391
     15 N           0.4420   -4.0080    0.0000 N.4     1  LIG1        0.3807
     16 C           1.3130   -4.4960    0.0000 C.3     1  LIG1        0.1662
     17 C           2.1710   -3.9920    0.0000 C.ar    1  LIG1        0.0343
     18 C           3.0380   -4.4790    0.0000 C.ar    1  LIG1        0.0011
     19 C           3.8920   -3.9790    0.0000 C.ar    1  LIG1       -0.0044
     20 C           3.8830   -2.9790    0.0000 C.ar    1  LIG1       -0.0219
     21 C           3.0080   -2.4920    0.0000 C.ar    1  LIG1       -0.0044
     22 C           2.1540   -2.9920    0.0000 C.ar    1  LIG1        0.0011
     23 C           4.7500   -2.4790    0.0000 C.3     1  LIG1        0.0310
     24 C          -0.4330   -4.5080    0.0000 C.3     1  LIG1        0.1391
     25 C          -1.2960   -4.0080    0.0000 C.3     1  LIG1        0.0647
     26 O          -4.7540   -3.0250    0.0000 O.2     1  LIG1       -0.2684
     27 C          -4.7540   -1.0170    0.0000 C.ar    1  LIG1        0.0060
     28 C          -4.7540   -0.0170    0.0000 C.ar    1  LIG1        0.0176
     29 C          -3.0420    2.9960    0.0000 C.3     1  LIG1        0.0310
     30 C          -2.1920    3.5130    0.0000 C.3     1  LIG1        0.0022
     31 C          -1.3130    3.0290    0.0000 C.3     1  LIG1        0.0001
     32 C          -2.2040    4.5080    0.0000 C.3     1  LIG1        0.0001
     33 O          -1.2960    2.0130    0.0000 O.2     1  LIG1       -0.2711
@<TRIPOS>BOND
     1     1     2   am
     2     1     6    1
     3     2     3    1
     4     2    33    2
     5     3     4    1
     6     3    29    1
     7     4     5    1
     8     5     6   ar
     9     5    28   ar
    10     6     7   ar
    11     7     8   ar
    12     8     9    1
    13     8    27   ar
    14     9    10   am
    15     9    26    2
    16    10    11    1
    17    11    12    1
    18    12    13    1
    19    12    25    1
    20    13    14    1
    21    14    15    1
    22    15    16    1
    23    15    24    1
    24    16    17    1
    25    17    18   ar
    26    17    22   ar
    27    18    19   ar
    28    19    20   ar
    29    20    21   ar
    30    20    23    1
    31    21    22   ar
    32    24    25    1
    33    27    28   ar
    34    29    30    1
    35    30    31    1
    36    30    32    1
