@<TRIPOS>MOLECULE
36259_ChemDiv_C914-0013
 20 22 0 0 0
SMALL
GASTEIGER
Energy = 0

@<TRIPOS>ATOM
      1 C          -0.8960   -0.6250    0.0000 C.3     1  LIG1        0.1709
      2 N          -1.7040   -0.0380    0.0000 N.am    1  LIG1       -0.2100
      3 C          -1.3920    0.9170    0.0000 C.2     1  LIG1        0.1198
      4 C          -0.3920    0.9170    0.0000 C.2     1  LIG1        0.0991
      5 N          -0.0880   -0.0380    0.0000 N.2     1  LIG1       -0.2519
      6 C           0.1960    1.7170    0.0000 C.ar    1  LIG1        0.0192
      7 C           1.2080    1.6130    0.0000 C.ar    1  LIG1        0.0038
      8 C           1.7880    2.4290    0.0000 C.ar    1  LIG1        0.0297
      9 C           1.3880    3.3330    0.0000 C.ar    1  LIG1        0.1401
     10 C           0.3920    3.4580    0.0000 C.ar    1  LIG1        0.0297
     11 C          -0.2080    2.6420    0.0000 C.ar    1  LIG1        0.0038
     12 F           1.9790    4.1330    0.0000 F       1  LIG1       -0.2042
     13 S          -1.9830    1.7330    0.0000 S.2     1  LIG1       -0.0316
     14 C          -0.0330   -1.1380    0.0000 C.3     1  LIG1        0.1058
     15 C          -0.0580   -2.1380    0.0000 C.3     1  LIG1        0.1424
     16 N          -0.9250   -2.6210    0.0000 N.4     1  LIG1        0.3774
     17 C          -1.7710   -2.1080    0.0000 C.3     1  LIG1        0.1424
     18 C          -1.7540   -1.1080    0.0000 C.3     1  LIG1        0.1058
     19 C          -0.9380   -3.6330    0.0000 C.3     1  LIG1        0.1388
     20 C          -0.0920   -4.1330    0.0000 C.3     1  LIG1        0.0688
@<TRIPOS>BOND
     1     1     2    1
     2     1     5    1
     3     1    14    1
     4     1    18    1
     5     2     3    1
     6     3     4    1
     7     3    13    2
     8     4     5    2
     9     4     6    1
    10     6     7   ar
    11     6    11   ar
    12     7     8   ar
    13     8     9   ar
    14     9    10   ar
    15     9    12    1
    16    10    11   ar
    17    14    15    1
    18    15    16    1
    19    16    17    1
    20    16    19    1
    21    17    18    1
    22    19    20    1
