@<TRIPOS>MOLECULE
36267_ChemDiv_C200-3998
 32 36 0 0 0
SMALL
GASTEIGER
Energy = 0

@<TRIPOS>ATOM
      1 N          -1.3130    0.5000    0.0000 N.ar    1  LIG1       -0.1689
      2 C          -1.3130   -0.4960    0.0000 C.ar    1  LIG1        0.2009
      3 S          -2.2630   -0.8080    0.0000 S.2     1  LIG1       -0.0114
      4 C          -2.8540    0.0000    0.0000 C.ar    1  LIG1        0.2017
      5 N          -2.2630    0.8040    0.0000 N.ar    1  LIG1       -0.1372
      6 N          -3.8500    0.0080    0.0000 N.pl3   1  LIG1       -0.2085
      7 C          -4.3500   -0.8540    0.0000 C.3     1  LIG1        0.1407
      8 C          -5.3500   -0.8540    0.0000 C.ar    1  LIG1       -0.0006
      9 C          -5.8500    0.0170    0.0000 C.ar    1  LIG1       -0.0026
     10 C          -6.8500    0.0170    0.0000 C.ar    1  LIG1       -0.0003
     11 C          -7.3500   -0.8540    0.0000 C.ar    1  LIG1       -0.0000
     12 C          -6.8500   -1.7170    0.0000 C.ar    1  LIG1       -0.0003
     13 C          -5.8500   -1.7170    0.0000 C.ar    1  LIG1       -0.0026
     14 N          -0.4460   -0.9960    0.0000 N.ar    1  LIG1       -0.2206
     15 C           0.4170   -0.4960    0.0000 C.ar    1  LIG1        0.0882
     16 C           0.4170    0.5000    0.0000 C.ar    1  LIG1        0.0756
     17 C          -0.4460    1.0000    0.0000 C.ar    1  LIG1        0.2835
     18 O          -0.4460    2.0000    0.0000 O.2     1  LIG1       -0.2650
     19 C           1.2790    1.0000    0.0000 C.ar    1  LIG1        0.0065
     20 C           2.1420    0.5000    0.0000 C.ar    1  LIG1        0.0048
     21 C           2.1420   -0.4960    0.0000 C.ar    1  LIG1        0.0566
     22 C           3.0210   -0.9960    0.0000 C.2     1  LIG1        0.2652
     23 N           3.8830   -0.4960    0.0000 N.am    1  LIG1       -0.1951
     24 C           4.7460   -0.9960    0.0000 C.3     1  LIG1        0.1608
     25 C           5.6250   -0.4920    0.0000 C.ar    1  LIG1        0.0809
     26 N           6.4880   -0.9920    0.0000 N.ar    1  LIG1       -0.2464
     27 C           7.3500   -0.4920    0.0000 C.ar    1  LIG1        0.0985
     28 C           7.3500    0.5080    0.0000 C.ar    1  LIG1        0.0207
     29 C           6.4880    1.0170    0.0000 C.ar    1  LIG1        0.0029
     30 C           5.6250    0.5170    0.0000 C.ar    1  LIG1        0.0165
     31 O           3.0210   -1.9960    0.0000 O.2     1  LIG1       -0.2684
     32 C           1.2790   -0.9960    0.0000 C.ar    1  LIG1        0.0239
@<TRIPOS>BOND
     1     1     2   ar
     2     1     5   ar
     3     1    17   ar
     4     2     3   ar
     5     2    14   ar
     6     3     4   ar
     7     4     5   ar
     8     4     6    1
     9     6     7    1
    10     7     8    1
    11     8     9   ar
    12     8    13   ar
    13     9    10   ar
    14    10    11   ar
    15    11    12   ar
    16    12    13   ar
    17    14    15   ar
    18    15    16   ar
    19    15    32   ar
    20    16    17   ar
    21    16    19   ar
    22    17    18    2
    23    19    20   ar
    24    20    21   ar
    25    21    22    1
    26    21    32   ar
    27    22    23   am
    28    22    31    2
    29    23    24    1
    30    24    25    1
    31    25    26   ar
    32    25    30   ar
    33    26    27   ar
    34    27    28   ar
    35    28    29   ar
    36    29    30   ar
