@<TRIPOS>MOLECULE
36262_ChemDiv_C224-1181
 26 29 0 0 0
SMALL
GASTEIGER
Energy = 0

@<TRIPOS>ATOM
      1 S           1.7130   -0.7000    0.0000 S.O2    1  LIG1        0.0647
      2 C           2.6040   -0.2460    0.0000 C.ar    1  LIG1        0.1397
      3 C           2.6460    0.7290    0.0000 C.ar    1  LIG1        0.0998
      4 N           1.8210    1.2750    0.0000 N.ar    1  LIG1       -0.2425
      5 C           1.8670    2.2710    0.0000 C.ar    1  LIG1        0.0989
      6 C           2.7500    2.7250    0.0000 C.ar    1  LIG1        0.0207
      7 C           3.5880    2.1830    0.0000 C.ar    1  LIG1        0.0031
      8 C           3.5420    1.1960    0.0000 C.ar    1  LIG1        0.0190
      9 C           4.3710    0.6540    0.0000 C.ar    1  LIG1        0.0016
     10 C           4.3290   -0.3380    0.0000 C.ar    1  LIG1        0.0015
     11 C           3.4460   -0.7920    0.0000 C.ar    1  LIG1        0.0215
     12 N           0.8500   -1.2000    0.0000 N.3     1  LIG1       -0.1555
     13 C          -0.0250   -0.7000    0.0000 C.3     1  LIG1        0.0958
     14 C          -0.8830   -1.2000    0.0000 C.3     1  LIG1        0.0195
     15 C          -0.8830   -2.2080    0.0000 C.3     1  LIG1        0.0072
     16 C          -1.7580   -2.7080    0.0000 C.3     1  LIG1        0.0264
     17 C          -2.6380   -2.2080    0.0000 C.ar    1  LIG1       -0.0222
     18 C          -2.6330   -1.2130    0.0000 C.ar    1  LIG1       -0.0043
     19 C          -3.5080   -0.7000    0.0000 C.ar    1  LIG1       -0.0003
     20 C          -4.3750   -1.2290    0.0000 C.ar    1  LIG1       -0.0000
     21 C          -4.3710   -2.2330    0.0000 C.ar    1  LIG1       -0.0003
     22 C          -3.5000   -2.7250    0.0000 C.ar    1  LIG1       -0.0043
     23 C          -0.0250   -2.7040    0.0000 C.3     1  LIG1        0.0195
     24 C           0.8500   -2.2040    0.0000 C.3     1  LIG1        0.0958
     25 O           1.2290    0.1880    0.0000 O.2     1  LIG1       -0.1527
     26 O           2.1210   -1.6040    0.0000 O.2     1  LIG1       -0.1527
@<TRIPOS>BOND
     1     1     2    1
     2     1    12    1
     3     1    25    2
     4     1    26    2
     5     2     3   ar
     6     2    11   ar
     7     3     4   ar
     8     3     8   ar
     9     4     5   ar
    10     5     6   ar
    11     6     7   ar
    12     7     8   ar
    13     8     9   ar
    14     9    10   ar
    15    10    11   ar
    16    12    13    1
    17    12    24    1
    18    13    14    1
    19    14    15    1
    20    15    16    1
    21    15    23    1
    22    16    17    1
    23    17    18   ar
    24    17    22   ar
    25    18    19   ar
    26    19    20   ar
    27    20    21   ar
    28    21    22   ar
    29    23    24    1
