@<TRIPOS>MOLECULE
36263_ChemDiv_C200-3929
 35 39 0 0 0
SMALL
GASTEIGER
Energy = 0

@<TRIPOS>ATOM
      1 N          -2.1670    0.4920    0.0000 N.ar    1  LIG1       -0.1689
      2 C          -2.1670   -0.5080    0.0000 C.ar    1  LIG1        0.2009
      3 S          -3.1170   -0.8210    0.0000 S.2     1  LIG1       -0.0114
      4 C          -3.7040   -0.0080    0.0000 C.ar    1  LIG1        0.2017
      5 N          -3.1170    0.7920    0.0000 N.ar    1  LIG1       -0.1372
      6 N          -4.7040   -0.0040    0.0000 N.pl3   1  LIG1       -0.2085
      7 C          -5.2040   -0.8670    0.0000 C.3     1  LIG1        0.1407
      8 C          -6.1960   -0.8670    0.0000 C.ar    1  LIG1       -0.0006
      9 C          -6.7000    0.0080    0.0000 C.ar    1  LIG1       -0.0026
     10 C          -7.7000    0.0080    0.0000 C.ar    1  LIG1       -0.0003
     11 C          -8.2080   -0.8540    0.0000 C.ar    1  LIG1       -0.0000
     12 C          -7.6960   -1.7330    0.0000 C.ar    1  LIG1       -0.0003
     13 C          -6.6960   -1.7290    0.0000 C.ar    1  LIG1       -0.0026
     14 N          -1.3000   -1.0080    0.0000 N.ar    1  LIG1       -0.2206
     15 C          -0.4380   -0.5080    0.0000 C.ar    1  LIG1        0.0882
     16 C          -0.4380    0.4920    0.0000 C.ar    1  LIG1        0.0756
     17 C          -1.3000    0.9920    0.0000 C.ar    1  LIG1        0.2835
     18 O          -1.3000    1.9880    0.0000 O.2     1  LIG1       -0.2650
     19 C           0.4250    0.9920    0.0000 C.ar    1  LIG1        0.0065
     20 C           1.2880    0.4920    0.0000 C.ar    1  LIG1        0.0048
     21 C           1.2880   -0.5080    0.0000 C.ar    1  LIG1        0.0551
     22 C           2.1630   -1.0080    0.0000 C.2     1  LIG1        0.2491
     23 N           3.0250   -0.5080    0.0000 N.am    1  LIG1       -0.2761
     24 C           3.8960   -1.0210    0.0000 C.3     1  LIG1        0.0943
     25 C           4.7580   -0.5080    0.0000 C.3     1  LIG1        0.0327
     26 C           4.7500    0.4920    0.0000 C.3     1  LIG1        0.1025
     27 C           5.6290    1.0040    0.0000 C.2     1  LIG1        0.3165
     28 O           5.6130    2.0080    0.0000 O.2     1  LIG1       -0.2501
     29 O           6.4880    0.4920    0.0000 O.3     1  LIG1       -0.4485
     30 C           7.3670    1.0040    0.0000 C.3     1  LIG1        0.2086
     31 C           8.2080    0.5250    0.0000 C.3     1  LIG1        0.0513
     32 C           3.8880    0.9920    0.0000 C.3     1  LIG1        0.0327
     33 C           3.0210    0.4920    0.0000 C.3     1  LIG1        0.0943
     34 O           2.1630   -2.0040    0.0000 O.2     1  LIG1       -0.2699
     35 C           0.4250   -1.0080    0.0000 C.ar    1  LIG1        0.0238
@<TRIPOS>BOND
     1     1     2   ar
     2     1     5   ar
     3     1    17   ar
     4     2     3   ar
     5     2    14   ar
     6     3     4   ar
     7     4     5   ar
     8     4     6    1
     9     6     7    1
    10     7     8    1
    11     8     9   ar
    12     8    13   ar
    13     9    10   ar
    14    10    11   ar
    15    11    12   ar
    16    12    13   ar
    17    14    15   ar
    18    15    16   ar
    19    15    35   ar
    20    16    17   ar
    21    16    19   ar
    22    17    18    2
    23    19    20   ar
    24    20    21   ar
    25    21    22    1
    26    21    35   ar
    27    22    23   am
    28    22    34    2
    29    23    24    1
    30    23    33    1
    31    24    25    1
    32    25    26    1
    33    26    27    1
    34    26    32    1
    35    27    28    2
    36    27    29    1
    37    29    30    1
    38    30    31    1
    39    32    33    1
