@<TRIPOS>MOLECULE
36264_ChemDiv_C224-1434
 36 40 0 0 0
SMALL
GASTEIGER
Energy = 0

@<TRIPOS>ATOM
      1 S           2.4880    4.2130    0.0000 S.O2    1  LIG1        0.0690
      2 C           2.4580    5.1540    0.0000 C.ar    1  LIG1        0.1516
      3 S           3.2750    5.6500    0.0000 S.2     1  LIG1       -0.0668
      4 C           3.0420    6.5630    0.0000 C.ar    1  LIG1        0.0368
      5 C           2.1250    6.6420    0.0000 C.ar    1  LIG1        0.0089
      6 C           1.7540    5.7750    0.0000 C.ar    1  LIG1        0.0271
      7 N           2.5170    3.2670    0.0000 N.3     1  LIG1       -0.1550
      8 C           1.7130    2.7830    0.0000 C.3     1  LIG1        0.0963
      9 C           1.7130    1.8580    0.0000 C.3     1  LIG1        0.0283
     10 C           2.5170    1.3750    0.0000 C.3     1  LIG1        0.0796
     11 C           2.4880   -0.5580    0.0000 C.2     1  LIG1        0.2256
     12 N           1.6250   -1.0580    0.0000 N.am    1  LIG1       -0.2681
     13 C           1.6710   -1.9960    0.0000 C.3     1  LIG1        0.1565
     14 C           0.8080   -2.5080    0.0000 C.3     1  LIG1        0.1612
     15 N          -0.0420   -2.0540    0.0000 N.4     1  LIG1        0.3820
     16 C          -0.9000   -2.5670    0.0000 C.3     1  LIG1        0.1331
     17 C          -0.8630   -3.4170    0.0000 C.ar    1  LIG1        0.0328
     18 C           0.0040   -3.9170    0.0000 C.ar    1  LIG1        0.0024
     19 C           0.0210   -4.9130    0.0000 C.ar    1  LIG1        0.0113
     20 C          -0.8710   -5.4540    0.0000 C.ar    1  LIG1        0.0577
     21 C          -1.7330   -4.9630    0.0000 C.ar    1  LIG1        0.0113
     22 C          -1.7630   -3.9540    0.0000 C.ar    1  LIG1        0.0024
     23 CL         -0.8210   -6.6420    0.0000 Cl      1  LIG1       -0.0822
     24 C          -1.6420   -2.1000    0.0000 C.ar    1  LIG1        0.0328
     25 C          -1.6580   -1.1210    0.0000 C.ar    1  LIG1        0.0016
     26 C          -2.5420   -0.6040    0.0000 C.ar    1  LIG1       -0.0001
     27 C          -3.4420   -1.1500    0.0000 C.ar    1  LIG1       -0.0000
     28 C          -3.4130   -2.1580    0.0000 C.ar    1  LIG1       -0.0001
     29 C          -2.5500   -2.6380    0.0000 C.ar    1  LIG1        0.0016
     30 C          -0.0710   -1.0420    0.0000 C.3     1  LIG1        0.1612
     31 C           0.7920   -0.5250    0.0000 C.3     1  LIG1        0.1565
     32 O           3.3040   -1.0130    0.0000 O.2     1  LIG1       -0.2749
     33 C           3.3420    1.8750    0.0000 C.3     1  LIG1        0.0283
     34 C           3.3330    2.8130    0.0000 C.3     1  LIG1        0.0963
     35 O           1.5500    4.2000    0.0000 O.2     1  LIG1       -0.1523
     36 O           3.4380    4.2330    0.0000 O.2     1  LIG1       -0.1523
@<TRIPOS>BOND
     1     1     2    1
     2     1     7    1
     3     1    35    2
     4     1    36    2
     5     2     3   ar
     6     2     6   ar
     7     3     4   ar
     8     4     5   ar
     9     5     6   ar
    10     7     8    1
    11     7    34    1
    12     8     9    1
    13     9    10    1
    14    10    11    1
    15    10    33    1
    16    11    12   am
    17    11    32    2
    18    12    13    1
    19    12    31    1
    20    13    14    1
    21    14    15    1
    22    15    16    1
    23    15    30    1
    24    16    17    1
    25    16    24    1
    26    17    18   ar
    27    17    22   ar
    28    18    19   ar
    29    19    20   ar
    30    20    21   ar
    31    20    23    1
    32    21    22   ar
    33    24    25   ar
    34    24    29   ar
    35    25    26   ar
    36    26    27   ar
    37    27    28   ar
    38    28    29   ar
    39    30    31    1
    40    33    34    1
