@<TRIPOS>MOLECULE
36261_ChemDiv_C200-3873
 33 36 0 0 0
SMALL
GASTEIGER
Energy = 0

@<TRIPOS>ATOM
      1 C           0.3380   -0.8830    0.0000 C.ar    1  LIG1        0.1487
      2 C           1.3380   -0.8830    0.0000 C.ar    1  LIG1        0.1174
      3 C           1.6460    0.0710    0.0000 C.ar    1  LIG1        0.0876
      4 S           0.8380    0.6630    0.0000 S.2     1  LIG1       -0.0646
      5 C           0.0330    0.0710    0.0000 C.ar    1  LIG1        0.1188
      6 N          -0.9170    0.3790    0.0000 N.pl3   1  LIG1       -0.2045
      7 C          -1.1290    1.3580    0.0000 C.ar    1  LIG1        0.0741
      8 C          -2.0710    1.6630    0.0000 C.ar    1  LIG1        0.0534
      9 C          -2.2830    2.6380    0.0000 C.ar    1  LIG1        0.1400
     10 O          -3.2380    2.9500    0.0000 O.3     1  LIG1       -0.4714
     11 C          -3.9750    2.2710    0.0000 C.3     1  LIG1        0.2525
     12 C          -1.5420    3.3130    0.0000 C.ar    1  LIG1        0.0370
     13 C          -0.5880    3.0000    0.0000 C.ar    1  LIG1        0.0044
     14 C          -0.3880    2.0250    0.0000 C.ar    1  LIG1        0.0167
     15 C           2.6000    0.3790    0.0000 C.2     1  LIG1        0.2029
     16 C           2.8130    1.3580    0.0000 C.ar    1  LIG1        0.0396
     17 C           3.7670    1.6630    0.0000 C.ar    1  LIG1        0.0055
     18 C           3.9710    2.6290    0.0000 C.ar    1  LIG1        0.0297
     19 C           3.2290    3.3040    0.0000 C.ar    1  LIG1        0.1401
     20 C           2.2750    2.9960    0.0000 C.ar    1  LIG1        0.0297
     21 C           2.0670    2.0170    0.0000 C.ar    1  LIG1        0.0055
     22 F           3.4330    4.2790    0.0000 F       1  LIG1       -0.2042
     23 O           3.3420   -0.2920    0.0000 O.2     1  LIG1       -0.2860
     24 N           1.9250   -1.6880    0.0000 N.pl3   1  LIG1       -0.1260
     25 S          -0.2500   -1.6880    0.0000 S.O2    1  LIG1        0.0305
     26 O          -1.0880   -1.1420    0.0000 O.2     1  LIG1       -0.1641
     27 O           0.5830   -2.2330    0.0000 O.2     1  LIG1       -0.1641
     28 C          -0.7540   -2.5500    0.0000 C.ar    1  LIG1        0.1104
     29 C          -0.2670   -3.4130    0.0000 C.ar    1  LIG1        0.0187
     30 C          -0.7670   -4.2790    0.0000 C.ar    1  LIG1        0.0013
     31 C          -1.7790   -4.2790    0.0000 C.ar    1  LIG1        0.0001
     32 C          -2.2630   -3.4000    0.0000 C.ar    1  LIG1        0.0013
     33 C          -1.7630   -2.5380    0.0000 C.ar    1  LIG1        0.0187
@<TRIPOS>BOND
     1     1     2   ar
     2     1     5   ar
     3     1    25    1
     4     2     3   ar
     5     2    24    1
     6     3     4   ar
     7     3    15    1
     8     4     5   ar
     9     5     6    1
    10     6     7    1
    11     7     8   ar
    12     7    14   ar
    13     8     9   ar
    14     9    10    1
    15     9    12   ar
    16    10    11    1
    17    12    13   ar
    18    13    14   ar
    19    15    16    1
    20    15    23    2
    21    16    17   ar
    22    16    21   ar
    23    17    18   ar
    24    18    19   ar
    25    19    20   ar
    26    19    22    1
    27    20    21   ar
    28    25    26    2
    29    25    27    2
    30    25    28    1
    31    28    29   ar
    32    28    33   ar
    33    29    30   ar
    34    30    31   ar
    35    31    32   ar
    36    32    33   ar
