@<TRIPOS>MOLECULE
36265_ChemDiv_C200-3930
 29 32 0 0 0
SMALL
GASTEIGER
Energy = 0

@<TRIPOS>ATOM
      1 N          -0.8630    0.5000    0.0000 N.ar    1  LIG1       -0.1689
      2 C          -0.8630   -0.4960    0.0000 C.ar    1  LIG1        0.2009
      3 S          -1.8080   -0.8080    0.0000 S.2     1  LIG1       -0.0114
      4 C          -2.4000    0.0000    0.0000 C.ar    1  LIG1        0.2017
      5 N          -1.8080    0.8040    0.0000 N.ar    1  LIG1       -0.1372
      6 N          -3.4000    0.0080    0.0000 N.pl3   1  LIG1       -0.2085
      7 C          -3.9000   -0.8540    0.0000 C.3     1  LIG1        0.1407
      8 C          -4.8960   -0.8540    0.0000 C.ar    1  LIG1       -0.0006
      9 C          -5.3960   -1.7170    0.0000 C.ar    1  LIG1       -0.0026
     10 C          -6.3920   -1.7210    0.0000 C.ar    1  LIG1       -0.0003
     11 C          -6.9040   -0.8460    0.0000 C.ar    1  LIG1       -0.0000
     12 C          -6.3960    0.0170    0.0000 C.ar    1  LIG1       -0.0003
     13 C          -5.4000    0.0170    0.0000 C.ar    1  LIG1       -0.0026
     14 N           0.0040   -0.9960    0.0000 N.ar    1  LIG1       -0.2206
     15 C           0.8670   -0.4960    0.0000 C.ar    1  LIG1        0.0882
     16 C           0.8670    0.5000    0.0000 C.ar    1  LIG1        0.0756
     17 C           0.0040    1.0000    0.0000 C.ar    1  LIG1        0.2835
     18 O           0.0040    2.0000    0.0000 O.2     1  LIG1       -0.2650
     19 C           1.7290    1.0000    0.0000 C.ar    1  LIG1        0.0065
     20 C           2.5920    0.5000    0.0000 C.ar    1  LIG1        0.0048
     21 C           2.5920   -0.4960    0.0000 C.ar    1  LIG1        0.0565
     22 C           3.4710   -0.9960    0.0000 C.2     1  LIG1        0.2649
     23 O           3.4710   -1.9960    0.0000 O.2     1  LIG1       -0.2684
     24 N           4.3330   -0.4960    0.0000 N.am    1  LIG1       -0.1990
     25 C           5.2040   -1.0130    0.0000 C.3     1  LIG1        0.1474
     26 C           6.0670   -0.4960    0.0000 C.3     1  LIG1        0.1656
     27 O           6.0540    0.5000    0.0000 O.3     1  LIG1       -0.3492
     28 C           6.9040    1.0170    0.0000 C.3     1  LIG1        0.1742
     29 C           1.7290   -0.9960    0.0000 C.ar    1  LIG1        0.0239
@<TRIPOS>BOND
     1     1     2   ar
     2     1     5   ar
     3     1    17   ar
     4     2     3   ar
     5     2    14   ar
     6     3     4   ar
     7     4     5   ar
     8     4     6    1
     9     6     7    1
    10     7     8    1
    11     8     9   ar
    12     8    13   ar
    13     9    10   ar
    14    10    11   ar
    15    11    12   ar
    16    12    13   ar
    17    14    15   ar
    18    15    16   ar
    19    15    29   ar
    20    16    17   ar
    21    16    19   ar
    22    17    18    2
    23    19    20   ar
    24    20    21   ar
    25    21    22    1
    26    21    29   ar
    27    22    23    2
    28    22    24   am
    29    24    25    1
    30    25    26    1
    31    26    27    1
    32    27    28    1
