@<TRIPOS>MOLECULE
36260_ChemDiv_K511-0020
 31 35 0 0 0
SMALL
GASTEIGER
Energy = 0

@<TRIPOS>ATOM
      1 S          -0.6460    0.7210    0.0000 S.O2    1  LIG1        0.0633
      2 N           0.2250    1.2170    0.0000 N.3     1  LIG1       -0.1551
      3 C           1.0920    0.7330    0.0000 C.3     1  LIG1        0.1016
      4 C           2.0960    1.2170    0.0000 C.3     1  LIG1        0.0562
      5 C           2.9630    1.7040    0.0000 C.ar    1  LIG1        0.0409
      6 N           2.9630    2.6920    0.0000 N.ar    1  LIG1       -0.2991
      7 C           3.8250    3.1790    0.0000 C.ar    1  LIG1        0.2607
      8 C           4.6830    2.6750    0.0000 C.ar    1  LIG1        0.0608
      9 C           4.6790    1.6880    0.0000 C.ar    1  LIG1        0.0060
     10 C           3.8130    1.1960    0.0000 C.ar    1  LIG1        0.0130
     11 O           3.8250    4.1630    0.0000 O.2     1  LIG1       -0.2670
     12 C           2.1130    3.2040    0.0000 C.3     1  LIG1        0.1101
     13 C           1.2420    2.7080    0.0000 C.3     1  LIG1        0.0409
     14 C           0.2330    2.0330    0.0000 C.3     1  LIG1        0.0977
     15 C           1.2380    1.7170    0.0000 C.3     1  LIG1        0.0107
     16 C          -1.7000    0.1080    0.0000 C.ar    1  LIG1        0.1224
     17 C          -1.8170   -0.8670    0.0000 C.ar    1  LIG1        0.0246
     18 C          -2.7000   -1.2580    0.0000 C.ar    1  LIG1        0.0580
     19 C          -2.8040   -2.2170    0.0000 C.ar    1  LIG1        0.1996
     20 C          -3.6960   -2.6130    0.0000 C.ar    1  LIG1        0.0720
     21 C          -4.4750   -2.0330    0.0000 C.ar    1  LIG1        0.1031
     22 N          -4.3540   -1.0630    0.0000 N.ar    1  LIG1       -0.2436
     23 C          -3.4710   -0.6790    0.0000 C.ar    1  LIG1        0.0845
     24 C          -3.3630    0.2920    0.0000 C.ar    1  LIG1        0.0206
     25 C          -2.4880    0.6710    0.0000 C.ar    1  LIG1        0.0215
     26 C          -3.8000   -3.5880    0.0000 C.2     1  LIG1        0.0775
     27 O          -3.0330   -4.1630    0.0000 O.co2   1  LIG1       -0.5444
     28 O          -4.6880   -3.9710    0.0000 O.co2   1  LIG1       -0.5444
     29 O          -2.0290   -2.7960    0.0000 O.2     1  LIG1       -0.2864
     30 O          -0.2170   -0.2880    0.0000 O.2     1  LIG1       -0.1528
     31 O          -1.1040    1.7170    0.0000 O.2     1  LIG1       -0.1528
@<TRIPOS>BOND
     1     1     2    1
     2     1    16    1
     3     1    30    2
     4     1    31    2
     5     2     3    1
     6     2    14    1
     7     3     4    1
     8     4     5    1
     9     4    15    1
    10     5     6   ar
    11     5    10   ar
    12     6     7   ar
    13     6    12    1
    14     7     8   ar
    15     7    11    2
    16     8     9   ar
    17     9    10   ar
    18    12    13    1
    19    13    14    1
    20    13    15    1
    21    16    17   ar
    22    16    25   ar
    23    17    18   ar
    24    18    19   ar
    25    18    23   ar
    26    19    20   ar
    27    19    29    2
    28    20    21   ar
    29    20    26    1
    30    21    22   ar
    31    22    23   ar
    32    23    24   ar
    33    24    25   ar
    34    26    27   ar
    35    26    28   ar
