@<TRIPOS>MOLECULE
36268_ChemDiv_C224-2898
 25 27 0 0 0
SMALL
GASTEIGER
Energy = 0

@<TRIPOS>ATOM
      1 S           2.4790    1.3250    0.0000 S.O2    1  LIG1        0.0830
      2 C           2.4710    2.3290    0.0000 C.ar    1  LIG1        0.1535
      3 S           3.2670    2.8920    0.0000 S.2     1  LIG1       -0.0604
      4 C           2.9670    3.8580    0.0000 C.ar    1  LIG1        0.0651
      5 C           1.9790    3.8750    0.0000 C.ar    1  LIG1        0.0152
      6 C           1.6630    2.9210    0.0000 C.ar    1  LIG1        0.0277
      7 BR          3.5670    4.6710    0.0000 Br      1  LIG1       -0.0419
      8 N           2.4790    0.3210    0.0000 N.3     1  LIG1       -0.0674
      9 C           1.6080   -0.1790    0.0000 C.3     1  LIG1        0.2002
     10 C           1.6080   -1.1710    0.0000 C.2     1  LIG1        0.2456
     11 N           0.7460   -1.6710    0.0000 N.am    1  LIG1       -0.2739
     12 C          -0.1170   -1.1710    0.0000 C.3     1  LIG1        0.1196
     13 C          -0.9670   -1.6710    0.0000 C.2     1  LIG1       -0.0089
     14 C          -0.9750   -2.6790    0.0000 C.2     1  LIG1       -0.0231
     15 C          -0.1210   -3.1750    0.0000 C.3     1  LIG1        0.0476
     16 C           0.7460   -2.6790    0.0000 C.3     1  LIG1        0.0984
     17 C          -1.8380   -3.1750    0.0000 C.ar    1  LIG1       -0.0042
     18 C          -2.6960   -2.6790    0.0000 C.ar    1  LIG1       -0.0003
     19 C          -3.5710   -3.1750    0.0000 C.ar    1  LIG1       -0.0000
     20 C          -3.5710   -4.1750    0.0000 C.ar    1  LIG1       -0.0000
     21 C          -2.6960   -4.6710    0.0000 C.ar    1  LIG1       -0.0000
     22 C          -1.8380   -4.1750    0.0000 C.ar    1  LIG1       -0.0003
     23 O           2.4880   -1.6880    0.0000 O.2     1  LIG1       -0.2732
     24 O           1.4710    1.3330    0.0000 O.2     1  LIG1       -0.1511
     25 O           3.4790    1.3330    0.0000 O.2     1  LIG1       -0.1511
@<TRIPOS>BOND
     1     1     2    1
     2     1     8    1
     3     1    24    2
     4     1    25    2
     5     2     3   ar
     6     2     6   ar
     7     3     4   ar
     8     4     5   ar
     9     4     7    1
    10     5     6   ar
    11     8     9    1
    12     9    10    1
    13    10    11   am
    14    10    23    2
    15    11    12    1
    16    11    16    1
    17    12    13    1
    18    13    14    2
    19    14    15    1
    20    14    17    1
    21    15    16    1
    22    17    18   ar
    23    17    22   ar
    24    18    19   ar
    25    19    20   ar
    26    20    21   ar
    27    21    22   ar
