@<TRIPOS>MOLECULE
36269_ChemDiv_C200-3937
 41 45 0 0 0
SMALL
GASTEIGER
Energy = 0

@<TRIPOS>ATOM
      1 C          -0.7710    1.7880    0.0000 C.ar    1  LIG1        0.0767
      2 C          -0.7710    0.7880    0.0000 C.ar    1  LIG1        0.1168
      3 N           0.0920    0.2960    0.0000 N.ar    1  LIG1       -0.2155
      4 C           0.9500    0.7880    0.0000 C.ar    1  LIG1        0.1783
      5 N           0.9500    1.7880    0.0000 N.ar    1  LIG1       -0.2542
      6 C           0.0920    2.3000    0.0000 C.ar    1  LIG1        0.2677
      7 O           0.0920    3.3000    0.0000 O.2     1  LIG1       -0.2665
      8 C           1.8130    2.2830    0.0000 C.ar    1  LIG1        0.0689
      9 C           2.6830    1.7830    0.0000 C.ar    1  LIG1        0.0208
     10 C           3.5460    2.2710    0.0000 C.ar    1  LIG1        0.0384
     11 C           3.5460    3.2750    0.0000 C.ar    1  LIG1        0.1386
     12 C           2.6830    3.7830    0.0000 C.ar    1  LIG1        0.0384
     13 C           1.8210    3.2830    0.0000 C.ar    1  LIG1        0.0208
     14 O           4.4210    3.7670    0.0000 O.3     1  LIG1       -0.4755
     15 C           4.4210    4.7630    0.0000 C.3     1  LIG1        0.2055
     16 C           5.2920    5.2630    0.0000 C.3     1  LIG1        0.0512
     17 S           1.8210    0.2880    0.0000 S.3     1  LIG1       -0.0670
     18 C           1.8330   -0.7130    0.0000 C.3     1  LIG1        0.1519
     19 C           2.7130   -1.1880    0.0000 C.2     1  LIG1        0.2570
     20 N           2.7420   -2.1880    0.0000 N.am    1  LIG1       -0.1784
     21 C           1.8920   -2.7130    0.0000 C.ar    1  LIG1        0.0766
     22 C           1.0000   -2.2330    0.0000 C.ar    1  LIG1        0.0566
     23 C           0.1540   -2.7500    0.0000 C.ar    1  LIG1        0.1737
     24 C           0.1670   -3.7500    0.0000 C.ar    1  LIG1        0.1725
     25 C           1.0460   -4.2330    0.0000 C.ar    1  LIG1        0.0414
     26 C           1.9080   -3.7170    0.0000 C.ar    1  LIG1        0.0199
     27 O          -0.6830   -4.2630    0.0000 O.3     1  LIG1       -0.4684
     28 C          -0.6580   -5.2630    0.0000 C.3     1  LIG1        0.2526
     29 O          -0.7250   -2.2790    0.0000 O.3     1  LIG1       -0.4683
     30 C          -1.5750   -2.7960    0.0000 C.3     1  LIG1        0.2526
     31 O           3.5710   -0.6710    0.0000 O.2     1  LIG1       -0.2720
     32 S          -1.7290    0.4790    0.0000 S.2     1  LIG1       -0.0708
     33 C          -2.3170    1.2880    0.0000 C.ar    1  LIG1        0.0249
     34 C          -1.7290    2.1000    0.0000 C.ar    1  LIG1       -0.0102
     35 C          -2.1210    3.0080    0.0000 C.3     1  LIG1        0.0483
     36 C          -3.1210    3.1170    0.0000 C.3     1  LIG1        0.0984
     37 N          -3.7130    2.3130    0.0000 N.am    1  LIG1       -0.2746
     38 C          -3.3080    1.3880    0.0000 C.3     1  LIG1        0.1263
     39 C          -4.7130    2.4210    0.0000 C.2     1  LIG1        0.2264
     40 O          -5.2960    1.6170    0.0000 O.2     1  LIG1       -0.2748
     41 C          -5.1080    3.3330    0.0000 C.3     1  LIG1        0.0948
@<TRIPOS>BOND
     1     1     2   ar
     2     1     6   ar
     3     1    34   ar
     4     2     3   ar
     5     2    32   ar
     6     3     4   ar
     7     4     5   ar
     8     4    17    1
     9     5     6   ar
    10     5     8    1
    11     6     7    2
    12     8     9   ar
    13     8    13   ar
    14     9    10   ar
    15    10    11   ar
    16    11    12   ar
    17    11    14    1
    18    12    13   ar
    19    14    15    1
    20    15    16    1
    21    17    18    1
    22    18    19    1
    23    19    20   am
    24    19    31    2
    25    20    21    1
    26    21    22   ar
    27    21    26   ar
    28    22    23   ar
    29    23    24   ar
    30    23    29    1
    31    24    25   ar
    32    24    27    1
    33    25    26   ar
    34    27    28    1
    35    29    30    1
    36    32    33   ar
    37    33    34   ar
    38    33    38    1
    39    34    35    1
    40    35    36    1
    41    36    37    1
    42    37    38    1
    43    37    39   am
    44    39    40    2
    45    39    41    1
