@<TRIPOS>MOLECULE
36272_ChemDiv_C226-0587
 33 37 0 0 0
SMALL
GASTEIGER
Energy = 0

@<TRIPOS>ATOM
      1 C           1.6710    1.0170    0.0000 C.ar    1  LIG1        0.1763
      2 N           0.8960    1.5880    0.0000 N.ar    1  LIG1       -0.0723
      3 O           1.2000    2.5000    0.0000 O.2     1  LIG1       -0.3533
      4 C           2.1500    2.5000    0.0000 C.ar    1  LIG1        0.1770
      5 C           2.4460    1.5750    0.0000 C.ar    1  LIG1        0.0672
      6 C           2.7080    3.2540    0.0000 C.ar    1  LIG1        0.0374
      7 C           2.3170    4.1290    0.0000 C.ar    1  LIG1        0.0064
      8 C           2.8750    4.9000    0.0000 C.ar    1  LIG1        0.0421
      9 C           3.8290    4.7960    0.0000 C.ar    1  LIG1        0.1957
     10 C           4.2130    3.9330    0.0000 C.ar    1  LIG1        0.0421
     11 C           3.6630    3.1670    0.0000 C.ar    1  LIG1        0.0064
     12 O           4.3880    5.5790    0.0000 O.3     1  LIG1       -0.2866
     13 C           1.6710   -0.5790    0.0000 C.2     1  LIG1        0.2704
     14 N           0.8040   -1.0790    0.0000 N.am    1  LIG1       -0.2632
     15 C          -0.0630   -0.5790    0.0000 C.3     1  LIG1        0.1568
     16 C          -0.9130   -1.0790    0.0000 C.3     1  LIG1        0.1612
     17 N          -0.9250   -2.0920    0.0000 N.4     1  LIG1        0.3820
     18 C          -1.7920   -2.5880    0.0000 C.3     1  LIG1        0.1331
     19 C          -2.6540   -2.0920    0.0000 C.ar    1  LIG1        0.0328
     20 C          -2.6540   -1.0790    0.0000 C.ar    1  LIG1        0.0016
     21 C          -3.5130   -0.5790    0.0000 C.ar    1  LIG1       -0.0001
     22 C          -4.3920   -1.0790    0.0000 C.ar    1  LIG1       -0.0000
     23 C          -4.3920   -2.0920    0.0000 C.ar    1  LIG1       -0.0001
     24 C          -3.5130   -2.5960    0.0000 C.ar    1  LIG1        0.0016
     25 C          -1.7750   -3.5880    0.0000 C.ar    1  LIG1        0.0328
     26 C          -2.6380   -4.0830    0.0000 C.ar    1  LIG1        0.0016
     27 C          -2.6380   -5.0830    0.0000 C.ar    1  LIG1       -0.0001
     28 C          -1.7670   -5.5790    0.0000 C.ar    1  LIG1       -0.0000
     29 C          -0.9080   -5.0670    0.0000 C.ar    1  LIG1       -0.0001
     30 C          -0.9130   -4.0710    0.0000 C.ar    1  LIG1        0.0016
     31 C          -0.0460   -2.5880    0.0000 C.3     1  LIG1        0.1612
     32 C           0.8040   -2.0920    0.0000 C.3     1  LIG1        0.1568
     33 O           2.4960   -1.0630    0.0000 O.2     1  LIG1       -0.2681
@<TRIPOS>BOND
     1     1     2   ar
     2     1     5   ar
     3     1    13    1
     4     2     3   ar
     5     3     4   ar
     6     4     5   ar
     7     4     6    1
     8     6     7   ar
     9     6    11   ar
    10     7     8   ar
    11     8     9   ar
    12     9    10   ar
    13     9    12    1
    14    10    11   ar
    15    13    14   am
    16    13    33    2
    17    14    15    1
    18    14    32    1
    19    15    16    1
    20    16    17    1
    21    17    18    1
    22    17    31    1
    23    18    19    1
    24    18    25    1
    25    19    20   ar
    26    19    24   ar
    27    20    21   ar
    28    21    22   ar
    29    22    23   ar
    30    23    24   ar
    31    25    26   ar
    32    25    30   ar
    33    26    27   ar
    34    27    28   ar
    35    28    29   ar
    36    29    30   ar
    37    31    32    1
