@<TRIPOS>MOLECULE
36270_ChemDiv_C224-4968
 33 36 0 0 0
SMALL
GASTEIGER
Energy = 0

@<TRIPOS>ATOM
      1 S           3.7380    0.8630    0.0000 S.O2    1  LIG1        0.0148
      2 C           3.7330    1.8290    0.0000 C.ar    1  LIG1        0.1351
      3 S           2.8880    2.3000    0.0000 S.2     1  LIG1       -0.0683
      4 C           3.0790    3.2540    0.0000 C.ar    1  LIG1        0.0367
      5 C           4.0250    3.3630    0.0000 C.ar    1  LIG1        0.0089
      6 C           4.4330    2.4830    0.0000 C.ar    1  LIG1        0.0255
      7 C           3.7630   -0.1000    0.0000 C.3     1  LIG1        0.1661
      8 C           4.6040   -0.5750    0.0000 C.3     1  LIG1        0.1129
      9 C           4.6170   -1.5380    0.0000 C.2     1  LIG1        0.2474
     10 N           3.7790   -2.0250    0.0000 N.am    1  LIG1       -0.1792
     11 C           2.9330   -1.5420    0.0000 C.ar    1  LIG1        0.0734
     12 C           2.1170   -2.0420    0.0000 C.ar    1  LIG1        0.0167
     13 C           1.2670   -1.5880    0.0000 C.ar    1  LIG1        0.0058
     14 C           1.2380   -0.6210    0.0000 C.ar    1  LIG1        0.0537
     15 C          -0.2750    0.1500    0.0000 C.2     1  LIG1        0.2493
     16 N          -1.1420   -0.3500    0.0000 N.am    1  LIG1       -0.2716
     17 C          -2.0040    0.1500    0.0000 C.3     1  LIG1        0.1199
     18 C          -2.8540   -0.3500    0.0000 C.2     1  LIG1       -0.0089
     19 C          -2.8630   -1.3580    0.0000 C.2     1  LIG1       -0.0231
     20 C          -2.0080   -1.8540    0.0000 C.3     1  LIG1        0.0476
     21 C          -1.1420   -1.3580    0.0000 C.3     1  LIG1        0.0987
     22 C          -3.7250   -1.8540    0.0000 C.ar    1  LIG1       -0.0042
     23 C          -4.5920   -1.3580    0.0000 C.ar    1  LIG1       -0.0003
     24 C          -5.4670   -1.8540    0.0000 C.ar    1  LIG1       -0.0000
     25 C          -5.4670   -2.8580    0.0000 C.ar    1  LIG1       -0.0000
     26 C          -4.5920   -3.3580    0.0000 C.ar    1  LIG1       -0.0000
     27 C          -3.7250   -2.8580    0.0000 C.ar    1  LIG1       -0.0003
     28 O          -0.2170    1.1460    0.0000 O.2     1  LIG1       -0.2699
     29 C           2.0580   -0.1210    0.0000 C.ar    1  LIG1        0.0058
     30 C           2.9040   -0.5830    0.0000 C.ar    1  LIG1        0.0167
     31 O           5.4630   -2.0080    0.0000 O.2     1  LIG1       -0.2729
     32 O           2.7710    0.8630    0.0000 O.2     1  LIG1       -0.1681
     33 O           4.7080    0.8830    0.0000 O.2     1  LIG1       -0.1681
@<TRIPOS>BOND
     1     1     2    1
     2     1     7    1
     3     1    32    2
     4     1    33    2
     5     2     3   ar
     6     2     6   ar
     7     3     4   ar
     8     4     5   ar
     9     5     6   ar
    10     7     8    1
    11     8     9    1
    12     9    10   am
    13     9    31    2
    14    10    11    1
    15    11    12   ar
    16    11    30   ar
    17    12    13   ar
    18    13    14   ar
    19    14    15    1
    20    14    29   ar
    21    15    16   am
    22    15    28    2
    23    16    17    1
    24    16    21    1
    25    17    18    1
    26    18    19    2
    27    19    20    1
    28    19    22    1
    29    20    21    1
    30    22    23   ar
    31    22    27   ar
    32    23    24   ar
    33    24    25   ar
    34    25    26   ar
    35    26    27   ar
    36    29    30   ar
