@<TRIPOS>MOLECULE
36277_ChemDiv_C200-4575
 35 38 0 0 0
SMALL
GASTEIGER
Energy = 0

@<TRIPOS>ATOM
      1 C          -2.6080    1.7210    0.0000 C.ar    1  LIG1        0.1869
      2 S          -3.4790    2.2250    0.0000 S.O2    1  LIG1        0.0335
      3 C          -4.3420    2.7210    0.0000 C.ar    1  LIG1        0.1106
      4 C          -5.2130    2.2250    0.0000 C.ar    1  LIG1        0.0193
      5 C          -6.0750    2.7210    0.0000 C.ar    1  LIG1        0.0080
      6 C          -6.0750    3.7290    0.0000 C.ar    1  LIG1        0.0346
      7 C          -5.2130    4.2290    0.0000 C.ar    1  LIG1        0.0080
      8 C          -4.3420    3.7290    0.0000 C.ar    1  LIG1        0.0193
      9 BR         -6.9330    4.2250    0.0000 Br      1  LIG1       -0.0490
     10 O          -2.9710    3.0960    0.0000 O.2     1  LIG1       -0.1640
     11 O          -3.9670    1.3580    0.0000 O.2     1  LIG1       -0.1640
     12 C          -1.7460    2.2250    0.0000 C.ar    1  LIG1        0.3001
     13 N          -0.8830    1.7210    0.0000 N.ar    1  LIG1       -0.1816
     14 C          -0.8830    0.7250    0.0000 C.ar    1  LIG1        0.1934
     15 N          -1.7540    0.2250    0.0000 N.ar    1  LIG1       -0.2181
     16 C          -2.6170    0.7250    0.0000 C.ar    1  LIG1        0.1247
     17 S          -0.0210    0.2170    0.0000 S.3     1  LIG1       -0.0657
     18 C           0.8420    0.7250    0.0000 C.3     1  LIG1        0.1519
     19 C           1.7000    0.2250    0.0000 C.2     1  LIG1        0.2570
     20 N           2.5710    0.7250    0.0000 N.am    1  LIG1       -0.1785
     21 C           3.4380    0.2330    0.0000 C.ar    1  LIG1        0.0736
     22 C           3.4380   -0.7710    0.0000 C.ar    1  LIG1        0.0197
     23 C           4.3130   -1.2630    0.0000 C.ar    1  LIG1        0.0388
     24 C           5.1750   -0.7540    0.0000 C.ar    1  LIG1        0.1454
     25 O           6.0460   -1.2380    0.0000 O.3     1  LIG1       -0.4535
     26 C           6.0500   -2.2330    0.0000 C.ar    1  LIG1        0.1453
     27 C           5.2000   -2.7420    0.0000 C.ar    1  LIG1        0.0375
     28 C           5.2040   -3.7380    0.0000 C.ar    1  LIG1        0.0031
     29 C           6.0750   -4.2290    0.0000 C.ar    1  LIG1        0.0002
     30 C           6.9330   -3.7130    0.0000 C.ar    1  LIG1        0.0031
     31 C           6.9250   -2.7290    0.0000 C.ar    1  LIG1        0.0375
     32 C           5.1670    0.2580    0.0000 C.ar    1  LIG1        0.0388
     33 C           4.3000    0.7380    0.0000 C.ar    1  LIG1        0.0197
     34 O           1.7000   -0.7790    0.0000 O.2     1  LIG1       -0.2720
     35 O          -1.7460    3.2290    0.0000 O.2     1  LIG1       -0.2636
@<TRIPOS>BOND
     1     1     2    1
     2     1    12   ar
     3     1    16   ar
     4     2     3    1
     5     2    10    2
     6     2    11    2
     7     3     4   ar
     8     3     8   ar
     9     4     5   ar
    10     5     6   ar
    11     6     7   ar
    12     6     9    1
    13     7     8   ar
    14    12    13   ar
    15    12    35    2
    16    13    14   ar
    17    14    15   ar
    18    14    17    1
    19    15    16   ar
    20    17    18    1
    21    18    19    1
    22    19    20   am
    23    19    34    2
    24    20    21    1
    25    21    22   ar
    26    21    33   ar
    27    22    23   ar
    28    23    24   ar
    29    24    25    1
    30    24    32   ar
    31    25    26    1
    32    26    27   ar
    33    26    31   ar
    34    27    28   ar
    35    28    29   ar
    36    29    30   ar
    37    30    31   ar
    38    32    33   ar
