@<TRIPOS>MOLECULE
36275_ChemDiv_C200-4561
 25 28 0 0 0
SMALL
GASTEIGER
Energy = 0

@<TRIPOS>ATOM
      1 S           0.3290    2.9080    0.0000 S.O2    1  LIG1        0.0298
      2 C          -0.5210    2.4040    0.0000 C.ar    1  LIG1        0.1239
      3 C          -0.5210    1.4080    0.0000 C.ar    1  LIG1        0.0697
      4 N           0.3290    0.9080    0.0000 N.pl3   1  LIG1       -0.2763
      5 C           1.2000    1.4080    0.0000 C.ar    1  LIG1        0.0697
      6 C           1.2000    2.4040    0.0000 C.ar    1  LIG1        0.1239
      7 C           2.0630    2.9040    0.0000 C.ar    1  LIG1        0.0200
      8 C           2.9290    2.4080    0.0000 C.ar    1  LIG1        0.0014
      9 C           2.9290    1.4080    0.0000 C.ar    1  LIG1        0.0014
     10 C           2.0670    0.9080    0.0000 C.ar    1  LIG1        0.0162
     11 C           0.3420   -0.1000    0.0000 C.3     1  LIG1        0.1833
     12 C          -0.5290   -0.6040    0.0000 C.2     1  LIG1        0.2678
     13 N          -0.5210   -1.6000    0.0000 N.am    1  LIG1       -0.1528
     14 C          -1.3920   -2.1000    0.0000 C.ar    1  LIG1        0.1859
     15 N          -2.3460   -1.7960    0.0000 N.ar    1  LIG1       -0.2209
     16 C          -2.9330   -2.6080    0.0000 C.ar    1  LIG1        0.1079
     17 C          -2.3460   -3.4130    0.0000 C.ar    1  LIG1        0.0588
     18 S          -1.3920   -3.1040    0.0000 S.2     1  LIG1       -0.0491
     19 O          -1.3920   -0.1000    0.0000 O.2     1  LIG1       -0.2710
     20 C          -1.3920    0.9080    0.0000 C.ar    1  LIG1        0.0162
     21 C          -2.2540    1.4080    0.0000 C.ar    1  LIG1        0.0014
     22 C          -2.2540    2.4080    0.0000 C.ar    1  LIG1        0.0014
     23 C          -1.3830    2.9040    0.0000 C.ar    1  LIG1        0.0200
     24 O           1.2000    3.4170    0.0000 O.2     1  LIG1       -0.1642
     25 O          -0.5290    3.4170    0.0000 O.2     1  LIG1       -0.1642
@<TRIPOS>BOND
     1     1     2    1
     2     1     6    1
     3     1    24    2
     4     1    25    2
     5     2     3   ar
     6     2    23   ar
     7     3     4    1
     8     3    20   ar
     9     4     5    1
    10     4    11    1
    11     5     6   ar
    12     5    10   ar
    13     6     7   ar
    14     7     8   ar
    15     8     9   ar
    16     9    10   ar
    17    11    12    1
    18    12    13   am
    19    12    19    2
    20    13    14    1
    21    14    15   ar
    22    14    18   ar
    23    15    16   ar
    24    16    17   ar
    25    17    18   ar
    26    20    21   ar
    27    21    22   ar
    28    22    23   ar
