@<TRIPOS>MOLECULE
36273_ChemDiv_G233-0164
 30 34 0 0 0
SMALL
GASTEIGER
Energy = 0

@<TRIPOS>ATOM
      1 S           1.2920    3.0040    0.0000 S.O2    1  LIG1        0.0298
      2 C           0.4290    2.4920    0.0000 C.ar    1  LIG1        0.1239
      3 C           0.4290    1.4880    0.0000 C.ar    1  LIG1        0.0697
      4 N           1.2920    0.9920    0.0000 N.pl3   1  LIG1       -0.2763
      5 C           2.1630    1.4790    0.0000 C.ar    1  LIG1        0.0697
      6 C           2.1630    2.4880    0.0000 C.ar    1  LIG1        0.1239
      7 C           3.0290    2.9920    0.0000 C.ar    1  LIG1        0.0200
      8 C           3.9080    2.4790    0.0000 C.ar    1  LIG1        0.0014
      9 C           3.9040    1.4750    0.0000 C.ar    1  LIG1        0.0014
     10 C           3.0250    0.9790    0.0000 C.ar    1  LIG1        0.0162
     11 C           1.2750   -0.0080    0.0000 C.3     1  LIG1        0.1833
     12 C           0.4130   -0.5080    0.0000 C.2     1  LIG1        0.2661
     13 N           0.4080   -1.5170    0.0000 N.am    1  LIG1       -0.1776
     14 C          -0.4630   -2.0040    0.0000 C.ar    1  LIG1        0.0766
     15 C          -1.3170   -1.5000    0.0000 C.ar    1  LIG1        0.0566
     16 C          -2.1880   -2.0000    0.0000 C.ar    1  LIG1        0.1737
     17 C          -2.1880   -3.0000    0.0000 C.ar    1  LIG1        0.1725
     18 O          -3.0500   -3.4880    0.0000 O.3     1  LIG1       -0.4684
     19 C          -3.9130   -2.9880    0.0000 C.3     1  LIG1        0.2526
     20 C          -3.9040   -1.9920    0.0000 C.3     1  LIG1        0.2526
     21 O          -3.0420   -1.5040    0.0000 O.3     1  LIG1       -0.4683
     22 C          -1.3250   -3.4960    0.0000 C.ar    1  LIG1        0.0414
     23 C          -0.4630   -3.0040    0.0000 C.ar    1  LIG1        0.0199
     24 O          -0.4540    0.0080    0.0000 O.2     1  LIG1       -0.2711
     25 C          -0.4330    0.9960    0.0000 C.ar    1  LIG1        0.0162
     26 C          -1.2960    1.4880    0.0000 C.ar    1  LIG1        0.0014
     27 C          -1.2960    2.4920    0.0000 C.ar    1  LIG1        0.0014
     28 C          -0.4330    3.0040    0.0000 C.ar    1  LIG1        0.0200
     29 O           2.1630    3.5000    0.0000 O.2     1  LIG1       -0.1642
     30 O           0.4290    3.5000    0.0000 O.2     1  LIG1       -0.1642
@<TRIPOS>BOND
     1     1     2    1
     2     1     6    1
     3     1    29    2
     4     1    30    2
     5     2     3   ar
     6     2    28   ar
     7     3     4    1
     8     3    25   ar
     9     4     5    1
    10     4    11    1
    11     5     6   ar
    12     5    10   ar
    13     6     7   ar
    14     7     8   ar
    15     8     9   ar
    16     9    10   ar
    17    11    12    1
    18    12    13   am
    19    12    24    2
    20    13    14    1
    21    14    15   ar
    22    14    23   ar
    23    15    16   ar
    24    16    17   ar
    25    16    21    1
    26    17    18    1
    27    17    22   ar
    28    18    19    1
    29    19    20    1
    30    20    21    1
    31    22    23   ar
    32    25    26   ar
    33    26    27   ar
    34    27    28   ar
