@<TRIPOS>MOLECULE
36279_ChemDiv_C716-0602
 32 34 0 0 0
SMALL
GASTEIGER
Energy = 0

@<TRIPOS>ATOM
      1 C          -2.1420    0.2420    0.0000 C.ar    1  LIG1        0.1869
      2 S          -3.0210    0.7580    0.0000 S.O2    1  LIG1        0.0335
      3 C          -3.8960    1.2540    0.0000 C.ar    1  LIG1        0.1106
      4 C          -4.7540    0.7580    0.0000 C.ar    1  LIG1        0.0193
      5 C          -5.6290    1.2540    0.0000 C.ar    1  LIG1        0.0080
      6 C          -5.6290    2.2500    0.0000 C.ar    1  LIG1        0.0346
      7 C          -4.7540    2.7670    0.0000 C.ar    1  LIG1        0.0080
      8 C          -3.8960    2.2500    0.0000 C.ar    1  LIG1        0.0193
      9 BR         -6.4920    2.7540    0.0000 Br      1  LIG1       -0.0490
     10 O          -3.5170   -0.1170    0.0000 O.2     1  LIG1       -0.1640
     11 O          -2.5210    1.6170    0.0000 O.2     1  LIG1       -0.1640
     12 C          -1.2830    0.7580    0.0000 C.ar    1  LIG1        0.3001
     13 N          -0.4210    0.2420    0.0000 N.ar    1  LIG1       -0.1816
     14 C          -0.4210   -0.7540    0.0000 C.ar    1  LIG1        0.1934
     15 N          -1.2830   -1.2500    0.0000 N.ar    1  LIG1       -0.2181
     16 C          -2.1420   -0.7540    0.0000 C.ar    1  LIG1        0.1247
     17 S           0.4500   -1.2500    0.0000 S.3     1  LIG1       -0.0657
     18 C           1.3130   -0.7540    0.0000 C.3     1  LIG1        0.1519
     19 C           2.1750   -1.2500    0.0000 C.2     1  LIG1        0.2570
     20 N           3.0460   -0.7670    0.0000 N.am    1  LIG1       -0.1782
     21 C           3.9080   -1.2670    0.0000 C.ar    1  LIG1        0.0796
     22 C           4.7710   -0.7670    0.0000 C.ar    1  LIG1        0.0909
     23 C           4.7670    0.2330    0.0000 C.2     1  LIG1        0.3426
     24 O           3.8960    0.7250    0.0000 O.2     1  LIG1       -0.2448
     25 O           5.6250    0.7420    0.0000 O.3     1  LIG1       -0.4413
     26 C           6.4920    0.2420    0.0000 C.3     1  LIG1        0.2560
     27 C           5.6420   -1.2500    0.0000 C.ar    1  LIG1        0.0078
     28 C           5.6420   -2.2630    0.0000 C.ar    1  LIG1        0.0003
     29 C           4.7710   -2.7630    0.0000 C.ar    1  LIG1        0.0013
     30 C           3.9080   -2.2630    0.0000 C.ar    1  LIG1        0.0168
     31 O           2.1750   -2.2460    0.0000 O.2     1  LIG1       -0.2720
     32 O          -1.2830    1.7540    0.0000 O.2     1  LIG1       -0.2636
@<TRIPOS>BOND
     1     1     2    1
     2     1    12   ar
     3     1    16   ar
     4     2     3    1
     5     2    10    2
     6     2    11    2
     7     3     4   ar
     8     3     8   ar
     9     4     5   ar
    10     5     6   ar
    11     6     7   ar
    12     6     9    1
    13     7     8   ar
    14    12    13   ar
    15    12    32    2
    16    13    14   ar
    17    14    15   ar
    18    14    17    1
    19    15    16   ar
    20    17    18    1
    21    18    19    1
    22    19    20   am
    23    19    31    2
    24    20    21    1
    25    21    22   ar
    26    21    30   ar
    27    22    23    1
    28    22    27   ar
    29    23    24    2
    30    23    25    1
    31    25    26    1
    32    27    28   ar
    33    28    29   ar
    34    29    30   ar
