@<TRIPOS>MOLECULE
36284_ChemDiv_K977-0269
 36 40 0 0 0
SMALL
GASTEIGER
Energy = 0

@<TRIPOS>ATOM
      1 S           0.8630    4.3210    0.0000 S.O2    1  LIG1       -0.0036
      2 C           1.7330    3.8130    0.0000 C.3     1  LIG1        0.1820
      3 C           1.7330    2.8250    0.0000 C.3     1  LIG1        0.1937
      4 C           2.5960    2.3130    0.0000 C.2     1  LIG1        0.2671
      5 N           2.5960    1.3210    0.0000 N.am    1  LIG1       -0.1764
      6 C           1.7250    0.8130    0.0000 C.ar    1  LIG1        0.0883
      7 C           0.8630    1.3210    0.0000 C.ar    1  LIG1        0.0811
      8 N           0.8630    2.3130    0.0000 N.pl3   1  LIG1       -0.2269
      9 C          -0.0080    0.8130    0.0000 C.ar    1  LIG1        0.0176
     10 C          -0.0080   -0.1790    0.0000 C.ar    1  LIG1        0.0060
     11 C           0.8540   -0.6880    0.0000 C.ar    1  LIG1        0.0564
     12 C           0.8540   -1.6790    0.0000 C.2     1  LIG1        0.2651
     13 N          -0.0080   -2.1880    0.0000 N.am    1  LIG1       -0.1989
     14 C          -0.0080   -3.1790    0.0000 C.3     1  LIG1        0.1175
     15 C          -0.8790   -3.6920    0.0000 C.ar    1  LIG1       -0.0065
     16 C          -0.8460   -4.6790    0.0000 C.ar    1  LIG1       -0.0245
     17 C          -0.0080   -5.1920    0.0000 C.3     1  LIG1        0.0262
     18 C           0.8630   -4.6790    0.0000 C.3     1  LIG1        0.0068
     19 C           0.8630   -3.6920    0.0000 C.3     1  LIG1        0.0265
     20 C          -1.7170   -5.1920    0.0000 C.ar    1  LIG1       -0.0045
     21 C          -2.5880   -4.6790    0.0000 C.ar    1  LIG1       -0.0003
     22 C          -2.5880   -3.6920    0.0000 C.ar    1  LIG1       -0.0003
     23 C          -1.7170   -3.1790    0.0000 C.ar    1  LIG1       -0.0029
     24 O           1.7250   -2.1880    0.0000 O.2     1  LIG1       -0.2684
     25 C           1.7040   -0.1790    0.0000 C.ar    1  LIG1        0.0225
     26 O           3.4670    2.8250    0.0000 O.2     1  LIG1       -0.2711
     27 O           0.3540    3.4540    0.0000 O.2     1  LIG1       -0.1726
     28 O           1.3750    5.1920    0.0000 O.2     1  LIG1       -0.1726
     29 C          -0.0080    4.8290    0.0000 C.3     1  LIG1        0.1772
     30 C          -0.8790    4.3210    0.0000 C.ar    1  LIG1        0.0014
     31 C          -0.8790    3.3330    0.0000 C.ar    1  LIG1       -0.0003
     32 C          -1.7460    2.8250    0.0000 C.ar    1  LIG1        0.0294
     33 C          -2.6000    3.3330    0.0000 C.ar    1  LIG1        0.1401
     34 F          -3.4710    2.8250    0.0000 F       1  LIG1       -0.2042
     35 C          -2.6000    4.3210    0.0000 C.ar    1  LIG1        0.0294
     36 C          -1.7290    4.8290    0.0000 C.ar    1  LIG1       -0.0003
@<TRIPOS>BOND
     1     1     2    1
     2     1    27    2
     3     1    28    2
     4     1    29    1
     5     2     3    1
     6     3     4    1
     7     3     8    1
     8     4     5   am
     9     4    26    2
    10     5     6    1
    11     6     7   ar
    12     6    25   ar
    13     7     8    1
    14     7     9   ar
    15     9    10   ar
    16    10    11   ar
    17    11    12    1
    18    11    25   ar
    19    12    13   am
    20    12    24    2
    21    13    14    1
    22    14    15    1
    23    14    19    1
    24    15    16   ar
    25    15    23   ar
    26    16    17    1
    27    16    20   ar
    28    17    18    1
    29    18    19    1
    30    20    21   ar
    31    21    22   ar
    32    22    23   ar
    33    29    30    1
    34    30    31   ar
    35    30    36   ar
    36    31    32   ar
    37    32    33   ar
    38    33    34    1
    39    33    35   ar
    40    35    36   ar
