@<TRIPOS>MOLECULE
36280_ChemDiv_K977-0097
 30 33 0 0 0
SMALL
GASTEIGER
Energy = 0

@<TRIPOS>ATOM
      1 S           0.4290    3.0500    0.0000 S.O2    1  LIG1       -0.0036
      2 C           1.3000    2.5380    0.0000 C.3     1  LIG1        0.1820
      3 C           1.3000    1.5460    0.0000 C.3     1  LIG1        0.1937
      4 C           2.1580    1.0380    0.0000 C.2     1  LIG1        0.2671
      5 N           2.1580    0.0460    0.0000 N.am    1  LIG1       -0.1764
      6 C           1.2880   -0.4630    0.0000 C.ar    1  LIG1        0.0883
      7 C           0.4290    0.0460    0.0000 C.ar    1  LIG1        0.0811
      8 N           0.4290    1.0380    0.0000 N.pl3   1  LIG1       -0.2269
      9 C          -0.4420   -0.4630    0.0000 C.ar    1  LIG1        0.0176
     10 C          -0.4420   -1.4540    0.0000 C.ar    1  LIG1        0.0059
     11 C           0.4170   -1.9630    0.0000 C.ar    1  LIG1        0.0550
     12 C           0.4170   -2.9540    0.0000 C.2     1  LIG1        0.2491
     13 N          -0.4420   -3.4630    0.0000 N.am    1  LIG1       -0.2761
     14 C          -0.6540   -4.4250    0.0000 C.3     1  LIG1        0.0938
     15 C          -1.6420   -4.5460    0.0000 C.3     1  LIG1        0.0233
     16 C          -2.0630   -3.6330    0.0000 C.3     1  LIG1        0.0233
     17 C          -1.3130   -2.9540    0.0000 C.3     1  LIG1        0.0938
     18 O           1.2880   -3.4630    0.0000 O.2     1  LIG1       -0.2699
     19 C           1.2670   -1.4540    0.0000 C.ar    1  LIG1        0.0224
     20 O           3.0290    1.5460    0.0000 O.2     1  LIG1       -0.2711
     21 C          -0.4420    3.5580    0.0000 C.3     1  LIG1        0.1769
     22 C          -1.3130    3.0500    0.0000 C.ar    1  LIG1       -0.0026
     23 C          -2.1630    3.5580    0.0000 C.ar    1  LIG1       -0.0242
     24 C          -2.1630    4.5460    0.0000 C.3     1  LIG1        0.0307
     25 C          -3.0330    3.0500    0.0000 C.ar    1  LIG1       -0.0045
     26 C          -3.0330    2.0580    0.0000 C.ar    1  LIG1       -0.0003
     27 C          -2.1830    1.5460    0.0000 C.ar    1  LIG1       -0.0003
     28 C          -1.3130    2.0580    0.0000 C.ar    1  LIG1       -0.0029
     29 O           0.9380    3.9170    0.0000 O.2     1  LIG1       -0.1726
     30 O          -0.0830    2.1790    0.0000 O.2     1  LIG1       -0.1726
@<TRIPOS>BOND
     1     1     2    1
     2     1    21    1
     3     1    29    2
     4     1    30    2
     5     2     3    1
     6     3     4    1
     7     3     8    1
     8     4     5   am
     9     4    20    2
    10     5     6    1
    11     6     7   ar
    12     6    19   ar
    13     7     8    1
    14     7     9   ar
    15     9    10   ar
    16    10    11   ar
    17    11    12    1
    18    11    19   ar
    19    12    13   am
    20    12    18    2
    21    13    14    1
    22    13    17    1
    23    14    15    1
    24    15    16    1
    25    16    17    1
    26    21    22    1
    27    22    23   ar
    28    22    28   ar
    29    23    24    1
    30    23    25   ar
    31    25    26   ar
    32    26    27   ar
    33    27    28   ar
