@<TRIPOS>MOLECULE
36288_ChemDiv_C213-0081
 29 31 0 0 0
SMALL
GASTEIGER
Energy = 0

@<TRIPOS>ATOM
      1 C           3.4540   -1.7540    0.0000 C.ar    1  LIG1        0.0720
      2 C           2.5880   -1.2580    0.0000 C.ar    1  LIG1        0.1996
      3 C           1.7250   -1.7540    0.0000 C.ar    1  LIG1        0.0580
      4 C           0.8630   -1.2580    0.0000 C.ar    1  LIG1        0.0246
      5 C          -0.0040   -1.7540    0.0000 C.ar    1  LIG1        0.1238
      6 S          -0.8670   -1.2460    0.0000 S.O2    1  LIG1        0.0771
      7 N          -1.7420   -0.7460    0.0000 N.3     1  LIG1       -0.0728
      8 C          -1.7420    0.2460    0.0000 C.3     1  LIG1        0.1448
      9 C          -2.6000    0.7500    0.0000 C.ar    1  LIG1        0.0313
     10 C          -2.6000    1.7460    0.0000 C.ar    1  LIG1        0.1391
     11 C          -3.4670    2.2460    0.0000 C.ar    1  LIG1        0.0735
     12 C          -4.3250    1.7460    0.0000 C.ar    1  LIG1        0.1417
     13 C          -4.3250    0.7500    0.0000 C.ar    1  LIG1        0.0368
     14 C          -3.4670    0.2460    0.0000 C.ar    1  LIG1        0.0033
     15 O          -5.1920    2.2580    0.0000 O.3     1  LIG1       -0.4713
     16 C          -5.1920    3.2540    0.0000 C.3     1  LIG1        0.2525
     17 O          -1.7330    2.2630    0.0000 O.3     1  LIG1       -0.4716
     18 C          -0.8580    1.7630    0.0000 C.3     1  LIG1        0.2525
     19 O          -1.3750   -2.1210    0.0000 O.2     1  LIG1       -0.1516
     20 O          -0.3710   -0.3790    0.0000 O.2     1  LIG1       -0.1516
     21 C          -0.0040   -2.7540    0.0000 C.ar    1  LIG1        0.0215
     22 C           0.8630   -3.2500    0.0000 C.ar    1  LIG1        0.0206
     23 C           1.7250   -2.7540    0.0000 C.ar    1  LIG1        0.0845
     24 N           2.5880   -3.2500    0.0000 N.ar    1  LIG1       -0.2436
     25 C           3.4540   -2.7540    0.0000 C.ar    1  LIG1        0.1031
     26 O           2.5880   -0.2580    0.0000 O.2     1  LIG1       -0.2864
     27 C           4.3250   -1.2460    0.0000 C.2     1  LIG1        0.0775
     28 O           4.3250   -0.2460    0.0000 O.co2   1  LIG1       -0.5444
     29 O           5.1880   -1.7460    0.0000 O.co2   1  LIG1       -0.5444
@<TRIPOS>BOND
     1     1     2   ar
     2     1    25   ar
     3     1    27    1
     4     2     3   ar
     5     2    26    2
     6     3     4   ar
     7     3    23   ar
     8     4     5   ar
     9     5     6    1
    10     5    21   ar
    11     6     7    1
    12     6    19    2
    13     6    20    2
    14     7     8    1
    15     8     9    1
    16     9    10   ar
    17     9    14   ar
    18    10    11   ar
    19    10    17    1
    20    11    12   ar
    21    12    13   ar
    22    12    15    1
    23    13    14   ar
    24    15    16    1
    25    17    18    1
    26    21    22   ar
    27    22    23   ar
    28    23    24   ar
    29    24    25   ar
    30    27    28   ar
    31    27    29   ar
