@<TRIPOS>MOLECULE
36292_ChemDiv_C226-1499
 33 37 0 0 0
SMALL
GASTEIGER
Energy = 0

@<TRIPOS>ATOM
      1 C           1.7790    1.1540    0.0000 C.ar    1  LIG1        0.1763
      2 N           1.0250    1.7080    0.0000 N.ar    1  LIG1       -0.0723
      3 O           1.3290    2.5830    0.0000 O.2     1  LIG1       -0.3533
      4 C           2.2630    2.5830    0.0000 C.ar    1  LIG1        0.1771
      5 C           2.5460    1.6920    0.0000 C.ar    1  LIG1        0.0672
      6 C           2.7750    3.3540    0.0000 C.ar    1  LIG1        0.0404
      7 C           2.3710    4.1960    0.0000 C.ar    1  LIG1        0.0451
      8 C           2.8960    4.9670    0.0000 C.ar    1  LIG1        0.1958
      9 O           2.5040    5.8000    0.0000 O.3     1  LIG1       -0.2866
     10 C           3.8290    4.8920    0.0000 C.ar    1  LIG1        0.0420
     11 C           4.2290    4.0580    0.0000 C.ar    1  LIG1        0.0034
     12 C           3.7080    3.2880    0.0000 C.ar    1  LIG1        0.0033
     13 C           1.8290   -0.8000    0.0000 C.2     1  LIG1        0.2704
     14 N           0.9630   -1.2960    0.0000 N.am    1  LIG1       -0.2632
     15 C           0.0960   -0.8000    0.0000 C.3     1  LIG1        0.1568
     16 C          -0.7540   -1.2960    0.0000 C.3     1  LIG1        0.1612
     17 N          -0.7630   -2.3080    0.0000 N.4     1  LIG1        0.3820
     18 C          -1.6290   -2.8080    0.0000 C.3     1  LIG1        0.1331
     19 C          -2.4920   -2.3080    0.0000 C.ar    1  LIG1        0.0328
     20 C          -2.4920   -1.2960    0.0000 C.ar    1  LIG1        0.0016
     21 C          -3.3540   -0.8000    0.0000 C.ar    1  LIG1       -0.0001
     22 C          -4.2330   -1.2960    0.0000 C.ar    1  LIG1       -0.0000
     23 C          -4.2330   -2.3080    0.0000 C.ar    1  LIG1       -0.0001
     24 C          -3.3540   -2.8170    0.0000 C.ar    1  LIG1        0.0016
     25 C          -1.6130   -3.8040    0.0000 C.ar    1  LIG1        0.0328
     26 C          -2.4750   -4.3040    0.0000 C.ar    1  LIG1        0.0016
     27 C          -2.4750   -5.3000    0.0000 C.ar    1  LIG1       -0.0001
     28 C          -1.6080   -5.8000    0.0000 C.ar    1  LIG1       -0.0000
     29 C          -0.7460   -5.2830    0.0000 C.ar    1  LIG1       -0.0001
     30 C          -0.7540   -4.2880    0.0000 C.ar    1  LIG1        0.0016
     31 C           0.1130   -2.8080    0.0000 C.3     1  LIG1        0.1612
     32 C           0.9630   -2.3080    0.0000 C.3     1  LIG1        0.1568
     33 O           2.6210   -1.2830    0.0000 O.2     1  LIG1       -0.2681
@<TRIPOS>BOND
     1     1     2   ar
     2     1     5   ar
     3     1    13    1
     4     2     3   ar
     5     3     4   ar
     6     4     5   ar
     7     4     6    1
     8     6     7   ar
     9     6    12   ar
    10     7     8   ar
    11     8     9    1
    12     8    10   ar
    13    10    11   ar
    14    11    12   ar
    15    13    14   am
    16    13    33    2
    17    14    15    1
    18    14    32    1
    19    15    16    1
    20    16    17    1
    21    17    18    1
    22    17    31    1
    23    18    19    1
    24    18    25    1
    25    19    20   ar
    26    19    24   ar
    27    20    21   ar
    28    21    22   ar
    29    22    23   ar
    30    23    24   ar
    31    25    26   ar
    32    25    30   ar
    33    26    27   ar
    34    27    28   ar
    35    28    29   ar
    36    29    30   ar
    37    31    32    1
