@<TRIPOS>MOLECULE
36297_ChemDiv_C200-4104
 21 23 0 0 0
SMALL
GASTEIGER
Energy = 0

@<TRIPOS>ATOM
      1 S          -0.0080    2.2500    0.0000 S.O2    1  LIG1        0.0298
      2 C          -0.8710    1.7460    0.0000 C.ar    1  LIG1        0.1239
      3 C          -0.8710    0.7460    0.0000 C.ar    1  LIG1        0.0697
      4 N          -0.0080    0.2460    0.0000 N.pl3   1  LIG1       -0.2747
      5 C           0.8670    0.7460    0.0000 C.ar    1  LIG1        0.0697
      6 C           0.8670    1.7460    0.0000 C.ar    1  LIG1        0.1239
      7 C           1.7290    2.2460    0.0000 C.ar    1  LIG1        0.0200
      8 C           2.5920    1.7500    0.0000 C.ar    1  LIG1        0.0014
      9 C           2.5920    0.7460    0.0000 C.ar    1  LIG1        0.0014
     10 C           1.7290    0.2460    0.0000 C.ar    1  LIG1        0.0162
     11 C          -0.0080   -0.7540    0.0000 C.3     1  LIG1        0.2060
     12 C          -0.8710   -1.2540    0.0000 C.2     1  LIG1        0.3379
     13 O          -1.7380   -0.7540    0.0000 O.2     1  LIG1       -0.2482
     14 O          -0.8710   -2.2540    0.0000 O.3     1  LIG1       -0.4432
     15 C          -1.7380   -2.7540    0.0000 C.3     1  LIG1        0.2557
     16 C          -1.7330    0.2460    0.0000 C.ar    1  LIG1        0.0162
     17 C          -2.5960    0.7460    0.0000 C.ar    1  LIG1        0.0014
     18 C          -2.5960    1.7460    0.0000 C.ar    1  LIG1        0.0014
     19 C          -1.7330    2.2460    0.0000 C.ar    1  LIG1        0.0200
     20 O          -0.8710    2.7500    0.0000 O.2     1  LIG1       -0.1642
     21 O           0.8580    2.7580    0.0000 O.2     1  LIG1       -0.1642
@<TRIPOS>BOND
     1     1     2    1
     2     1     6    1
     3     1    20    2
     4     1    21    2
     5     2     3   ar
     6     2    19   ar
     7     3     4    1
     8     3    16   ar
     9     4     5    1
    10     4    11    1
    11     5     6   ar
    12     5    10   ar
    13     6     7   ar
    14     7     8   ar
    15     8     9   ar
    16     9    10   ar
    17    11    12    1
    18    12    13    2
    19    12    14    1
    20    14    15    1
    21    16    17   ar
    22    17    18   ar
    23    18    19   ar
