@<TRIPOS>MOLECULE
36294_ChemDiv_C226-2321
 28 30 0 0 0
SMALL
GASTEIGER
Energy = 0

@<TRIPOS>ATOM
      1 C          -0.9130    1.6460    0.0000 C.ar    1  LIG1        0.1777
      2 N          -1.6750    2.2210    0.0000 N.ar    1  LIG1       -0.0723
      3 O          -1.3670    3.1290    0.0000 O.2     1  LIG1       -0.3533
      4 C          -0.4040    3.1130    0.0000 C.ar    1  LIG1        0.1771
      5 C          -0.1250    2.2000    0.0000 C.ar    1  LIG1        0.0673
      6 C           0.1380    3.9000    0.0000 C.ar    1  LIG1        0.0381
      7 C           1.0920    3.8250    0.0000 C.ar    1  LIG1        0.0154
      8 C           1.6380    4.6210    0.0000 C.ar    1  LIG1        0.0683
      9 C           1.2210    5.4830    0.0000 C.ar    1  LIG1        0.0682
     10 C           0.2670    5.5460    0.0000 C.ar    1  LIG1        0.0123
     11 C          -0.2750    4.7750    0.0000 C.ar    1  LIG1        0.0040
     12 CL          1.7000    6.3130    0.0000 Cl      1  LIG1       -0.0814
     13 CL          2.6040    4.6250    0.0000 Cl      1  LIG1       -0.0814
     14 C          -0.8670    0.0790    0.0000 C.2     1  LIG1        0.2858
     15 O          -0.0540   -0.4210    0.0000 O.2     1  LIG1       -0.2666
     16 N          -1.7290   -0.4210    0.0000 N.am    1  LIG1       -0.1999
     17 C          -1.7290   -1.4210    0.0000 C.3     1  LIG1        0.1202
     18 C          -0.8670   -1.9170    0.0000 C.3     1  LIG1        0.0499
     19 C          -0.8710   -2.9170    0.0000 C.ar    1  LIG1       -0.0172
     20 C          -1.7460   -3.4130    0.0000 C.ar    1  LIG1        0.0358
     21 C          -1.7460   -4.4000    0.0000 C.ar    1  LIG1        0.1721
     22 C          -0.8710   -4.8960    0.0000 C.ar    1  LIG1        0.1724
     23 C          -0.0130   -4.4080    0.0000 C.ar    1  LIG1        0.0397
     24 C          -0.0250   -3.4080    0.0000 C.ar    1  LIG1       -0.0009
     25 O          -0.8670   -5.9080    0.0000 O.3     1  LIG1       -0.4684
     26 C           0.1540   -6.3130    0.0000 C.3     1  LIG1        0.2526
     27 O          -2.5960   -4.9080    0.0000 O.3     1  LIG1       -0.4684
     28 C          -2.6080   -5.8960    0.0000 C.3     1  LIG1        0.2526
@<TRIPOS>BOND
     1     1     2   ar
     2     1     5   ar
     3     1    14    1
     4     2     3   ar
     5     3     4   ar
     6     4     5   ar
     7     4     6    1
     8     6     7   ar
     9     6    11   ar
    10     7     8   ar
    11     8     9   ar
    12     8    13    1
    13     9    10   ar
    14     9    12    1
    15    10    11   ar
    16    14    15    2
    17    14    16   am
    18    16    17    1
    19    17    18    1
    20    18    19    1
    21    19    20   ar
    22    19    24   ar
    23    20    21   ar
    24    21    22   ar
    25    21    27    1
    26    22    23   ar
    27    22    25    1
    28    23    24   ar
    29    25    26    1
    30    27    28    1
