@<TRIPOS>MOLECULE
36290_ChemDiv_C226-1157
 35 40 0 0 0
SMALL
GASTEIGER
Energy = 0

@<TRIPOS>ATOM
      1 C           1.2040    1.2130    0.0000 C.ar    1  LIG1        0.1763
      2 N           0.4460    1.7830    0.0000 N.ar    1  LIG1       -0.0723
      3 O           0.7500    2.6790    0.0000 O.2     1  LIG1       -0.3533
      4 C           1.7040    2.6710    0.0000 C.ar    1  LIG1        0.1771
      5 C           1.9880    1.7670    0.0000 C.ar    1  LIG1        0.0672
      6 C           2.2290    3.4500    0.0000 C.ar    1  LIG1        0.0404
      7 C           3.1790    3.3830    0.0000 C.ar    1  LIG1        0.0433
      8 C           3.6960    4.1580    0.0000 C.ar    1  LIG1        0.1765
      9 C           3.3040    5.0130    0.0000 C.ar    1  LIG1        0.1764
     10 O           3.9830    5.6670    0.0000 O.3     1  LIG1       -0.4346
     11 C           4.8080    5.2170    0.0000 C.3     1  LIG1        0.4294
     12 O           4.6330    4.2880    0.0000 O.3     1  LIG1       -0.4346
     13 C           2.3500    5.0880    0.0000 C.ar    1  LIG1        0.0403
     14 C           1.8250    4.3210    0.0000 C.ar    1  LIG1        0.0064
     15 C           1.2500   -0.6630    0.0000 C.2     1  LIG1        0.2704
     16 N           0.3880   -1.1580    0.0000 N.am    1  LIG1       -0.2632
     17 C          -0.4830   -0.6630    0.0000 C.3     1  LIG1        0.1568
     18 C          -1.3330   -1.1580    0.0000 C.3     1  LIG1        0.1612
     19 N          -1.3460   -2.1710    0.0000 N.4     1  LIG1        0.3820
     20 C          -2.2130   -2.6710    0.0000 C.3     1  LIG1        0.1331
     21 C          -3.0750   -2.1710    0.0000 C.ar    1  LIG1        0.0328
     22 C          -3.0750   -1.1580    0.0000 C.ar    1  LIG1        0.0016
     23 C          -3.9330   -0.6630    0.0000 C.ar    1  LIG1       -0.0001
     24 C          -4.8130   -1.1580    0.0000 C.ar    1  LIG1       -0.0000
     25 C          -4.8130   -2.1710    0.0000 C.ar    1  LIG1       -0.0001
     26 C          -3.9330   -2.6790    0.0000 C.ar    1  LIG1        0.0016
     27 C          -2.1960   -3.6710    0.0000 C.ar    1  LIG1        0.0328
     28 C          -3.0580   -4.1670    0.0000 C.ar    1  LIG1        0.0016
     29 C          -3.0580   -5.1670    0.0000 C.ar    1  LIG1       -0.0001
     30 C          -2.1880   -5.6670    0.0000 C.ar    1  LIG1       -0.0000
     31 C          -1.3290   -5.1500    0.0000 C.ar    1  LIG1       -0.0001
     32 C          -1.3330   -4.1540    0.0000 C.ar    1  LIG1        0.0016
     33 C          -0.4670   -2.6710    0.0000 C.3     1  LIG1        0.1612
     34 C           0.3880   -2.1710    0.0000 C.3     1  LIG1        0.1568
     35 O           2.0580   -1.1580    0.0000 O.2     1  LIG1       -0.2681
@<TRIPOS>BOND
     1     1     2   ar
     2     1     5   ar
     3     1    15    1
     4     2     3   ar
     5     3     4   ar
     6     4     5   ar
     7     4     6    1
     8     6     7   ar
     9     6    14   ar
    10     7     8   ar
    11     8     9   ar
    12     8    12    1
    13     9    10    1
    14     9    13   ar
    15    10    11    1
    16    11    12    1
    17    13    14   ar
    18    15    16   am
    19    15    35    2
    20    16    17    1
    21    16    34    1
    22    17    18    1
    23    18    19    1
    24    19    20    1
    25    19    33    1
    26    20    21    1
    27    20    27    1
    28    21    22   ar
    29    21    26   ar
    30    22    23   ar
    31    23    24   ar
    32    24    25   ar
    33    25    26   ar
    34    27    28   ar
    35    27    32   ar
    36    28    29   ar
    37    29    30   ar
    38    30    31   ar
    39    31    32   ar
    40    33    34    1
