@<TRIPOS>MOLECULE
36296_ChemDiv_R314-0020
 17 19 0 0 0
SMALL
GASTEIGER
Energy = 0

@<TRIPOS>ATOM
      1 C           1.8290   -0.7000    0.0000 C.ar    1  LIG1        0.1369
      2 N           1.5420   -1.6670    0.0000 N.ar    1  LIG1       -0.0758
      3 O           0.5420   -1.6880    0.0000 O.2     1  LIG1       -0.3534
      4 C           0.2000   -0.7460    0.0000 C.ar    1  LIG1        0.1770
      5 C           1.0000   -0.1330    0.0000 C.ar    1  LIG1        0.0637
      6 C          -0.7500   -0.4670    0.0000 C.ar    1  LIG1        0.0404
      7 C          -0.9750    0.5040    0.0000 C.ar    1  LIG1        0.0433
      8 C          -1.9380    0.7920    0.0000 C.ar    1  LIG1        0.1765
      9 C          -2.6630    0.0960    0.0000 C.ar    1  LIG1        0.1764
     10 O          -3.5380    0.5750    0.0000 O.3     1  LIG1       -0.4346
     11 C          -3.3630    1.5540    0.0000 C.3     1  LIG1        0.4294
     12 O          -2.3750    1.6920    0.0000 O.3     1  LIG1       -0.4346
     13 C          -2.4210   -0.8710    0.0000 C.ar    1  LIG1        0.0403
     14 C          -1.4630   -1.1540    0.0000 C.ar    1  LIG1        0.0064
     15 C           2.7790   -0.3580    0.0000 C.2     1  LIG1        0.0938
     16 O           2.9630    0.6210    0.0000 O.co2   1  LIG1       -0.5429
     17 O           3.5330   -1.0170    0.0000 O.co2   1  LIG1       -0.5429
@<TRIPOS>BOND
     1     1     2   ar
     2     1     5   ar
     3     1    15    1
     4     2     3   ar
     5     3     4   ar
     6     4     5   ar
     7     4     6    1
     8     6     7   ar
     9     6    14   ar
    10     7     8   ar
    11     8     9   ar
    12     8    12    1
    13     9    10    1
    14     9    13   ar
    15    10    11    1
    16    11    12    1
    17    13    14   ar
    18    15    16   ar
    19    15    17   ar
