@<TRIPOS>MOLECULE
36291_ChemDiv_K310-0066
 34 39 0 0 0
SMALL
GASTEIGER
Energy = 0

@<TRIPOS>ATOM
      1 N           2.4500    0.5920    0.0000 N.ar    1  LIG1       -0.1713
      2 C           1.5710    1.0920    0.0000 C.ar    1  LIG1        0.2836
      3 C           0.7080    0.5920    0.0000 C.ar    1  LIG1        0.0785
      4 C           0.7080   -0.4210    0.0000 C.ar    1  LIG1        0.1173
      5 N           1.5830   -0.9170    0.0000 N.ar    1  LIG1       -0.2143
      6 C           2.4500   -0.4210    0.0000 C.ar    1  LIG1        0.1950
      7 S           3.3210   -0.9210    0.0000 S.3     1  LIG1       -0.0690
      8 C           4.1880   -0.4170    0.0000 C.3     1  LIG1        0.1125
      9 C           4.1880    0.5960    0.0000 C.2     1  LIG1        0.0904
     10 N           3.3130    1.1080    0.0000 N.2     1  LIG1       -0.1643
     11 C           5.0500    1.0960    0.0000 C.ar    1  LIG1        0.0161
     12 C           5.9130    0.5920    0.0000 C.ar    1  LIG1        0.0013
     13 C           6.7750    1.0920    0.0000 C.ar    1  LIG1        0.0000
     14 C           6.7750    2.0960    0.0000 C.ar    1  LIG1        0.0000
     15 C           5.9080    2.5880    0.0000 C.ar    1  LIG1        0.0000
     16 C           5.0460    2.0920    0.0000 C.ar    1  LIG1        0.0013
     17 S          -0.2290   -0.7330    0.0000 S.2     1  LIG1       -0.0635
     18 C          -0.8210    0.0670    0.0000 C.ar    1  LIG1        0.0824
     19 C          -0.2460    0.8830    0.0000 C.ar    1  LIG1       -0.0047
     20 C          -0.5630    1.8330    0.0000 C.3     1  LIG1        0.0319
     21 C          -1.8170    0.0630    0.0000 C.2     1  LIG1        0.2747
     22 N          -2.3080   -0.8080    0.0000 N.am    1  LIG1       -0.1749
     23 C          -3.3040   -0.8250    0.0000 C.ar    1  LIG1        0.0769
     24 C          -3.7830   -1.6880    0.0000 C.ar    1  LIG1        0.0566
     25 C          -4.7830   -1.7040    0.0000 C.ar    1  LIG1        0.1737
     26 C          -5.2960   -0.8460    0.0000 C.ar    1  LIG1        0.1725
     27 O          -6.2830   -0.8630    0.0000 O.3     1  LIG1       -0.4684
     28 C          -6.7750   -1.7330    0.0000 C.3     1  LIG1        0.2526
     29 C          -6.2630   -2.5830    0.0000 C.3     1  LIG1        0.2526
     30 O          -5.2670   -2.5710    0.0000 O.3     1  LIG1       -0.4683
     31 C          -4.8040    0.0330    0.0000 C.ar    1  LIG1        0.0414
     32 C          -3.8040    0.0380    0.0000 C.ar    1  LIG1        0.0199
     33 O          -2.3330    0.9170    0.0000 O.2     1  LIG1       -0.2675
     34 O           1.5710    2.0920    0.0000 O.2     1  LIG1       -0.2650
@<TRIPOS>BOND
     1     1     2   ar
     2     1     6   ar
     3     1    10    1
     4     2     3   ar
     5     2    34    2
     6     3     4   ar
     7     3    19   ar
     8     4     5   ar
     9     4    17   ar
    10     5     6   ar
    11     6     7    1
    12     7     8    1
    13     8     9    1
    14     9    10    2
    15     9    11    1
    16    11    12   ar
    17    11    16   ar
    18    12    13   ar
    19    13    14   ar
    20    14    15   ar
    21    15    16   ar
    22    17    18   ar
    23    18    19   ar
    24    18    21    1
    25    19    20    1
    26    21    22   am
    27    21    33    2
    28    22    23    1
    29    23    24   ar
    30    23    32   ar
    31    24    25   ar
    32    25    26   ar
    33    25    30    1
    34    26    27    1
    35    26    31   ar
    36    27    28    1
    37    28    29    1
    38    29    30    1
    39    31    32   ar
