@<TRIPOS>MOLECULE
36302_ChemDiv_C226-1754
 23 26 0 0 0
SMALL
GASTEIGER
Energy = 0

@<TRIPOS>ATOM
      1 C           0.7460    0.5040    0.0000 C.ar    1  LIG1        0.1764
      2 C           0.8040   -1.1830    0.0000 C.2     1  LIG1        0.2700
      3 N          -0.0540   -1.6790    0.0000 N.am    1  LIG1       -0.2764
      4 C          -0.8750   -1.0790    0.0000 C.3     1  LIG1        0.0757
      5 C          -1.1290   -2.0130    0.0000 C.3     1  LIG1        0.0215
      6 C          -0.6830   -3.2380    0.0000 C.3     1  LIG1        0.0199
      7 C           0.0500   -2.5580    0.0000 C.3     1  LIG1        0.0936
      8 C          -1.7170   -3.0210    0.0000 C.3     1  LIG1        0.0018
      9 C          -2.1750   -2.0920    0.0000 C.3     1  LIG1        0.0016
     10 C          -1.7170   -1.2080    0.0000 C.3     1  LIG1        0.0198
     11 C          -3.0080   -1.5920    0.0000 C.3     1  LIG1        0.0001
     12 C          -2.8580   -2.7710    0.0000 C.3     1  LIG1        0.0001
     13 C          -0.4330   -4.1710    0.0000 C.3     1  LIG1        0.0018
     14 O           1.6000   -1.6790    0.0000 O.2     1  LIG1       -0.2681
     15 C           1.5170    1.0460    0.0000 C.ar    1  LIG1        0.0704
     16 C           1.2540    1.9630    0.0000 C.ar    1  LIG1        0.2113
     17 O           0.3080    1.9790    0.0000 O.2     1  LIG1       -0.3501
     18 N           0.0000    1.0960    0.0000 N.ar    1  LIG1       -0.0722
     19 C           1.8000    2.7250    0.0000 C.ar    1  LIG1        0.1824
     20 O           2.7380    2.7420    0.0000 O.2     1  LIG1       -0.4472
     21 C           3.0040    3.6420    0.0000 C.ar    1  LIG1        0.1798
     22 C           2.2210    4.1710    0.0000 C.ar    1  LIG1        0.0439
     23 C           1.4830    3.6170    0.0000 C.ar    1  LIG1        0.0440
@<TRIPOS>BOND
     1     1     2    1
     2     1    15   ar
     3     1    18   ar
     4     2     3   am
     5     2    14    2
     6     3     4    1
     7     3     7    1
     8     4     5    1
     9     4    10    1
    10     5     6    1
    11     6     7    1
    12     6     8    1
    13     6    13    1
    14     8     9    1
    15     9    10    1
    16     9    11    1
    17     9    12    1
    18    15    16   ar
    19    16    17   ar
    20    16    19    1
    21    17    18   ar
    22    19    20   ar
    23    19    23   ar
    24    20    21   ar
    25    21    22   ar
    26    22    23   ar
