@<TRIPOS>MOLECULE
36304_ChemDiv_C226-3323
 30 34 0 0 0
SMALL
GASTEIGER
Energy = 0

@<TRIPOS>ATOM
      1 C           1.8290    2.1500    0.0000 C.ar    1  LIG1        0.1718
      2 N           1.1460    2.8040    0.0000 N.ar    1  LIG1       -0.0730
      3 O           1.4290    3.6960    0.0000 O.2     1  LIG1       -0.3580
      4 C           2.3710    3.7080    0.0000 C.ar    1  LIG1        0.1505
      5 C           2.6670    2.8170    0.0000 C.ar    1  LIG1        0.0360
      6 C           3.5750    2.6330    0.0000 C.3     1  LIG1        0.0310
      7 C           4.1960    3.3250    0.0000 C.3     1  LIG1        0.0053
      8 C           3.8960    4.2170    0.0000 C.3     1  LIG1        0.0084
      9 C           2.9880    4.4000    0.0000 C.3     1  LIG1        0.0670
     10 C           1.8580    0.6000    0.0000 C.2     1  LIG1        0.2701
     11 N           0.9960    0.1000    0.0000 N.am    1  LIG1       -0.2632
     12 C           0.1290    0.6000    0.0000 C.3     1  LIG1        0.1568
     13 C          -0.7210    0.1000    0.0000 C.3     1  LIG1        0.1612
     14 N          -0.7330   -0.9130    0.0000 N.4     1  LIG1        0.3820
     15 C          -1.6000   -1.4080    0.0000 C.3     1  LIG1        0.1331
     16 C          -2.4630   -0.9130    0.0000 C.ar    1  LIG1        0.0328
     17 C          -2.4630    0.1000    0.0000 C.ar    1  LIG1        0.0016
     18 C          -3.3210    0.6000    0.0000 C.ar    1  LIG1       -0.0001
     19 C          -4.2000    0.1000    0.0000 C.ar    1  LIG1       -0.0000
     20 C          -4.2000   -0.9130    0.0000 C.ar    1  LIG1       -0.0001
     21 C          -3.3210   -1.4170    0.0000 C.ar    1  LIG1        0.0016
     22 C          -1.5830   -2.4080    0.0000 C.ar    1  LIG1        0.0328
     23 C          -2.4460   -2.9040    0.0000 C.ar    1  LIG1        0.0016
     24 C          -2.4460   -3.9040    0.0000 C.ar    1  LIG1       -0.0001
     25 C          -1.5790   -4.4000    0.0000 C.ar    1  LIG1       -0.0000
     26 C          -0.7170   -3.8880    0.0000 C.ar    1  LIG1       -0.0001
     27 C          -0.7210   -2.8920    0.0000 C.ar    1  LIG1        0.0016
     28 C           0.1460   -1.4080    0.0000 C.3     1  LIG1        0.1612
     29 C           0.9960   -0.9130    0.0000 C.3     1  LIG1        0.1568
     30 O           2.6670    0.1080    0.0000 O.2     1  LIG1       -0.2681
@<TRIPOS>BOND
     1     1     2   ar
     2     1     5   ar
     3     1    10    1
     4     2     3   ar
     5     3     4   ar
     6     4     5   ar
     7     4     9    1
     8     5     6    1
     9     6     7    1
    10     7     8    1
    11     8     9    1
    12    10    11   am
    13    10    30    2
    14    11    12    1
    15    11    29    1
    16    12    13    1
    17    13    14    1
    18    14    15    1
    19    14    28    1
    20    15    16    1
    21    15    22    1
    22    16    17   ar
    23    16    21   ar
    24    17    18   ar
    25    18    19   ar
    26    19    20   ar
    27    20    21   ar
    28    22    23   ar
    29    22    27   ar
    30    23    24   ar
    31    24    25   ar
    32    25    26   ar
    33    26    27   ar
    34    28    29    1
