@<TRIPOS>MOLECULE
36303_ChemDiv_C200-4163
 32 36 0 0 0
SMALL
GASTEIGER
Energy = 0

@<TRIPOS>ATOM
      1 C          -0.4500    3.0250    0.0000 C.ar    1  LIG1        0.2402
      2 N          -1.3210    2.5250    0.0000 N.ar    1  LIG1       -0.2627
      3 C          -2.1830    3.0250    0.0000 C.ar    1  LIG1        0.0789
      4 C          -2.1830    4.0130    0.0000 C.ar    1  LIG1        0.1019
      5 C          -1.3210    4.5170    0.0000 C.ar    1  LIG1        0.2705
      6 N          -0.4500    4.0130    0.0000 N.ar    1  LIG1       -0.2627
      7 C           0.4170    4.5290    0.0000 C.3     1  LIG1        0.1366
      8 O          -1.3210    5.5210    0.0000 O.2     1  LIG1       -0.2663
      9 S          -3.1330    4.3210    0.0000 S.2     1  LIG1       -0.0802
     10 C          -3.7210    3.5250    0.0000 C.ar    1  LIG1        0.0371
     11 C          -3.1330    2.7130    0.0000 C.ar    1  LIG1        0.0253
     12 C          -1.1080    1.5460    0.0000 C.ar    1  LIG1        0.1487
     13 N          -0.1170    1.4380    0.0000 N.ar    1  LIG1       -0.1315
     14 N           0.2960    2.3460    0.0000 N.ar    1  LIG1       -0.1100
     15 C          -1.7710    0.7920    0.0000 C.3     1  LIG1        0.0759
     16 C          -1.4540   -0.1540    0.0000 C.3     1  LIG1        0.0952
     17 C          -2.1170   -0.8960    0.0000 C.2     1  LIG1        0.2460
     18 N          -1.8080   -1.8420    0.0000 N.am    1  LIG1       -0.1792
     19 C          -0.8380   -2.0460    0.0000 C.ar    1  LIG1        0.0736
     20 C          -0.5210   -2.9960    0.0000 C.ar    1  LIG1        0.0197
     21 C           0.4630   -3.2040    0.0000 C.ar    1  LIG1        0.0388
     22 C           1.1250   -2.4500    0.0000 C.ar    1  LIG1        0.1454
     23 O           2.1210   -2.6630    0.0000 O.3     1  LIG1       -0.4535
     24 C           2.4290   -3.6130    0.0000 C.ar    1  LIG1        0.1453
     25 C           1.7670   -4.3500    0.0000 C.ar    1  LIG1        0.0375
     26 C           2.0750   -5.3000    0.0000 C.ar    1  LIG1        0.0031
     27 C           3.0540   -5.5210    0.0000 C.ar    1  LIG1        0.0002
     28 C           3.7170   -4.7750    0.0000 C.ar    1  LIG1        0.0031
     29 C           3.4130   -3.8250    0.0000 C.ar    1  LIG1        0.0375
     30 C           0.8080   -1.5130    0.0000 C.ar    1  LIG1        0.0388
     31 C          -0.1580   -1.3000    0.0000 C.ar    1  LIG1        0.0197
     32 O          -3.1000   -0.6880    0.0000 O.2     1  LIG1       -0.2730
@<TRIPOS>BOND
     1     1     2   ar
     2     1     6   ar
     3     1    14   ar
     4     2     3   ar
     5     2    12   ar
     6     3     4   ar
     7     3    11   ar
     8     4     5   ar
     9     4     9   ar
    10     5     6   ar
    11     5     8    2
    12     6     7    1
    13     9    10   ar
    14    10    11   ar
    15    12    13   ar
    16    12    15    1
    17    13    14   ar
    18    15    16    1
    19    16    17    1
    20    17    18   am
    21    17    32    2
    22    18    19    1
    23    19    20   ar
    24    19    31   ar
    25    20    21   ar
    26    21    22   ar
    27    22    23    1
    28    22    30   ar
    29    23    24    1
    30    24    25   ar
    31    24    29   ar
    32    25    26   ar
    33    26    27   ar
    34    27    28   ar
    35    28    29   ar
    36    30    31   ar
