@<TRIPOS>MOLECULE
36307_ChemDiv_G195-0043
 25 27 0 0 0
SMALL
GASTEIGER
Energy = 0

@<TRIPOS>ATOM
      1 C          -1.7250   -0.4830    0.0000 C.ar    1  LIG1        0.2883
      2 N          -2.5880   -1.0040    0.0000 N.ar    1  LIG1       -0.2699
      3 C          -2.5880   -2.0080    0.0000 C.ar    1  LIG1        0.1036
      4 C          -1.7250   -2.5080    0.0000 C.ar    1  LIG1        0.1186
      5 N          -0.8540   -2.0080    0.0000 N.ar    1  LIG1       -0.2312
      6 C          -0.8540   -1.0040    0.0000 C.ar    1  LIG1        0.1636
      7 S           0.0130   -0.4960    0.0000 S.3     1  LIG1       -0.0804
      8 C           0.0080    0.5000    0.0000 C.3     1  LIG1        0.1506
      9 C           0.8710    1.0000    0.0000 C.2     1  LIG1        0.2570
     10 N           1.7330    0.5040    0.0000 N.am    1  LIG1       -0.1785
     11 C           2.5960    1.0170    0.0000 C.ar    1  LIG1        0.0731
     12 C           3.4630    0.5170    0.0000 C.ar    1  LIG1        0.0123
     13 C           4.3170    1.0170    0.0000 C.ar    1  LIG1       -0.0206
     14 C           4.3080    2.0130    0.0000 C.ar    1  LIG1       -0.0042
     15 C           3.4420    2.5130    0.0000 C.ar    1  LIG1        0.0010
     16 C           2.5830    2.0040    0.0000 C.ar    1  LIG1        0.0166
     17 C           5.1830    0.5210    0.0000 C.3     1  LIG1        0.0311
     18 O           0.8580    2.0000    0.0000 O.2     1  LIG1       -0.2720
     19 C          -3.4500   -0.4960    0.0000 C.ar    1  LIG1        0.0670
     20 C          -4.3170   -0.9960    0.0000 C.ar    1  LIG1        0.0176
     21 C          -5.1790   -0.4960    0.0000 C.ar    1  LIG1        0.0015
     22 C          -5.1880    0.5040    0.0000 C.ar    1  LIG1        0.0001
     23 C          -4.3130    1.0000    0.0000 C.ar    1  LIG1        0.0015
     24 C          -3.4500    0.5000    0.0000 C.ar    1  LIG1        0.0176
     25 O          -1.7250    0.5170    0.0000 O.2     1  LIG1       -0.2644
@<TRIPOS>BOND
     1     1     2   ar
     2     1     6   ar
     3     1    25    2
     4     2     3   ar
     5     2    19    1
     6     3     4   ar
     7     4     5   ar
     8     5     6   ar
     9     6     7    1
    10     7     8    1
    11     8     9    1
    12     9    10   am
    13     9    18    2
    14    10    11    1
    15    11    12   ar
    16    11    16   ar
    17    12    13   ar
    18    13    14   ar
    19    13    17    1
    20    14    15   ar
    21    15    16   ar
    22    19    20   ar
    23    19    24   ar
    24    20    21   ar
    25    21    22   ar
    26    22    23   ar
    27    23    24   ar
