@<TRIPOS>MOLECULE
36305_ChemDiv_G195-0042
 25 27 0 0 0
SMALL
GASTEIGER
Energy = 0

@<TRIPOS>ATOM
      1 C          -1.2920   -0.4830    0.0000 C.ar    1  LIG1        0.2883
      2 N          -2.1540   -1.0040    0.0000 N.ar    1  LIG1       -0.2699
      3 C          -2.1540   -2.0080    0.0000 C.ar    1  LIG1        0.1036
      4 C          -1.2920   -2.5080    0.0000 C.ar    1  LIG1        0.1186
      5 N          -0.4210   -2.0080    0.0000 N.ar    1  LIG1       -0.2312
      6 C          -0.4210   -1.0040    0.0000 C.ar    1  LIG1        0.1636
      7 S           0.4460   -0.4960    0.0000 S.3     1  LIG1       -0.0804
      8 C           0.4420    0.5000    0.0000 C.3     1  LIG1        0.1506
      9 C           1.3040    1.0000    0.0000 C.2     1  LIG1        0.2569
     10 N           2.1670    0.5040    0.0000 N.am    1  LIG1       -0.1788
     11 C           3.0290    1.0170    0.0000 C.ar    1  LIG1        0.0694
     12 C           3.8960    0.5170    0.0000 C.ar    1  LIG1       -0.0065
     13 C           3.8960   -0.4830    0.0000 C.3     1  LIG1        0.0324
     14 C           4.7500    1.0170    0.0000 C.ar    1  LIG1       -0.0030
     15 C           4.7420    2.0130    0.0000 C.ar    1  LIG1       -0.0002
     16 C           3.8750    2.5130    0.0000 C.ar    1  LIG1        0.0013
     17 C           3.0170    2.0040    0.0000 C.ar    1  LIG1        0.0163
     18 O           1.2920    2.0000    0.0000 O.2     1  LIG1       -0.2720
     19 C          -3.0170   -0.4960    0.0000 C.ar    1  LIG1        0.0670
     20 C          -3.8830   -0.9960    0.0000 C.ar    1  LIG1        0.0176
     21 C          -4.7460   -0.4960    0.0000 C.ar    1  LIG1        0.0015
     22 C          -4.7540    0.5040    0.0000 C.ar    1  LIG1        0.0001
     23 C          -3.8790    1.0000    0.0000 C.ar    1  LIG1        0.0015
     24 C          -3.0170    0.5000    0.0000 C.ar    1  LIG1        0.0176
     25 O          -1.2920    0.5170    0.0000 O.2     1  LIG1       -0.2644
@<TRIPOS>BOND
     1     1     2   ar
     2     1     6   ar
     3     1    25    2
     4     2     3   ar
     5     2    19    1
     6     3     4   ar
     7     4     5   ar
     8     5     6   ar
     9     6     7    1
    10     7     8    1
    11     8     9    1
    12     9    10   am
    13     9    18    2
    14    10    11    1
    15    11    12   ar
    16    11    17   ar
    17    12    13    1
    18    12    14   ar
    19    14    15   ar
    20    15    16   ar
    21    16    17   ar
    22    19    20   ar
    23    19    24   ar
    24    20    21   ar
    25    21    22   ar
    26    22    23   ar
    27    23    24   ar
