@<TRIPOS>MOLECULE
36300_ChemDiv_C226-1237
 31 34 0 0 0
SMALL
GASTEIGER
Energy = 0

@<TRIPOS>ATOM
      1 C          -0.8670   -2.3000    0.0000 C.ar    1  LIG1        0.1091
      2 C          -1.6750   -2.8960    0.0000 C.ar    1  LIG1        0.0937
      3 C          -1.3540   -3.8250    0.0000 C.ar    1  LIG1       -0.0050
      4 C          -0.3540   -3.8130    0.0000 C.ar    1  LIG1        0.0616
      5 S          -0.0540   -2.8670    0.0000 S.2     1  LIG1       -0.0677
      6 C           0.2380   -4.6130    0.0000 C.2     1  LIG1        0.1792
      7 O          -0.1580   -5.5420    0.0000 O.2     1  LIG1       -0.2908
      8 C           1.2330   -4.5080    0.0000 C.3     1  LIG1        0.0778
      9 C          -1.9290   -4.6460    0.0000 C.3     1  LIG1        0.0319
     10 C          -2.6210   -2.6000    0.0000 C.2     1  LIG1        0.3427
     11 O          -3.3670   -3.2920    0.0000 O.2     1  LIG1       -0.2448
     12 O          -2.8460   -1.6330    0.0000 O.3     1  LIG1       -0.4454
     13 C          -3.5710   -0.9170    0.0000 C.3     1  LIG1        0.2089
     14 C          -3.3040    0.0420    0.0000 C.3     1  LIG1        0.0513
     15 N          -0.8670   -1.2960    0.0000 N.am    1  LIG1       -0.1673
     16 C          -0.0040   -0.8000    0.0000 C.2     1  LIG1        0.2905
     17 C          -0.0500    1.0790    0.0000 C.ar    1  LIG1        0.1781
     18 N          -0.8080    1.6540    0.0000 N.ar    1  LIG1       -0.0722
     19 O          -0.5040    2.5460    0.0000 O.2     1  LIG1       -0.3533
     20 C           0.4500    2.5420    0.0000 C.ar    1  LIG1        0.1771
     21 C           0.7380    1.6330    0.0000 C.ar    1  LIG1        0.0673
     22 C           0.9790    3.3210    0.0000 C.ar    1  LIG1        0.0404
     23 C           1.9290    3.2540    0.0000 C.ar    1  LIG1        0.0433
     24 C           2.4500    4.0290    0.0000 C.ar    1  LIG1        0.1765
     25 C           2.0540    4.8880    0.0000 C.ar    1  LIG1        0.1764
     26 O           2.7330    5.5420    0.0000 O.3     1  LIG1       -0.4346
     27 C           3.5670    5.0880    0.0000 C.3     1  LIG1        0.4294
     28 O           3.3880    4.1580    0.0000 O.3     1  LIG1       -0.4346
     29 C           1.1000    4.9630    0.0000 C.ar    1  LIG1        0.0403
     30 C           0.5710    4.1880    0.0000 C.ar    1  LIG1        0.0064
     31 O           0.8080   -1.2960    0.0000 O.2     1  LIG1       -0.2662
@<TRIPOS>BOND
     1     1     2   ar
     2     1     5   ar
     3     1    15    1
     4     2     3   ar
     5     2    10    1
     6     3     4   ar
     7     3     9    1
     8     4     5   ar
     9     4     6    1
    10     6     7    2
    11     6     8    1
    12    10    11    2
    13    10    12    1
    14    12    13    1
    15    13    14    1
    16    15    16   am
    17    16    17    1
    18    16    31    2
    19    17    18   ar
    20    17    21   ar
    21    18    19   ar
    22    19    20   ar
    23    20    21   ar
    24    20    22    1
    25    22    23   ar
    26    22    30   ar
    27    23    24   ar
    28    24    25   ar
    29    24    28    1
    30    25    26    1
    31    25    29   ar
    32    26    27    1
    33    27    28    1
    34    29    30   ar
