@<TRIPOS>MOLECULE
36316_ChemDiv_C519-0019
 26 28 0 0 0
SMALL
GASTEIGER
Energy = 0

@<TRIPOS>ATOM
      1 C          -0.8540   -1.0080    0.0000 C.ar    1  LIG1        0.1096
      2 C           0.0170   -0.5080    0.0000 C.ar    1  LIG1        0.2028
      3 C           0.0080    0.4920    0.0000 C.ar    1  LIG1        0.0562
      4 C          -0.8540    0.9920    0.0000 C.ar    1  LIG1        0.0631
      5 N          -1.7170    0.4920    0.0000 N.ar    1  LIG1       -0.3238
      6 C          -1.7210   -0.5080    0.0000 C.ar    1  LIG1        0.0837
      7 C          -2.5790    0.9960    0.0000 C.3     1  LIG1        0.1305
      8 C          -0.8540    1.9880    0.0000 C.ar    1  LIG1        0.0187
      9 C           0.0080    2.4880    0.0000 C.ar    1  LIG1        0.0214
     10 C           0.8790    1.9880    0.0000 C.ar    1  LIG1        0.1224
     11 S           1.7420    2.4960    0.0000 S.O2    1  LIG1        0.0634
     12 N           2.6040    3.0040    0.0000 N.3     1  LIG1       -0.1526
     13 C           3.4670    2.5250    0.0000 C.3     1  LIG1        0.1150
     14 C           2.6210    4.0040    0.0000 C.3     1  LIG1        0.1150
     15 O           1.2330    3.3580    0.0000 O.2     1  LIG1       -0.1528
     16 O           2.2460    1.6330    0.0000 O.2     1  LIG1       -0.1528
     17 C           0.8790    0.9920    0.0000 C.ar    1  LIG1        0.0245
     18 O           0.8790   -1.0080    0.0000 O.2     1  LIG1       -0.2863
     19 C          -0.8540   -2.0170    0.0000 C.2     1  LIG1        0.2537
     20 N          -1.7210   -2.5040    0.0000 N.am    1  LIG1       -0.2708
     21 C          -2.6080   -2.0040    0.0000 C.3     1  LIG1        0.1258
     22 C          -3.4630   -2.5040    0.0000 C.3     1  LIG1        0.1637
     23 O          -3.4710   -3.5000    0.0000 O.3     1  LIG1       -0.3501
     24 C          -2.5960   -4.0040    0.0000 C.3     1  LIG1        0.1637
     25 C          -1.7330   -3.5040    0.0000 C.3     1  LIG1        0.1258
     26 O           0.0080   -2.5170    0.0000 O.2     1  LIG1       -0.2697
@<TRIPOS>BOND
     1     1     2   ar
     2     1     6   ar
     3     1    19    1
     4     2     3   ar
     5     2    18    2
     6     3     4   ar
     7     3    17   ar
     8     4     5   ar
     9     4     8   ar
    10     5     6   ar
    11     5     7    1
    12     8     9   ar
    13     9    10   ar
    14    10    11    1
    15    10    17   ar
    16    11    12    1
    17    11    15    2
    18    11    16    2
    19    12    13    1
    20    12    14    1
    21    19    20   am
    22    19    26    2
    23    20    21    1
    24    20    25    1
    25    21    22    1
    26    22    23    1
    27    23    24    1
    28    24    25    1
