@<TRIPOS>MOLECULE
36318_ChemDiv_C519-0108
 29 30 0 0 0
SMALL
GASTEIGER
Energy = 0

@<TRIPOS>ATOM
      1 C          -0.8630   -0.7420    0.0000 C.ar    1  LIG1        0.1096
      2 C           0.0130   -0.2460    0.0000 C.ar    1  LIG1        0.2028
      3 C           0.0000    0.7540    0.0000 C.ar    1  LIG1        0.0562
      4 C          -0.8630    1.2540    0.0000 C.ar    1  LIG1        0.0631
      5 N          -1.7290    0.7540    0.0000 N.ar    1  LIG1       -0.3238
      6 C          -1.7330   -0.2460    0.0000 C.ar    1  LIG1        0.0837
      7 C          -2.5920    1.2580    0.0000 C.3     1  LIG1        0.1305
      8 C          -0.8630    2.2540    0.0000 C.ar    1  LIG1        0.0187
      9 C           0.0000    2.7500    0.0000 C.ar    1  LIG1        0.0214
     10 C           0.8710    2.2540    0.0000 C.ar    1  LIG1        0.1224
     11 S           1.7330    2.7580    0.0000 S.O2    1  LIG1        0.0633
     12 N           2.5960    3.2630    0.0000 N.3     1  LIG1       -0.1555
     13 C           3.4670    2.7670    0.0000 C.3     1  LIG1        0.0958
     14 C           3.4670    1.7670    0.0000 C.3     1  LIG1        0.0206
     15 C           2.5960    4.2540    0.0000 C.3     1  LIG1        0.0958
     16 C           1.7210    4.7420    0.0000 C.3     1  LIG1        0.0206
     17 O           2.2380    1.8920    0.0000 O.2     1  LIG1       -0.1528
     18 O           1.2250    3.6170    0.0000 O.2     1  LIG1       -0.1528
     19 C           0.8710    1.2540    0.0000 C.ar    1  LIG1        0.0245
     20 O           0.8710   -0.7420    0.0000 O.2     1  LIG1       -0.2863
     21 C          -0.8630   -1.7540    0.0000 C.2     1  LIG1        0.2536
     22 N          -1.7330   -2.2420    0.0000 N.am    1  LIG1       -0.2760
     23 C          -2.6040   -1.7420    0.0000 C.3     1  LIG1        0.0937
     24 C          -2.6040   -0.7540    0.0000 C.3     1  LIG1        0.0215
     25 C          -3.4710   -0.2540    0.0000 C.3     1  LIG1        0.0018
     26 C          -1.7420   -3.2380    0.0000 C.3     1  LIG1        0.0937
     27 C          -0.8630   -3.7420    0.0000 C.3     1  LIG1        0.0215
     28 C          -0.8630   -4.7420    0.0000 C.3     1  LIG1        0.0018
     29 O           0.0000   -2.2540    0.0000 O.2     1  LIG1       -0.2697
@<TRIPOS>BOND
     1     1     2   ar
     2     1     6   ar
     3     1    21    1
     4     2     3   ar
     5     2    20    2
     6     3     4   ar
     7     3    19   ar
     8     4     5   ar
     9     4     8   ar
    10     5     6   ar
    11     5     7    1
    12     8     9   ar
    13     9    10   ar
    14    10    11    1
    15    10    19   ar
    16    11    12    1
    17    11    17    2
    18    11    18    2
    19    12    13    1
    20    12    15    1
    21    13    14    1
    22    15    16    1
    23    21    22   am
    24    21    29    2
    25    22    23    1
    26    22    26    1
    27    23    24    1
    28    24    25    1
    29    26    27    1
    30    27    28    1
