@<TRIPOS>MOLECULE
36310_ChemDiv_C385-0380
 30 33 0 0 0
SMALL
GASTEIGER
Energy = 0

@<TRIPOS>ATOM
      1 C          -0.8460   -2.0000    0.0000 C.ar    1  LIG1        0.1115
      2 C           0.0290   -1.5000    0.0000 C.ar    1  LIG1        0.2029
      3 C           0.0250   -0.5000    0.0000 C.ar    1  LIG1        0.0580
      4 C           0.8920    0.0000    0.0000 C.ar    1  LIG1        0.0216
      5 C           0.8920    1.0040    0.0000 C.ar    1  LIG1        0.0895
      6 S           1.7540    1.5040    0.0000 S.O2    1  LIG1       -0.0577
      7 N           2.6170    2.0080    0.0000 N.pl3   1  LIG1       -0.5341
      8 C           2.6130    3.0000    0.0000 C.ar    1  LIG1       -0.0842
      9 C           1.7500    3.5000    0.0000 C.ar    1  LIG1        0.1181
     10 F           0.8750    2.9920    0.0000 F       1  LIG1       -0.2061
     11 C           1.7210    4.4790    0.0000 C.ar    1  LIG1        0.0278
     12 C           2.6000    4.9920    0.0000 C.ar    1  LIG1        0.0022
     13 C           3.4630    4.5040    0.0000 C.ar    1  LIG1       -0.0017
     14 C           3.4630    3.5000    0.0000 C.ar    1  LIG1       -0.0217
     15 O           1.2460    2.3710    0.0000 O.2     1  LIG1       -0.1842
     16 O           2.2500    0.6420    0.0000 O.2     1  LIG1       -0.1842
     17 C           0.0250    1.5040    0.0000 C.ar    1  LIG1        0.0185
     18 C          -0.8380    0.9960    0.0000 C.ar    1  LIG1        0.0205
     19 C          -0.8380    0.0080    0.0000 C.ar    1  LIG1        0.0845
     20 N          -1.7080   -0.4920    0.0000 N.ar    1  LIG1       -0.2435
     21 C          -1.7080   -1.4880    0.0000 C.ar    1  LIG1        0.1065
     22 O           0.8920   -2.0000    0.0000 O.2     1  LIG1       -0.2863
     23 C          -0.8460   -3.0040    0.0000 C.2     1  LIG1        0.2538
     24 N          -1.7080   -3.4960    0.0000 N.am    1  LIG1       -0.2708
     25 C          -2.5920   -2.9880    0.0000 C.3     1  LIG1        0.1258
     26 C          -3.4500   -3.4880    0.0000 C.3     1  LIG1        0.1637
     27 O          -3.4670   -4.4830    0.0000 O.3     1  LIG1       -0.3501
     28 C          -2.5710   -4.9920    0.0000 C.3     1  LIG1        0.1637
     29 C          -1.7250   -4.4960    0.0000 C.3     1  LIG1        0.1258
     30 O           0.0170   -3.5000    0.0000 O.2     1  LIG1       -0.2697
@<TRIPOS>BOND
     1     1     2   ar
     2     1    21   ar
     3     1    23    1
     4     2     3   ar
     5     2    22    2
     6     3     4   ar
     7     3    19   ar
     8     4     5   ar
     9     5     6    1
    10     5    17   ar
    11     6     7    1
    12     6    15    2
    13     6    16    2
    14     7     8    1
    15     8     9   ar
    16     8    14   ar
    17     9    10    1
    18     9    11   ar
    19    11    12   ar
    20    12    13   ar
    21    13    14   ar
    22    17    18   ar
    23    18    19   ar
    24    19    20   ar
    25    20    21   ar
    26    23    24   am
    27    23    30    2
    28    24    25    1
    29    24    29    1
    30    25    26    1
    31    26    27    1
    32    27    28    1
    33    28    29    1
