@<TRIPOS>MOLECULE
36312_ChemDiv_C385-0397
 33 35 0 0 0
SMALL
GASTEIGER
Energy = 0

@<TRIPOS>ATOM
      1 S           2.1330    1.7920    0.0000 S.O2    1  LIG1       -0.0578
      2 C           1.2750    1.2960    0.0000 C.ar    1  LIG1        0.0895
      3 C           1.2750    0.2920    0.0000 C.ar    1  LIG1        0.0216
      4 C           0.4170   -0.2130    0.0000 C.ar    1  LIG1        0.0580
      5 C           0.4170   -1.2080    0.0000 C.ar    1  LIG1        0.2030
      6 C          -0.4580   -1.7040    0.0000 C.ar    1  LIG1        0.1130
      7 C          -1.3210   -1.1960    0.0000 C.ar    1  LIG1        0.1066
      8 N          -1.3210   -0.1960    0.0000 N.ar    1  LIG1       -0.2435
      9 C          -0.4460    0.3000    0.0000 C.ar    1  LIG1        0.0845
     10 C          -0.4460    1.2790    0.0000 C.ar    1  LIG1        0.0205
     11 C           0.4170    1.7920    0.0000 C.ar    1  LIG1        0.0185
     12 C          -0.4580   -2.7080    0.0000 C.2     1  LIG1        0.2694
     13 O           0.4040   -3.2130    0.0000 O.2     1  LIG1       -0.2682
     14 N          -1.3210   -3.2040    0.0000 N.am    1  LIG1       -0.2015
     15 C          -1.3210   -4.3080    0.0000 C.3     1  LIG1        0.1181
     16 C          -1.9750   -4.7040    0.0000 C.3     1  LIG1        0.0555
     17 C          -2.0130   -5.5130    0.0000 C.3     1  LIG1        0.1440
     18 O          -2.9580   -6.0540    0.0000 O.3     1  LIG1       -0.3537
     19 C          -2.9580   -7.1630    0.0000 C.3     1  LIG1        0.1422
     20 C          -3.9170   -7.7790    0.0000 C.3     1  LIG1        0.0346
     21 O           1.2750   -1.7040    0.0000 O.2     1  LIG1       -0.2863
     22 N           3.0000    2.2920    0.0000 N.pl3   1  LIG1       -0.5358
     23 C           2.9920    3.2830    0.0000 C.ar    1  LIG1       -0.1121
     24 C           2.1290    3.7920    0.0000 C.ar    1  LIG1       -0.0207
     25 C           2.1330    4.7960    0.0000 C.ar    1  LIG1        0.0350
     26 C           3.0040    5.2960    0.0000 C.ar    1  LIG1        0.1384
     27 C           3.8750    4.7790    0.0000 C.ar    1  LIG1        0.0350
     28 C           3.8670    3.7880    0.0000 C.ar    1  LIG1       -0.0207
     29 O           3.0210    6.2960    0.0000 O.3     1  LIG1       -0.4755
     30 C           3.9000    6.7750    0.0000 C.3     1  LIG1        0.2055
     31 C           3.9130    7.7790    0.0000 C.3     1  LIG1        0.0512
     32 O           1.6330    2.6540    0.0000 O.2     1  LIG1       -0.1842
     33 O           2.6380    0.9290    0.0000 O.2     1  LIG1       -0.1842
@<TRIPOS>BOND
     1     1     2    1
     2     1    22    1
     3     1    32    2
     4     1    33    2
     5     2     3   ar
     6     2    11   ar
     7     3     4   ar
     8     4     5   ar
     9     4     9   ar
    10     5     6   ar
    11     5    21    2
    12     6     7   ar
    13     6    12    1
    14     7     8   ar
    15     8     9   ar
    16     9    10   ar
    17    10    11   ar
    18    12    13    2
    19    12    14   am
    20    14    15    1
    21    15    16    1
    22    16    17    1
    23    17    18    1
    24    18    19    1
    25    19    20    1
    26    22    23    1
    27    23    24   ar
    28    23    28   ar
    29    24    25   ar
    30    25    26   ar
    31    26    27   ar
    32    26    29    1
    33    27    28   ar
    34    29    30    1
    35    30    31    1
