@<TRIPOS>MOLECULE
36325_ChemDiv_C200-4426
 33 37 0 0 0
SMALL
GASTEIGER
Energy = 0

@<TRIPOS>ATOM
      1 C          -0.0170    1.2500    0.0000 C.ar    1  LIG1        0.1016
      2 C          -0.0170    0.2500    0.0000 C.ar    1  LIG1        0.0754
      3 N           0.8500   -0.2500    0.0000 N.ar    1  LIG1       -0.2715
      4 C           1.7210    0.2500    0.0000 C.ar    1  LIG1        0.3344
      5 N           1.7210    1.2500    0.0000 N.ar    1  LIG1       -0.2441
      6 C           0.8500    1.7460    0.0000 C.ar    1  LIG1        0.2719
      7 O           0.8500    2.7460    0.0000 O.2     1  LIG1       -0.2662
      8 C           2.5830    1.7460    0.0000 C.3     1  LIG1        0.1403
      9 C           2.5880    2.7500    0.0000 C.ar    1  LIG1        0.0006
     10 C           1.7210    3.2630    0.0000 C.ar    1  LIG1       -0.0024
     11 C           1.7250    4.2580    0.0000 C.ar    1  LIG1       -0.0003
     12 C           2.6000    4.7540    0.0000 C.ar    1  LIG1       -0.0000
     13 C           3.4670    4.2460    0.0000 C.ar    1  LIG1       -0.0003
     14 C           3.4630    3.2500    0.0000 C.ar    1  LIG1       -0.0024
     15 O           2.5880   -0.2500    0.0000 O.2     1  LIG1       -0.2462
     16 C           0.8500   -1.2500    0.0000 C.3     1  LIG1        0.1974
     17 C          -0.0170   -1.7500    0.0000 C.2     1  LIG1        0.2688
     18 N          -0.0170   -2.7500    0.0000 N.am    1  LIG1       -0.1776
     19 C          -0.8790   -3.2460    0.0000 C.ar    1  LIG1        0.0731
     20 C          -1.7420   -2.7500    0.0000 C.ar    1  LIG1        0.0123
     21 C          -2.6040   -3.2460    0.0000 C.ar    1  LIG1       -0.0206
     22 C          -2.6040   -4.2580    0.0000 C.ar    1  LIG1       -0.0042
     23 C          -1.7420   -4.7540    0.0000 C.ar    1  LIG1        0.0010
     24 C          -0.8790   -4.2580    0.0000 C.ar    1  LIG1        0.0166
     25 C          -3.4710   -2.7500    0.0000 C.3     1  LIG1        0.0311
     26 O          -0.8790   -1.2500    0.0000 O.2     1  LIG1       -0.2709
     27 C          -0.9670   -0.0540    0.0000 C.ar    1  LIG1        0.0226
     28 C          -1.5420    0.7540    0.0000 C.ar    1  LIG1        0.0310
     29 S          -0.9670    1.5670    0.0000 S.2     1  LIG1       -0.0807
     30 C          -2.5330    0.6580    0.0000 C.ar    1  LIG1        0.0065
     31 C          -2.9420   -0.2580    0.0000 C.ar    1  LIG1        0.0005
     32 C          -2.3630   -1.0670    0.0000 C.ar    1  LIG1        0.0001
     33 C          -1.3670   -0.9630    0.0000 C.ar    1  LIG1        0.0020
@<TRIPOS>BOND
     1     1     2   ar
     2     1     6   ar
     3     1    29   ar
     4     2     3   ar
     5     2    27   ar
     6     3     4   ar
     7     3    16    1
     8     4     5   ar
     9     4    15    2
    10     5     6   ar
    11     5     8    1
    12     6     7    2
    13     8     9    1
    14     9    10   ar
    15     9    14   ar
    16    10    11   ar
    17    11    12   ar
    18    12    13   ar
    19    13    14   ar
    20    16    17    1
    21    17    18   am
    22    17    26    2
    23    18    19    1
    24    19    20   ar
    25    19    24   ar
    26    20    21   ar
    27    21    22   ar
    28    21    25    1
    29    22    23   ar
    30    23    24   ar
    31    27    28   ar
    32    27    33   ar
    33    28    29   ar
    34    28    30   ar
    35    30    31   ar
    36    31    32   ar
    37    32    33   ar
