@<TRIPOS>MOLECULE
36322_ChemDiv_C226-3835
 24 26 0 0 0
SMALL
GASTEIGER
Energy = 0

@<TRIPOS>ATOM
      1 C          -0.2750    1.7790    0.0000 C.ar    1  LIG1        0.1736
      2 C           0.4500    2.3540    0.0000 C.ar    1  LIG1        0.0361
      3 C           0.1250    3.2170    0.0000 C.ar    1  LIG1        0.1505
      4 O          -0.7920    3.1710    0.0000 O.2     1  LIG1       -0.3580
      5 N          -1.0460    2.2880    0.0000 N.ar    1  LIG1       -0.0730
      6 C           0.7170    3.9380    0.0000 C.3     1  LIG1        0.0670
      7 C           1.6130    3.7830    0.0000 C.3     1  LIG1        0.0084
      8 C           1.9380    2.9130    0.0000 C.3     1  LIG1        0.0049
      9 C           1.3540    2.2040    0.0000 C.3     1  LIG1        0.0310
     10 C           2.8330    2.7630    0.0000 C.3     1  LIG1        0.0003
     11 C           3.7540    2.6130    0.0000 C.3     1  LIG1        0.0000
     12 C           2.6830    1.8540    0.0000 C.3     1  LIG1        0.0000
     13 C           2.9880    3.6670    0.0000 C.3     1  LIG1        0.0000
     14 C          -0.3210   -0.4210    0.0000 C.2     1  LIG1        0.2897
     15 N          -1.1830   -0.9210    0.0000 N.am    1  LIG1       -0.1736
     16 C          -1.1830   -1.9290    0.0000 C.ar    1  LIG1        0.0793
     17 C          -2.0420   -2.4420    0.0000 C.ar    1  LIG1        0.0406
     18 S          -2.9000   -1.9460    0.0000 S.3     1  LIG1       -0.1114
     19 C          -3.7580   -2.4580    0.0000 C.3     1  LIG1        0.0742
     20 C          -2.0420   -3.4250    0.0000 C.ar    1  LIG1        0.0075
     21 C          -1.1830   -3.9330    0.0000 C.ar    1  LIG1        0.0006
     22 C          -0.3080   -3.4250    0.0000 C.ar    1  LIG1        0.0014
     23 C          -0.3210   -2.4290    0.0000 C.ar    1  LIG1        0.0171
     24 O           0.4920   -0.8710    0.0000 O.2     1  LIG1       -0.2662
@<TRIPOS>BOND
     1     1     2   ar
     2     1     5   ar
     3     1    14    1
     4     2     3   ar
     5     2     9    1
     6     3     4   ar
     7     3     6    1
     8     4     5   ar
     9     6     7    1
    10     7     8    1
    11     8     9    1
    12     8    10    1
    13    10    11    1
    14    10    12    1
    15    10    13    1
    16    14    15   am
    17    14    24    2
    18    15    16    1
    19    16    17   ar
    20    16    23   ar
    21    17    18    1
    22    17    20   ar
    23    18    19    1
    24    20    21   ar
    25    21    22   ar
    26    22    23   ar
