@<TRIPOS>MOLECULE
36321_ChemDiv_C200-4250
 25 28 0 0 0
SMALL
GASTEIGER
Energy = 0

@<TRIPOS>ATOM
      1 N           1.4630    0.4670    0.0000 N.ar    1  LIG1       -0.2408
      2 C           1.4630   -0.5330    0.0000 C.ar    1  LIG1        0.3345
      3 N           0.5920   -1.0330    0.0000 N.ar    1  LIG1       -0.2715
      4 C          -0.2710   -0.5330    0.0000 C.ar    1  LIG1        0.0754
      5 C          -0.2710    0.4670    0.0000 C.ar    1  LIG1        0.1016
      6 C           0.5920    0.9670    0.0000 C.ar    1  LIG1        0.2720
      7 O           0.5920    1.9670    0.0000 O.2     1  LIG1       -0.2662
      8 S          -1.2210    0.7790    0.0000 S.2     1  LIG1       -0.0807
      9 C          -1.8080   -0.0380    0.0000 C.ar    1  LIG1        0.0310
     10 C          -1.2210   -0.8420    0.0000 C.ar    1  LIG1        0.0226
     11 C          -1.6290   -1.7500    0.0000 C.ar    1  LIG1        0.0020
     12 C          -2.6290   -1.8540    0.0000 C.ar    1  LIG1        0.0001
     13 C          -3.2080   -1.0540    0.0000 C.ar    1  LIG1        0.0005
     14 C          -2.8000   -0.1460    0.0000 C.ar    1  LIG1        0.0065
     15 C           0.5920   -2.0330    0.0000 C.3     1  LIG1        0.1988
     16 C           1.4580   -2.5330    0.0000 C.2     1  LIG1        0.2839
     17 O           1.4580   -3.5380    0.0000 O.2     1  LIG1       -0.2695
     18 N           2.3210   -2.0330    0.0000 N.am    1  LIG1       -0.0861
     19 O           2.3380   -1.0380    0.0000 O.2     1  LIG1       -0.2462
     20 C           2.3380    0.9670    0.0000 C.3     1  LIG1        0.1779
     21 C           2.3420    1.9670    0.0000 C.ar    1  LIG1        0.1460
     22 O           1.5920    2.6420    0.0000 O.2     1  LIG1       -0.4527
     23 C           1.9920    3.5420    0.0000 C.ar    1  LIG1        0.1792
     24 C           2.9920    3.4460    0.0000 C.ar    1  LIG1        0.0435
     25 C           3.2040    2.4670    0.0000 C.ar    1  LIG1        0.0382
@<TRIPOS>BOND
     1     1     2   ar
     2     1     6   ar
     3     1    20    1
     4     2     3   ar
     5     2    19    2
     6     3     4   ar
     7     3    15    1
     8     4     5   ar
     9     4    10   ar
    10     5     6   ar
    11     5     8   ar
    12     6     7    2
    13     8     9   ar
    14     9    10   ar
    15     9    14   ar
    16    10    11   ar
    17    11    12   ar
    18    12    13   ar
    19    13    14   ar
    20    15    16    1
    21    16    17    2
    22    16    18   am
    23    20    21    1
    24    21    22   ar
    25    21    25   ar
    26    22    23   ar
    27    23    24   ar
    28    24    25   ar
