@<TRIPOS>MOLECULE
36328_ChemDiv_C228-0470
 29 31 0 0 0
SMALL
GASTEIGER
Energy = 0

@<TRIPOS>ATOM
      1 N           2.1500    1.8790    0.0000 N.3     1  LIG1       -0.1472
      2 S           2.0500    2.8750    0.0000 S.O2    1  LIG1        0.0463
      3 O           1.0580    2.7710    0.0000 O.2     1  LIG1       -0.1572
      4 O           3.0460    2.9880    0.0000 O.2     1  LIG1       -0.1572
      5 C           1.9460    3.8750    0.0000 C.3     1  LIG1        0.1960
      6 C           1.3540    1.2920    0.0000 C.3     1  LIG1        0.1614
      7 C           0.4250    1.6880    0.0000 C.2     1  LIG1        0.2582
      8 N          -0.3750    1.0960    0.0000 N.am    1  LIG1       -0.1994
      9 C          -0.2630    0.1000    0.0000 C.3     1  LIG1        0.1416
     10 C          -1.0710   -0.4880    0.0000 C.ar    1  LIG1        0.0027
     11 C          -0.9540   -1.4830    0.0000 C.ar    1  LIG1        0.0375
     12 C          -1.7540   -2.0750    0.0000 C.ar    1  LIG1        0.1721
     13 C          -2.6830   -1.6830    0.0000 C.ar    1  LIG1        0.1722
     14 C          -2.7880   -0.6830    0.0000 C.ar    1  LIG1        0.0398
     15 C          -1.9880   -0.0880    0.0000 C.ar    1  LIG1        0.0008
     16 O          -3.4880   -2.2790    0.0000 O.3     1  LIG1       -0.4724
     17 C          -3.3750   -3.2790    0.0000 C.3     1  LIG1        0.2057
     18 C          -4.1750   -3.8710    0.0000 C.3     1  LIG1        0.0512
     19 O          -1.6380   -3.0710    0.0000 O.3     1  LIG1       -0.4684
     20 C          -2.4380   -3.6580    0.0000 C.3     1  LIG1        0.2526
     21 O           0.3210    2.6880    0.0000 O.2     1  LIG1       -0.2718
     22 C           1.4540    0.2960    0.0000 C.3     1  LIG1        0.0531
     23 C           2.3630   -0.1130    0.0000 C.ar    1  LIG1       -0.0229
     24 C           3.1630    0.4670    0.0000 C.ar    1  LIG1       -0.0084
     25 C           3.0670    1.4630    0.0000 C.3     1  LIG1        0.1219
     26 C           4.0710    0.0630    0.0000 C.ar    1  LIG1       -0.0032
     27 C           4.1710   -0.9330    0.0000 C.ar    1  LIG1       -0.0003
     28 C           3.3630   -1.5290    0.0000 C.ar    1  LIG1       -0.0003
     29 C           2.4630   -1.1130    0.0000 C.ar    1  LIG1       -0.0045
@<TRIPOS>BOND
     1     1     2    1
     2     1     6    1
     3     1    25    1
     4     2     3    2
     5     2     4    2
     6     2     5    1
     7     6     7    1
     8     6    22    1
     9     7     8   am
    10     7    21    2
    11     8     9    1
    12     9    10    1
    13    10    11   ar
    14    10    15   ar
    15    11    12   ar
    16    12    13   ar
    17    12    19    1
    18    13    14   ar
    19    13    16    1
    20    14    15   ar
    21    16    17    1
    22    17    18    1
    23    19    20    1
    24    22    23    1
    25    23    24   ar
    26    23    29   ar
    27    24    25    1
    28    24    26   ar
    29    26    27   ar
    30    27    28   ar
    31    28    29   ar
