@<TRIPOS>MOLECULE
36320_ChemDiv_C519-0152
 31 32 0 0 0
SMALL
GASTEIGER
Energy = 0

@<TRIPOS>ATOM
      1 C           0.0210   -0.4790    0.0000 C.ar    1  LIG1        0.1111
      2 C           0.8880    0.0210    0.0000 C.ar    1  LIG1        0.2029
      3 C           0.8790    1.0210    0.0000 C.ar    1  LIG1        0.0562
      4 C           0.0210    1.5170    0.0000 C.ar    1  LIG1        0.0631
      5 N          -0.8420    1.0210    0.0000 N.ar    1  LIG1       -0.3238
      6 C          -0.8500    0.0210    0.0000 C.ar    1  LIG1        0.0837
      7 C          -1.7080    1.5210    0.0000 C.3     1  LIG1        0.1305
      8 C           0.0210    2.5130    0.0000 C.ar    1  LIG1        0.0187
      9 C           0.8790    3.0130    0.0000 C.ar    1  LIG1        0.0214
     10 C           1.7540    2.5130    0.0000 C.ar    1  LIG1        0.1224
     11 S           2.6170    3.0210    0.0000 S.O2    1  LIG1        0.0633
     12 N           3.4790    3.5290    0.0000 N.3     1  LIG1       -0.1555
     13 C           4.3460    3.0250    0.0000 C.3     1  LIG1        0.0958
     14 C           4.3460    2.0290    0.0000 C.3     1  LIG1        0.0206
     15 C           3.4790    4.5210    0.0000 C.3     1  LIG1        0.0958
     16 C           2.6040    5.0040    0.0000 C.3     1  LIG1        0.0206
     17 O           3.1210    2.1540    0.0000 O.2     1  LIG1       -0.1528
     18 O           2.1040    3.8830    0.0000 O.2     1  LIG1       -0.1528
     19 C           1.7540    1.5170    0.0000 C.ar    1  LIG1        0.0245
     20 O           1.7540   -0.4790    0.0000 O.2     1  LIG1       -0.2863
     21 C           0.0210   -1.4920    0.0000 C.2     1  LIG1        0.2694
     22 O           0.8790   -1.9920    0.0000 O.2     1  LIG1       -0.2682
     23 N          -0.8500   -1.9830    0.0000 N.am    1  LIG1       -0.2013
     24 C          -0.8500   -2.9790    0.0000 C.3     1  LIG1        0.1216
     25 C          -1.7250   -3.4790    0.0000 C.3     1  LIG1        0.0861
     26 C          -2.6000   -2.9960    0.0000 C.3     1  LIG1        0.1404
     27 N          -3.4420   -3.5130    0.0000 N.4     1  LIG1        0.3773
     28 C          -3.4290   -4.5170    0.0000 C.3     1  LIG1        0.1388
     29 C          -2.5710   -5.0040    0.0000 C.3     1  LIG1        0.0688
     30 C          -4.3330   -3.0250    0.0000 C.3     1  LIG1        0.1388
     31 C          -4.3500   -2.0250    0.0000 C.3     1  LIG1        0.0688
@<TRIPOS>BOND
     1     1     2   ar
     2     1     6   ar
     3     1    21    1
     4     2     3   ar
     5     2    20    2
     6     3     4   ar
     7     3    19   ar
     8     4     5   ar
     9     4     8   ar
    10     5     6   ar
    11     5     7    1
    12     8     9   ar
    13     9    10   ar
    14    10    11    1
    15    10    19   ar
    16    11    12    1
    17    11    17    2
    18    11    18    2
    19    12    13    1
    20    12    15    1
    21    13    14    1
    22    15    16    1
    23    21    22    2
    24    21    23   am
    25    23    24    1
    26    24    25    1
    27    25    26    1
    28    26    27    1
    29    27    28    1
    30    27    30    1
    31    28    29    1
    32    30    31    1
