@<TRIPOS>MOLECULE
36338_ChemDiv_C519-0245
 28 31 0 0 0
SMALL
GASTEIGER
Energy = 0

@<TRIPOS>ATOM
      1 C          -1.2080   -1.1040    0.0000 C.ar    1  LIG1        0.1096
      2 C          -0.3380   -0.6040    0.0000 C.ar    1  LIG1        0.2028
      3 C          -0.3460    0.3920    0.0000 C.ar    1  LIG1        0.0562
      4 C          -1.2080    0.8920    0.0000 C.ar    1  LIG1        0.0631
      5 N          -2.0710    0.3920    0.0000 N.ar    1  LIG1       -0.3238
      6 C          -2.0750   -0.6040    0.0000 C.ar    1  LIG1        0.0837
      7 C          -2.9330    0.8960    0.0000 C.3     1  LIG1        0.1305
      8 C          -1.2080    1.8920    0.0000 C.ar    1  LIG1        0.0187
      9 C          -0.3460    2.3920    0.0000 C.ar    1  LIG1        0.0214
     10 C           0.5250    1.8920    0.0000 C.ar    1  LIG1        0.1224
     11 S           1.3880    2.3960    0.0000 S.O2    1  LIG1        0.0633
     12 N           2.2500    2.9040    0.0000 N.3     1  LIG1       -0.1555
     13 C           3.1750    2.4960    0.0000 C.3     1  LIG1        0.0958
     14 C           3.8250    3.2540    0.0000 C.3     1  LIG1        0.0206
     15 C           3.3290    4.1000    0.0000 C.3     1  LIG1        0.0206
     16 C           2.3580    3.8960    0.0000 C.3     1  LIG1        0.0958
     17 O           0.8790    3.2580    0.0000 O.2     1  LIG1       -0.1528
     18 O           1.8920    1.5330    0.0000 O.2     1  LIG1       -0.1528
     19 C           0.5250    0.8920    0.0000 C.ar    1  LIG1        0.0245
     20 O           0.5250   -1.1040    0.0000 O.2     1  LIG1       -0.2863
     21 C          -1.2080   -2.1130    0.0000 C.2     1  LIG1        0.2536
     22 N          -2.0750   -2.6040    0.0000 N.am    1  LIG1       -0.2760
     23 C          -2.9330   -2.1040    0.0000 C.3     1  LIG1        0.0937
     24 C          -3.8040   -2.6040    0.0000 C.3     1  LIG1        0.0216
     25 C          -3.8290   -3.6040    0.0000 C.3     1  LIG1        0.0035
     26 C          -2.9500   -4.1000    0.0000 C.3     1  LIG1        0.0216
     27 C          -2.0750   -3.6130    0.0000 C.3     1  LIG1        0.0937
     28 O          -0.3460   -2.6130    0.0000 O.2     1  LIG1       -0.2697
@<TRIPOS>BOND
     1     1     2   ar
     2     1     6   ar
     3     1    21    1
     4     2     3   ar
     5     2    20    2
     6     3     4   ar
     7     3    19   ar
     8     4     5   ar
     9     4     8   ar
    10     5     6   ar
    11     5     7    1
    12     8     9   ar
    13     9    10   ar
    14    10    11    1
    15    10    19   ar
    16    11    12    1
    17    11    17    2
    18    11    18    2
    19    12    13    1
    20    12    16    1
    21    13    14    1
    22    14    15    1
    23    15    16    1
    24    21    22   am
    25    21    28    2
    26    22    23    1
    27    22    27    1
    28    23    24    1
    29    24    25    1
    30    25    26    1
    31    26    27    1
