@<TRIPOS>MOLECULE
36339_ChemDiv_G195-0337
 27 29 0 0 0
SMALL
GASTEIGER
Energy = 0

@<TRIPOS>ATOM
      1 N          -2.5830   -1.5080    0.0000 N.ar    1  LIG1       -0.2699
      2 C          -1.7210   -0.9830    0.0000 C.ar    1  LIG1        0.2883
      3 C          -0.8500   -1.5080    0.0000 C.ar    1  LIG1        0.1636
      4 N          -0.8500   -2.5080    0.0000 N.ar    1  LIG1       -0.2312
      5 C          -1.7210   -3.0080    0.0000 C.ar    1  LIG1        0.1186
      6 C          -2.5830   -2.5080    0.0000 C.ar    1  LIG1        0.1036
      7 S           0.0170   -0.9960    0.0000 S.3     1  LIG1       -0.0804
      8 C           0.0130    0.0000    0.0000 C.3     1  LIG1        0.1506
      9 C           0.8710    0.5000    0.0000 C.2     1  LIG1        0.2570
     10 N           1.7330    0.0040    0.0000 N.am    1  LIG1       -0.1785
     11 C           2.5830    0.5130    0.0000 C.ar    1  LIG1        0.0731
     12 C           2.5790    1.5080    0.0000 C.ar    1  LIG1        0.0120
     13 C           3.4420    2.0130    0.0000 C.ar    1  LIG1       -0.0245
     14 C           4.3170    1.5170    0.0000 C.ar    1  LIG1       -0.0257
     15 C           4.3210    0.5170    0.0000 C.ar    1  LIG1       -0.0032
     16 C           3.4580    0.0130    0.0000 C.ar    1  LIG1        0.0163
     17 C           5.1790    2.0250    0.0000 C.3     1  LIG1        0.0307
     18 C           3.4290    3.0130    0.0000 C.3     1  LIG1        0.0307
     19 O           0.8630    1.4960    0.0000 O.2     1  LIG1       -0.2720
     20 O          -1.7210    0.0130    0.0000 O.2     1  LIG1       -0.2644
     21 C          -3.4460   -0.9960    0.0000 C.ar    1  LIG1        0.0678
     22 C          -3.4460    0.0000    0.0000 C.ar    1  LIG1        0.0290
     23 C          -4.3040    0.5000    0.0000 C.ar    1  LIG1        0.0591
     24 CL         -4.3130    1.4960    0.0000 Cl      1  LIG1       -0.0822
     25 C          -5.1830    0.0040    0.0000 C.ar    1  LIG1        0.0115
     26 C          -5.1710   -0.9960    0.0000 C.ar    1  LIG1        0.0024
     27 C          -4.3130   -1.4960    0.0000 C.ar    1  LIG1        0.0177
@<TRIPOS>BOND
     1     1     2   ar
     2     1     6   ar
     3     1    21    1
     4     2     3   ar
     5     2    20    2
     6     3     4   ar
     7     3     7    1
     8     4     5   ar
     9     5     6   ar
    10     7     8    1
    11     8     9    1
    12     9    10   am
    13     9    19    2
    14    10    11    1
    15    11    12   ar
    16    11    16   ar
    17    12    13   ar
    18    13    14   ar
    19    13    18    1
    20    14    15   ar
    21    14    17    1
    22    15    16   ar
    23    21    22   ar
    24    21    27   ar
    25    22    23   ar
    26    23    24    1
    27    23    25   ar
    28    25    26   ar
    29    26    27   ar
