@<TRIPOS>MOLECULE
36332_ChemDiv_C237-0757
 34 38 0 0 0
SMALL
GASTEIGER
Energy = 0

@<TRIPOS>ATOM
      1 C           0.2880    1.7960    0.0000 C.ar    1  LIG1        0.0724
      2 C           1.1380    2.2630    0.0000 C.ar    1  LIG1        0.0277
      3 C           1.1580    3.2460    0.0000 C.ar    1  LIG1        0.1170
      4 N           2.0790    3.5210    0.0000 N.ar    1  LIG1       -0.3214
      5 C           2.6420    2.7330    0.0000 C.ar    1  LIG1        0.0601
      6 C           2.0630    1.9630    0.0000 C.ar    1  LIG1        0.0175
      7 C           2.4380    1.0500    0.0000 C.ar    1  LIG1        0.0015
      8 C           3.4170    0.9670    0.0000 C.ar    1  LIG1        0.0001
      9 C           3.9920    1.7170    0.0000 C.ar    1  LIG1        0.0015
     10 C           3.6080    2.6250    0.0000 C.ar    1  LIG1        0.0172
     11 C           2.3830    4.4540    0.0000 C.3     1  LIG1        0.1306
     12 C           0.3210    3.7500    0.0000 C.ar    1  LIG1        0.2767
     13 N          -0.5420    3.2790    0.0000 N.ar    1  LIG1       -0.2928
     14 C          -0.5540    2.2790    0.0000 C.ar    1  LIG1        0.0829
     15 C          -1.3750    3.8040    0.0000 C.3     1  LIG1        0.1091
     16 C          -2.2250    3.3540    0.0000 C.3     1  LIG1        0.0227
     17 C          -2.2750    2.3880    0.0000 C.3     1  LIG1        0.0020
     18 C          -3.0500    3.8830    0.0000 C.3     1  LIG1        0.0020
     19 O           0.3380    4.7330    0.0000 O.2     1  LIG1       -0.2654
     20 C           0.3250    0.2830    0.0000 C.2     1  LIG1        0.2505
     21 N          -0.5420   -0.2170    0.0000 N.am    1  LIG1       -0.2760
     22 C          -0.5420   -1.2290    0.0000 C.3     1  LIG1        0.0937
     23 C          -1.4040   -1.7170    0.0000 C.3     1  LIG1        0.0219
     24 C          -2.2670   -1.2210    0.0000 C.3     1  LIG1        0.0078
     25 C          -3.1290   -1.7250    0.0000 C.3     1  LIG1        0.0265
     26 C          -3.1290   -2.7290    0.0000 C.ar    1  LIG1       -0.0222
     27 C          -3.9960   -3.2290    0.0000 C.ar    1  LIG1       -0.0043
     28 C          -3.9960   -4.2380    0.0000 C.ar    1  LIG1       -0.0003
     29 C          -3.1250   -4.7330    0.0000 C.ar    1  LIG1       -0.0000
     30 C          -2.2540   -4.2330    0.0000 C.ar    1  LIG1       -0.0003
     31 C          -2.2580   -3.2210    0.0000 C.ar    1  LIG1       -0.0043
     32 C          -2.2670   -0.2170    0.0000 C.3     1  LIG1        0.0219
     33 C          -1.4040    0.2830    0.0000 C.3     1  LIG1        0.0937
     34 O           1.1580   -0.2330    0.0000 O.2     1  LIG1       -0.2699
@<TRIPOS>BOND
     1     1     2   ar
     2     1    14   ar
     3     1    20    1
     4     2     3   ar
     5     2     6   ar
     6     3     4   ar
     7     3    12   ar
     8     4     5   ar
     9     4    11    1
    10     5     6   ar
    11     5    10   ar
    12     6     7   ar
    13     7     8   ar
    14     8     9   ar
    15     9    10   ar
    16    12    13   ar
    17    12    19    2
    18    13    14   ar
    19    13    15    1
    20    15    16    1
    21    16    17    1
    22    16    18    1
    23    20    21   am
    24    20    34    2
    25    21    22    1
    26    21    33    1
    27    22    23    1
    28    23    24    1
    29    24    25    1
    30    24    32    1
    31    25    26    1
    32    26    27   ar
    33    26    31   ar
    34    27    28   ar
    35    28    29   ar
    36    29    30   ar
    37    30    31   ar
    38    32    33    1
