@<TRIPOS>MOLECULE
36335_ChemDiv_C688-1442
 29 33 0 0 0
SMALL
GASTEIGER
Energy = 0

@<TRIPOS>ATOM
      1 N           1.4250    1.2250    0.0000 N.ar    1  LIG1       -0.2408
      2 C           1.4380    0.2250    0.0000 C.ar    1  LIG1        0.3344
      3 N           0.5790   -0.2880    0.0000 N.ar    1  LIG1       -0.2764
      4 C          -0.2830    0.2000    0.0000 C.ar    1  LIG1        0.0752
      5 C          -0.2960    1.2080    0.0000 C.ar    1  LIG1        0.1016
      6 C           0.5500    1.7250    0.0000 C.ar    1  LIG1        0.2720
      7 O           0.5460    2.7130    0.0000 O.2     1  LIG1       -0.2662
      8 S          -1.2670    1.4960    0.0000 S.2     1  LIG1       -0.0807
      9 C          -1.8420    0.6790    0.0000 C.ar    1  LIG1        0.0310
     10 C          -1.2380   -0.1250    0.0000 C.ar    1  LIG1        0.0226
     11 C          -1.6210   -1.0420    0.0000 C.ar    1  LIG1        0.0020
     12 C          -2.6130   -1.1710    0.0000 C.ar    1  LIG1        0.0001
     13 C          -3.2210   -0.3670    0.0000 C.ar    1  LIG1        0.0005
     14 C          -2.8250    0.5580    0.0000 C.ar    1  LIG1        0.0065
     15 C           0.5960   -1.2830    0.0000 C.3     1  LIG1        0.1372
     16 C           1.4750   -1.7750    0.0000 C.ar    1  LIG1        0.0002
     17 C           1.4880   -2.7750    0.0000 C.ar    1  LIG1       -0.0066
     18 C           2.3540   -3.2580    0.0000 C.ar    1  LIG1       -0.0221
     19 C           3.2170   -2.7540    0.0000 C.ar    1  LIG1       -0.0043
     20 C           3.2170   -1.7580    0.0000 C.ar    1  LIG1       -0.0006
     21 C           2.3380   -1.2710    0.0000 C.ar    1  LIG1       -0.0024
     22 C           2.3540   -4.2750    0.0000 C.3     1  LIG1        0.0310
     23 O           2.3080   -0.2630    0.0000 O.2     1  LIG1       -0.2462
     24 C           2.2880    1.7380    0.0000 C.3     1  LIG1        0.1779
     25 C           2.2710    2.7380    0.0000 C.ar    1  LIG1        0.1460
     26 O           3.0750    3.3330    0.0000 O.2     1  LIG1       -0.4527
     27 C           2.7460    4.2750    0.0000 C.ar    1  LIG1        0.1792
     28 C           1.7460    4.2580    0.0000 C.ar    1  LIG1        0.0435
     29 C           1.4580    3.3080    0.0000 C.ar    1  LIG1        0.0382
@<TRIPOS>BOND
     1     1     2   ar
     2     1     6   ar
     3     1    24    1
     4     2     3   ar
     5     2    23    2
     6     3     4   ar
     7     3    15    1
     8     4     5   ar
     9     4    10   ar
    10     5     6   ar
    11     5     8   ar
    12     6     7    2
    13     8     9   ar
    14     9    10   ar
    15     9    14   ar
    16    10    11   ar
    17    11    12   ar
    18    12    13   ar
    19    13    14   ar
    20    15    16    1
    21    16    17   ar
    22    16    21   ar
    23    17    18   ar
    24    18    19   ar
    25    18    22    1
    26    19    20   ar
    27    20    21   ar
    28    24    25    1
    29    25    26   ar
    30    25    29   ar
    31    26    27   ar
    32    27    28   ar
    33    28    29   ar
