@<TRIPOS>MOLECULE
36333_ChemDiv_C688-1436
 35 39 0 0 0
SMALL
GASTEIGER
Energy = 0

@<TRIPOS>ATOM
      1 N          -0.3000    1.1880    0.0000 N.ar    1  LIG1       -0.2408
      2 C          -0.2830    0.1880    0.0000 C.ar    1  LIG1        0.3345
      3 N          -1.1420   -0.3250    0.0000 N.ar    1  LIG1       -0.2715
      4 C          -2.0080    0.1630    0.0000 C.ar    1  LIG1        0.0754
      5 C          -2.0210    1.1710    0.0000 C.ar    1  LIG1        0.1016
      6 C          -1.1750    1.6880    0.0000 C.ar    1  LIG1        0.2720
      7 O          -1.1790    2.6750    0.0000 O.2     1  LIG1       -0.2662
      8 S          -2.9920    1.4580    0.0000 S.2     1  LIG1       -0.0807
      9 C          -3.5670    0.6420    0.0000 C.ar    1  LIG1        0.0310
     10 C          -2.9630   -0.1630    0.0000 C.ar    1  LIG1        0.0226
     11 C          -3.3460   -1.0790    0.0000 C.ar    1  LIG1        0.0020
     12 C          -4.3380   -1.2080    0.0000 C.ar    1  LIG1        0.0001
     13 C          -4.9460   -0.4040    0.0000 C.ar    1  LIG1        0.0005
     14 C          -4.5500    0.5210    0.0000 C.ar    1  LIG1        0.0065
     15 C          -1.1290   -1.3250    0.0000 C.3     1  LIG1        0.1974
     16 C          -0.2500   -1.8130    0.0000 C.2     1  LIG1        0.2688
     17 N           0.6080   -1.3000    0.0000 N.am    1  LIG1       -0.1775
     18 C           1.4920   -1.7920    0.0000 C.ar    1  LIG1        0.0766
     19 C           2.3420   -1.2790    0.0000 C.ar    1  LIG1        0.0566
     20 C           3.2210   -1.7540    0.0000 C.ar    1  LIG1        0.1737
     21 C           3.2460   -2.7540    0.0000 C.ar    1  LIG1        0.1725
     22 C           2.3880   -3.2670    0.0000 C.ar    1  LIG1        0.0414
     23 C           1.5080   -2.7920    0.0000 C.ar    1  LIG1        0.0199
     24 O           4.1210   -3.2380    0.0000 O.3     1  LIG1       -0.4684
     25 C           4.1420   -4.2380    0.0000 C.3     1  LIG1        0.2526
     26 O           4.0670   -1.2330    0.0000 O.3     1  LIG1       -0.4683
     27 C           4.9420   -1.7080    0.0000 C.3     1  LIG1        0.2526
     28 O          -0.2380   -2.8130    0.0000 O.2     1  LIG1       -0.2709
     29 O           0.5830   -0.3000    0.0000 O.2     1  LIG1       -0.2462
     30 C           0.5630    1.7000    0.0000 C.3     1  LIG1        0.1779
     31 C           0.5500    2.7000    0.0000 C.ar    1  LIG1        0.1460
     32 O           1.3500    3.2960    0.0000 O.2     1  LIG1       -0.4527
     33 C           1.0210    4.2380    0.0000 C.ar    1  LIG1        0.1792
     34 C           0.0250    4.2210    0.0000 C.ar    1  LIG1        0.0435
     35 C          -0.2630    3.2710    0.0000 C.ar    1  LIG1        0.0382
@<TRIPOS>BOND
     1     1     2   ar
     2     1     6   ar
     3     1    30    1
     4     2     3   ar
     5     2    29    2
     6     3     4   ar
     7     3    15    1
     8     4     5   ar
     9     4    10   ar
    10     5     6   ar
    11     5     8   ar
    12     6     7    2
    13     8     9   ar
    14     9    10   ar
    15     9    14   ar
    16    10    11   ar
    17    11    12   ar
    18    12    13   ar
    19    13    14   ar
    20    15    16    1
    21    16    17   am
    22    16    28    2
    23    17    18    1
    24    18    19   ar
    25    18    23   ar
    26    19    20   ar
    27    20    21   ar
    28    20    26    1
    29    21    22   ar
    30    21    24    1
    31    22    23   ar
    32    24    25    1
    33    26    27    1
    34    30    31    1
    35    31    32   ar
    36    31    35   ar
    37    32    33   ar
    38    33    34   ar
    39    34    35   ar
