@<TRIPOS>MOLECULE
36331_ChemDiv_C688-1431
 35 39 0 0 0
SMALL
GASTEIGER
Energy = 0

@<TRIPOS>ATOM
      1 N           0.1330    1.4380    0.0000 N.ar    1  LIG1       -0.2408
      2 C           0.1460    0.4380    0.0000 C.ar    1  LIG1        0.3345
      3 N          -0.7130   -0.0750    0.0000 N.ar    1  LIG1       -0.2715
      4 C          -1.5750    0.4130    0.0000 C.ar    1  LIG1        0.0754
      5 C          -1.5920    1.4210    0.0000 C.ar    1  LIG1        0.1016
      6 C          -0.7420    1.9380    0.0000 C.ar    1  LIG1        0.2720
      7 O          -0.7460    2.9250    0.0000 O.2     1  LIG1       -0.2662
      8 S          -2.5580    1.7080    0.0000 S.2     1  LIG1       -0.0807
      9 C          -3.1380    0.8920    0.0000 C.ar    1  LIG1        0.0310
     10 C          -2.5290    0.0880    0.0000 C.ar    1  LIG1        0.0226
     11 C          -2.9130   -0.8290    0.0000 C.ar    1  LIG1        0.0020
     12 C          -3.9080   -0.9580    0.0000 C.ar    1  LIG1        0.0001
     13 C          -4.5130   -0.1540    0.0000 C.ar    1  LIG1        0.0005
     14 C          -4.1210    0.7710    0.0000 C.ar    1  LIG1        0.0065
     15 C          -0.6960   -1.0750    0.0000 C.3     1  LIG1        0.1974
     16 C           0.1830   -1.5630    0.0000 C.2     1  LIG1        0.2688
     17 N           1.0290   -1.0420    0.0000 N.am    1  LIG1       -0.1774
     18 C           1.9250   -1.5330    0.0000 C.ar    1  LIG1        0.0795
     19 C           1.9420   -2.5290    0.0000 C.ar    1  LIG1        0.0537
     20 C           2.8170   -3.0130    0.0000 C.ar    1  LIG1        0.1431
     21 C           3.6670   -2.4880    0.0000 C.ar    1  LIG1        0.0738
     22 C           3.6460   -1.4880    0.0000 C.ar    1  LIG1        0.1431
     23 C           2.7750   -1.0130    0.0000 C.ar    1  LIG1        0.0537
     24 O           4.5080   -0.9580    0.0000 O.3     1  LIG1       -0.4713
     25 C           4.4790    0.0420    0.0000 C.3     1  LIG1        0.2525
     26 O           2.8420   -4.0130    0.0000 O.3     1  LIG1       -0.4713
     27 C           3.7130   -4.4880    0.0000 C.3     1  LIG1        0.2525
     28 O           0.1960   -2.5500    0.0000 O.2     1  LIG1       -0.2709
     29 O           1.0170   -0.0500    0.0000 O.2     1  LIG1       -0.2462
     30 C           0.9960    1.9500    0.0000 C.3     1  LIG1        0.1779
     31 C           0.9790    2.9500    0.0000 C.ar    1  LIG1        0.1460
     32 O           1.7830    3.5460    0.0000 O.2     1  LIG1       -0.4527
     33 C           1.4540    4.4880    0.0000 C.ar    1  LIG1        0.1792
     34 C           0.4540    4.4710    0.0000 C.ar    1  LIG1        0.0435
     35 C           0.1670    3.5210    0.0000 C.ar    1  LIG1        0.0382
@<TRIPOS>BOND
     1     1     2   ar
     2     1     6   ar
     3     1    30    1
     4     2     3   ar
     5     2    29    2
     6     3     4   ar
     7     3    15    1
     8     4     5   ar
     9     4    10   ar
    10     5     6   ar
    11     5     8   ar
    12     6     7    2
    13     8     9   ar
    14     9    10   ar
    15     9    14   ar
    16    10    11   ar
    17    11    12   ar
    18    12    13   ar
    19    13    14   ar
    20    15    16    1
    21    16    17   am
    22    16    28    2
    23    17    18    1
    24    18    19   ar
    25    18    23   ar
    26    19    20   ar
    27    20    21   ar
    28    20    26    1
    29    21    22   ar
    30    22    23   ar
    31    22    24    1
    32    24    25    1
    33    26    27    1
    34    30    31    1
    35    31    32   ar
    36    31    35   ar
    37    32    33   ar
    38    33    34   ar
    39    34    35   ar
