@<TRIPOS>MOLECULE
36334_ChemDiv_C329-0319
 30 34 0 0 0
SMALL
GASTEIGER
Energy = 0

@<TRIPOS>ATOM
      1 C          -0.1830    0.3960    0.0000 C.ar    1  LIG1        0.0724
      2 C           0.6790    0.9080    0.0000 C.ar    1  LIG1        0.0277
      3 C           0.6790    1.9130    0.0000 C.ar    1  LIG1        0.1170
      4 C          -0.1960    2.4130    0.0000 C.ar    1  LIG1        0.2767
      5 N          -1.0670    1.9130    0.0000 N.ar    1  LIG1       -0.2947
      6 C          -1.0630    0.8920    0.0000 C.ar    1  LIG1        0.0828
      7 C          -1.9290    2.4130    0.0000 C.3     1  LIG1        0.0885
      8 C          -2.0330    3.4080    0.0000 C.3     1  LIG1        0.0227
      9 C          -2.9960    3.6130    0.0000 C.3     1  LIG1        0.0020
     10 C          -3.5000    2.7460    0.0000 C.3     1  LIG1        0.0020
     11 C          -2.8290    2.0040    0.0000 C.3     1  LIG1        0.0227
     12 O          -0.1960    3.4290    0.0000 O.2     1  LIG1       -0.2654
     13 N           1.6290    2.2170    0.0000 N.ar    1  LIG1       -0.3214
     14 C           2.2210    1.4290    0.0000 C.ar    1  LIG1        0.0601
     15 C           1.6460    0.6080    0.0000 C.ar    1  LIG1        0.0175
     16 C           2.0540   -0.2920    0.0000 C.ar    1  LIG1        0.0015
     17 C           3.0540   -0.3880    0.0000 C.ar    1  LIG1        0.0001
     18 C           3.6290    0.4130    0.0000 C.ar    1  LIG1        0.0015
     19 C           3.2130    1.3210    0.0000 C.ar    1  LIG1        0.0172
     20 C           1.9170    3.1880    0.0000 C.3     1  LIG1        0.1306
     21 C          -0.1830   -0.6000    0.0000 C.2     1  LIG1        0.2505
     22 N          -1.0460   -1.1000    0.0000 N.am    1  LIG1       -0.2760
     23 C          -1.9130   -0.6130    0.0000 C.3     1  LIG1        0.0937
     24 C          -2.7710   -1.1000    0.0000 C.3     1  LIG1        0.0199
     25 C          -2.7790   -2.1080    0.0000 C.3     1  LIG1        0.0034
     26 C          -1.9170   -2.6000    0.0000 C.3     1  LIG1        0.0199
     27 C          -1.0630   -2.1080    0.0000 C.3     1  LIG1        0.0937
     28 C          -1.9250   -3.6080    0.0000 C.3     1  LIG1        0.0018
     29 C          -3.6330   -0.6130    0.0000 C.3     1  LIG1        0.0018
     30 O           0.6920   -1.1000    0.0000 O.2     1  LIG1       -0.2699
@<TRIPOS>BOND
     1     1     2   ar
     2     1     6   ar
     3     1    21    1
     4     2     3   ar
     5     2    15   ar
     6     3     4   ar
     7     3    13   ar
     8     4     5   ar
     9     4    12    2
    10     5     6   ar
    11     5     7    1
    12     7     8    1
    13     7    11    1
    14     8     9    1
    15     9    10    1
    16    10    11    1
    17    13    14   ar
    18    13    20    1
    19    14    15   ar
    20    14    19   ar
    21    15    16   ar
    22    16    17   ar
    23    17    18   ar
    24    18    19   ar
    25    21    22   am
    26    21    30    2
    27    22    23    1
    28    22    27    1
    29    23    24    1
    30    24    25    1
    31    24    29    1
    32    25    26    1
    33    26    27    1
    34    26    28    1
