@<TRIPOS>MOLECULE
36330_ChemDiv_C237-0206
 37 41 0 0 0
SMALL
GASTEIGER
Energy = 0

@<TRIPOS>ATOM
      1 N           2.1330    1.5080    0.0000 N.pl3   1  LIG1       -0.2933
      2 C           1.2630    2.0040    0.0000 C.ar    1  LIG1        0.1313
      3 N           0.4000    1.5080    0.0000 N.ar    1  LIG1       -0.2307
      4 C          -0.4630    2.0080    0.0000 C.ar    1  LIG1        0.0825
      5 C          -0.4630    3.0040    0.0000 C.ar    1  LIG1        0.0151
      6 C           0.4000    3.5040    0.0000 C.ar    1  LIG1       -0.0176
      7 C           1.2630    3.0000    0.0000 C.ar    1  LIG1        0.0301
      8 C           0.4000    4.5000    0.0000 C.3     1  LIG1        0.0312
      9 C          -1.3250    3.5130    0.0000 C.ar    1  LIG1        0.0178
     10 C          -2.2000    3.0040    0.0000 C.ar    1  LIG1        0.0735
     11 N          -3.0630    3.5170    0.0000 N.am    1  LIG1       -0.1792
     12 C          -3.9380    3.0040    0.0000 C.2     1  LIG1        0.2461
     13 O          -4.7880    3.5040    0.0000 O.2     1  LIG1       -0.2730
     14 C          -3.9250    2.0080    0.0000 C.3     1  LIG1        0.0968
     15 C          -3.0500    1.5080    0.0000 C.3     1  LIG1        0.0968
     16 C          -3.0630    0.5130    0.0000 C.2     1  LIG1        0.2461
     17 N          -3.9250    0.0130    0.0000 N.am    1  LIG1       -0.1791
     18 C          -3.9250   -0.9960    0.0000 C.ar    1  LIG1        0.0766
     19 C          -3.0630   -1.5080    0.0000 C.ar    1  LIG1        0.0566
     20 C          -3.0500   -2.4920    0.0000 C.ar    1  LIG1        0.1737
     21 C          -3.9250   -3.0000    0.0000 C.ar    1  LIG1        0.1725
     22 O          -3.9250   -4.0040    0.0000 O.3     1  LIG1       -0.4684
     23 C          -3.0460   -4.5000    0.0000 C.3     1  LIG1        0.2526
     24 C          -2.1830   -4.0000    0.0000 C.3     1  LIG1        0.2526
     25 O          -2.1830   -2.9920    0.0000 O.3     1  LIG1       -0.4683
     26 C          -4.7830   -2.5080    0.0000 C.ar    1  LIG1        0.0414
     27 C          -4.7830   -1.5080    0.0000 C.ar    1  LIG1        0.0199
     28 O          -2.1880    0.0130    0.0000 O.2     1  LIG1       -0.2730
     29 C          -2.2000    2.0080    0.0000 C.ar    1  LIG1        0.0181
     30 C          -1.3290    1.5080    0.0000 C.ar    1  LIG1        0.0205
     31 C           1.9830    0.5290    0.0000 C.3     1  LIG1        0.0921
     32 C           2.7580   -0.0920    0.0000 C.3     1  LIG1        0.0199
     33 C           3.6830    0.2710    0.0000 C.3     1  LIG1        0.0034
     34 C           3.8330    1.2460    0.0000 C.3     1  LIG1        0.0199
     35 C           3.0630    1.8670    0.0000 C.3     1  LIG1        0.0921
     36 C           4.7830    1.5960    0.0000 C.3     1  LIG1        0.0018
     37 C           2.6080   -1.1000    0.0000 C.3     1  LIG1        0.0018
@<TRIPOS>BOND
     1     1     2    1
     2     1    31    1
     3     1    35    1
     4     2     3   ar
     5     2     7   ar
     6     3     4   ar
     7     4     5   ar
     8     4    30   ar
     9     5     6   ar
    10     5     9   ar
    11     6     7   ar
    12     6     8    1
    13     9    10   ar
    14    10    11    1
    15    10    29   ar
    16    11    12   am
    17    12    13    2
    18    12    14    1
    19    14    15    1
    20    15    16    1
    21    16    17   am
    22    16    28    2
    23    17    18    1
    24    18    19   ar
    25    18    27   ar
    26    19    20   ar
    27    20    21   ar
    28    20    25    1
    29    21    22    1
    30    21    26   ar
    31    22    23    1
    32    23    24    1
    33    24    25    1
    34    26    27   ar
    35    29    30   ar
    36    31    32    1
    37    32    33    1
    38    32    37    1
    39    33    34    1
    40    34    35    1
    41    34    36    1
