@<TRIPOS>MOLECULE
36336_ChemDiv_C237-0810
 35 38 0 0 0
SMALL
GASTEIGER
Energy = 0

@<TRIPOS>ATOM
      1 C           0.2790    2.5500    0.0000 C.ar    1  LIG1        0.0739
      2 C           1.1290    3.0170    0.0000 C.ar    1  LIG1        0.0278
      3 C           1.1500    4.0000    0.0000 C.ar    1  LIG1        0.1170
      4 N           2.0750    4.2750    0.0000 N.ar    1  LIG1       -0.3214
      5 C           2.6380    3.4880    0.0000 C.ar    1  LIG1        0.0601
      6 C           2.0540    2.7170    0.0000 C.ar    1  LIG1        0.0175
      7 C           2.4330    1.8040    0.0000 C.ar    1  LIG1        0.0015
      8 C           3.4080    1.7170    0.0000 C.ar    1  LIG1        0.0001
      9 C           3.9880    2.4710    0.0000 C.ar    1  LIG1        0.0015
     10 C           3.6040    3.3790    0.0000 C.ar    1  LIG1        0.0172
     11 C           2.3790    5.2130    0.0000 C.3     1  LIG1        0.1306
     12 C           0.3080    4.5040    0.0000 C.ar    1  LIG1        0.2767
     13 N          -0.5500    4.0330    0.0000 N.ar    1  LIG1       -0.2928
     14 C          -0.5670    3.0330    0.0000 C.ar    1  LIG1        0.0829
     15 C          -1.3830    4.5580    0.0000 C.3     1  LIG1        0.1091
     16 C          -2.2330    4.1080    0.0000 C.3     1  LIG1        0.0227
     17 C          -3.0580    4.6330    0.0000 C.3     1  LIG1        0.0020
     18 C          -2.2830    3.1420    0.0000 C.3     1  LIG1        0.0020
     19 O           0.3290    5.4880    0.0000 O.2     1  LIG1       -0.2654
     20 C           0.3130    1.0380    0.0000 C.2     1  LIG1        0.2663
     21 O           1.1500    0.5210    0.0000 O.2     1  LIG1       -0.2683
     22 N          -0.5500    0.5330    0.0000 N.am    1  LIG1       -0.2016
     23 C          -0.5500   -0.4670    0.0000 C.3     1  LIG1        0.1172
     24 C          -1.4130   -0.9670    0.0000 C.3     1  LIG1        0.0448
     25 C          -1.4130   -1.9830    0.0000 C.3     1  LIG1        0.0926
     26 N          -2.2710   -2.4830    0.0000 N.pl3   1  LIG1       -0.3074
     27 C          -2.2710   -3.4830    0.0000 C.ar    1  LIG1        0.0475
     28 C          -1.4040   -3.9790    0.0000 C.ar    1  LIG1        0.0103
     29 C          -1.4040   -4.9880    0.0000 C.ar    1  LIG1       -0.0206
     30 C          -2.2710   -5.4880    0.0000 C.ar    1  LIG1       -0.0042
     31 C          -3.1250   -4.9880    0.0000 C.ar    1  LIG1        0.0009
     32 C          -3.1250   -3.9790    0.0000 C.ar    1  LIG1        0.0145
     33 C          -0.5330   -5.4880    0.0000 C.3     1  LIG1        0.0311
     34 C          -3.1250   -1.9830    0.0000 C.3     1  LIG1        0.0908
     35 C          -3.9920   -2.4830    0.0000 C.3     1  LIG1        0.0232
@<TRIPOS>BOND
     1     1     2   ar
     2     1    14   ar
     3     1    20    1
     4     2     3   ar
     5     2     6   ar
     6     3     4   ar
     7     3    12   ar
     8     4     5   ar
     9     4    11    1
    10     5     6   ar
    11     5    10   ar
    12     6     7   ar
    13     7     8   ar
    14     8     9   ar
    15     9    10   ar
    16    12    13   ar
    17    12    19    2
    18    13    14   ar
    19    13    15    1
    20    15    16    1
    21    16    17    1
    22    16    18    1
    23    20    21    2
    24    20    22   am
    25    22    23    1
    26    23    24    1
    27    24    25    1
    28    25    26    1
    29    26    27    1
    30    26    34    1
    31    27    28   ar
    32    27    32   ar
    33    28    29   ar
    34    29    30   ar
    35    29    33    1
    36    30    31   ar
    37    31    32   ar
    38    34    35    1
