@<TRIPOS>MOLECULE
36344_ChemDiv_C519-0753
 30 33 0 0 0
SMALL
GASTEIGER
Energy = 0

@<TRIPOS>ATOM
      1 C          -1.7250   -1.2500    0.0000 C.ar    1  LIG1        0.1096
      2 C          -0.8500   -0.7540    0.0000 C.ar    1  LIG1        0.2028
      3 C          -0.8630    0.2460    0.0000 C.ar    1  LIG1        0.0562
      4 C          -1.7250    0.7460    0.0000 C.ar    1  LIG1        0.0631
      5 N          -2.5880    0.2460    0.0000 N.ar    1  LIG1       -0.3238
      6 C          -2.5920   -0.7540    0.0000 C.ar    1  LIG1        0.0837
      7 C          -3.4500    0.7500    0.0000 C.3     1  LIG1        0.1305
      8 C          -1.7250    1.7460    0.0000 C.ar    1  LIG1        0.0187
      9 C          -0.8630    2.2460    0.0000 C.ar    1  LIG1        0.0214
     10 C           0.0130    1.7460    0.0000 C.ar    1  LIG1        0.1224
     11 S           0.8750    2.2500    0.0000 S.O2    1  LIG1        0.0633
     12 N           1.7380    2.7580    0.0000 N.3     1  LIG1       -0.1555
     13 C           1.7380    3.7540    0.0000 C.3     1  LIG1        0.0958
     14 C           2.5880    4.2500    0.0000 C.3     1  LIG1        0.0192
     15 C           3.4670    3.7500    0.0000 C.3     1  LIG1        0.0029
     16 C           3.4630    2.7580    0.0000 C.3     1  LIG1        0.0192
     17 C           2.6000    2.2580    0.0000 C.3     1  LIG1        0.0958
     18 C           4.3420    4.2330    0.0000 C.3     1  LIG1        0.0001
     19 O           0.3630    3.1130    0.0000 O.2     1  LIG1       -0.1528
     20 O           1.3790    1.3880    0.0000 O.2     1  LIG1       -0.1528
     21 C           0.0130    0.7460    0.0000 C.ar    1  LIG1        0.0245
     22 O           0.0130   -1.2500    0.0000 O.2     1  LIG1       -0.2863
     23 C          -1.7250   -2.2630    0.0000 C.2     1  LIG1        0.2537
     24 N          -2.5920   -2.7500    0.0000 N.am    1  LIG1       -0.2708
     25 C          -3.4790   -2.2500    0.0000 C.3     1  LIG1        0.1258
     26 C          -4.3330   -2.7500    0.0000 C.3     1  LIG1        0.1637
     27 O          -4.3460   -3.7460    0.0000 O.3     1  LIG1       -0.3501
     28 C          -3.4670   -4.2500    0.0000 C.3     1  LIG1        0.1637
     29 C          -2.6040   -3.7500    0.0000 C.3     1  LIG1        0.1258
     30 O          -0.8630   -2.7630    0.0000 O.2     1  LIG1       -0.2697
@<TRIPOS>BOND
     1     1     2   ar
     2     1     6   ar
     3     1    23    1
     4     2     3   ar
     5     2    22    2
     6     3     4   ar
     7     3    21   ar
     8     4     5   ar
     9     4     8   ar
    10     5     6   ar
    11     5     7    1
    12     8     9   ar
    13     9    10   ar
    14    10    11    1
    15    10    21   ar
    16    11    12    1
    17    11    19    2
    18    11    20    2
    19    12    13    1
    20    12    17    1
    21    13    14    1
    22    14    15    1
    23    15    16    1
    24    15    18    1
    25    16    17    1
    26    23    24   am
    27    23    30    2
    28    24    25    1
    29    24    29    1
    30    25    26    1
    31    26    27    1
    32    27    28    1
    33    28    29    1
