@<TRIPOS>MOLECULE
36340_ChemDiv_C519-0441
 29 32 0 0 0
SMALL
GASTEIGER
Energy = 0

@<TRIPOS>ATOM
      1 C          -1.2920   -1.2460    0.0000 C.ar    1  LIG1        0.1096
      2 C          -0.4210   -0.7460    0.0000 C.ar    1  LIG1        0.2028
      3 C          -0.4290    0.2540    0.0000 C.ar    1  LIG1        0.0562
      4 C          -1.2920    0.7540    0.0000 C.ar    1  LIG1        0.0631
      5 N          -2.1540    0.2540    0.0000 N.ar    1  LIG1       -0.3238
      6 C          -2.1630   -0.7460    0.0000 C.ar    1  LIG1        0.0837
      7 C          -3.0170    0.7580    0.0000 C.3     1  LIG1        0.1305
      8 C          -1.2920    1.7500    0.0000 C.ar    1  LIG1        0.0187
      9 C          -0.4290    2.2540    0.0000 C.ar    1  LIG1        0.0214
     10 C           0.4420    1.7500    0.0000 C.ar    1  LIG1        0.1224
     11 S           1.3040    2.2580    0.0000 S.O2    1  LIG1        0.0634
     12 N           2.1670    2.7670    0.0000 N.3     1  LIG1       -0.1504
     13 C           3.0500    2.2670    0.0000 C.3     1  LIG1        0.1279
     14 C           3.9080    2.7670    0.0000 C.3     1  LIG1        0.1613
     15 O           3.9080    3.7540    0.0000 O.3     1  LIG1       -0.3507
     16 C           3.0210    4.2420    0.0000 C.3     1  LIG1        0.1613
     17 C           2.1670    3.7460    0.0000 C.3     1  LIG1        0.1279
     18 O           0.7960    3.1210    0.0000 O.2     1  LIG1       -0.1528
     19 O           1.8130    1.3960    0.0000 O.2     1  LIG1       -0.1528
     20 C           0.4420    0.7540    0.0000 C.ar    1  LIG1        0.0245
     21 O           0.4420   -1.2460    0.0000 O.2     1  LIG1       -0.2863
     22 C          -1.2920   -2.2540    0.0000 C.2     1  LIG1        0.2537
     23 N          -2.1630   -2.7420    0.0000 N.am    1  LIG1       -0.2708
     24 C          -3.0500   -2.2460    0.0000 C.3     1  LIG1        0.1258
     25 C          -3.9040   -2.7420    0.0000 C.3     1  LIG1        0.1637
     26 O          -3.9130   -3.7380    0.0000 O.3     1  LIG1       -0.3501
     27 C          -3.0330   -4.2420    0.0000 C.3     1  LIG1        0.1637
     28 C          -2.1710   -3.7420    0.0000 C.3     1  LIG1        0.1258
     29 O          -0.4290   -2.7540    0.0000 O.2     1  LIG1       -0.2697
@<TRIPOS>BOND
     1     1     2   ar
     2     1     6   ar
     3     1    22    1
     4     2     3   ar
     5     2    21    2
     6     3     4   ar
     7     3    20   ar
     8     4     5   ar
     9     4     8   ar
    10     5     6   ar
    11     5     7    1
    12     8     9   ar
    13     9    10   ar
    14    10    11    1
    15    10    20   ar
    16    11    12    1
    17    11    18    2
    18    11    19    2
    19    12    13    1
    20    12    17    1
    21    13    14    1
    22    14    15    1
    23    15    16    1
    24    16    17    1
    25    22    23   am
    26    22    29    2
    27    23    24    1
    28    23    28    1
    29    24    25    1
    30    25    26    1
    31    26    27    1
    32    27    28    1
