@<TRIPOS>MOLECULE
36347_ChemDiv_G195-0490
 28 30 0 0 0
SMALL
GASTEIGER
Energy = 0

@<TRIPOS>ATOM
      1 N          -2.5830   -1.0170    0.0000 N.ar    1  LIG1       -0.2699
      2 C          -1.7210   -0.4880    0.0000 C.ar    1  LIG1        0.2883
      3 C          -0.8630   -1.0170    0.0000 C.ar    1  LIG1        0.1636
      4 N          -0.8630   -2.0130    0.0000 N.ar    1  LIG1       -0.2312
      5 C          -1.7210   -2.5080    0.0000 C.ar    1  LIG1        0.1186
      6 C          -2.5830   -2.0130    0.0000 C.ar    1  LIG1        0.1036
      7 S           0.0130   -0.5040    0.0000 S.3     1  LIG1       -0.0804
      8 C          -0.0040    0.4920    0.0000 C.3     1  LIG1        0.1506
      9 C           0.8580    0.9920    0.0000 C.2     1  LIG1        0.2570
     10 N           1.7170    0.4920    0.0000 N.am    1  LIG1       -0.1785
     11 C           2.5790    0.9920    0.0000 C.ar    1  LIG1        0.0734
     12 C           2.5630    1.9880    0.0000 C.ar    1  LIG1        0.0163
     13 C           3.4250    2.5000    0.0000 C.ar    1  LIG1       -0.0029
     14 C           4.2960    2.0000    0.0000 C.ar    1  LIG1       -0.0221
     15 C           4.3130    1.0040    0.0000 C.ar    1  LIG1       -0.0029
     16 C           3.4540    0.4920    0.0000 C.ar    1  LIG1        0.0163
     17 C           5.1580    2.5130    0.0000 C.3     1  LIG1        0.0264
     18 C           6.0330    2.0170    0.0000 C.3     1  LIG1        0.0050
     19 O           0.8580    1.9880    0.0000 O.2     1  LIG1       -0.2720
     20 O          -1.7210    0.5080    0.0000 O.2     1  LIG1       -0.2644
     21 C          -3.4420   -0.5040    0.0000 C.ar    1  LIG1        0.0664
     22 C          -3.4420    0.4920    0.0000 C.ar    1  LIG1        0.0133
     23 C          -4.3000    0.9920    0.0000 C.ar    1  LIG1       -0.0207
     24 C          -5.1790    0.4920    0.0000 C.ar    1  LIG1       -0.0084
     25 C          -5.1790   -0.5170    0.0000 C.ar    1  LIG1       -0.0207
     26 C          -4.3170   -1.0170    0.0000 C.ar    1  LIG1        0.0133
     27 C          -6.0330   -1.0130    0.0000 C.3     1  LIG1        0.0311
     28 C          -4.3000    1.9880    0.0000 C.3     1  LIG1        0.0311
@<TRIPOS>BOND
     1     1     2   ar
     2     1     6   ar
     3     1    21    1
     4     2     3   ar
     5     2    20    2
     6     3     4   ar
     7     3     7    1
     8     4     5   ar
     9     5     6   ar
    10     7     8    1
    11     8     9    1
    12     9    10   am
    13     9    19    2
    14    10    11    1
    15    11    12   ar
    16    11    16   ar
    17    12    13   ar
    18    13    14   ar
    19    14    15   ar
    20    14    17    1
    21    15    16   ar
    22    17    18    1
    23    21    22   ar
    24    21    26   ar
    25    22    23   ar
    26    23    24   ar
    27    23    28    1
    28    24    25   ar
    29    25    26   ar
    30    25    27    1
