@<TRIPOS>MOLECULE
36343_ChemDiv_G195-0347
 26 28 0 0 0
SMALL
GASTEIGER
Energy = 0

@<TRIPOS>ATOM
      1 N          -2.5920   -1.0000    0.0000 N.ar    1  LIG1       -0.2699
      2 C          -1.7290   -0.4790    0.0000 C.ar    1  LIG1        0.2883
      3 C          -0.8630   -1.0000    0.0000 C.ar    1  LIG1        0.1636
      4 N          -0.8630   -2.0080    0.0000 N.ar    1  LIG1       -0.2312
      5 C          -1.7290   -2.5040    0.0000 C.ar    1  LIG1        0.1186
      6 C          -2.5920   -2.0080    0.0000 C.ar    1  LIG1        0.1036
      7 S           0.0130   -0.4960    0.0000 S.3     1  LIG1       -0.0804
      8 C           0.0000    0.5040    0.0000 C.3     1  LIG1        0.1506
      9 C           0.8630    1.0040    0.0000 C.2     1  LIG1        0.2570
     10 N           1.7250    0.5130    0.0000 N.am    1  LIG1       -0.1785
     11 C           2.5880    1.0130    0.0000 C.ar    1  LIG1        0.0731
     12 C           3.4580    0.5130    0.0000 C.ar    1  LIG1        0.0123
     13 C           4.3080    1.0170    0.0000 C.ar    1  LIG1       -0.0206
     14 C           4.3080    2.0170    0.0000 C.ar    1  LIG1       -0.0042
     15 C           3.4330    2.5080    0.0000 C.ar    1  LIG1        0.0010
     16 C           2.5790    2.0130    0.0000 C.ar    1  LIG1        0.0166
     17 C           5.1830    0.5290    0.0000 C.3     1  LIG1        0.0311
     18 O           0.8630    2.0000    0.0000 O.2     1  LIG1       -0.2720
     19 O          -1.7290    0.5170    0.0000 O.2     1  LIG1       -0.2644
     20 C          -3.4500   -0.4960    0.0000 C.ar    1  LIG1        0.0678
     21 C          -3.4500    0.5040    0.0000 C.ar    1  LIG1        0.0290
     22 C          -4.3130    1.0040    0.0000 C.ar    1  LIG1        0.0591
     23 CL         -4.3250    2.0000    0.0000 Cl      1  LIG1       -0.0822
     24 C          -5.1880    0.5130    0.0000 C.ar    1  LIG1        0.0115
     25 C          -5.1880   -0.5000    0.0000 C.ar    1  LIG1        0.0024
     26 C          -4.3250   -1.0000    0.0000 C.ar    1  LIG1        0.0177
@<TRIPOS>BOND
     1     1     2   ar
     2     1     6   ar
     3     1    20    1
     4     2     3   ar
     5     2    19    2
     6     3     4   ar
     7     3     7    1
     8     4     5   ar
     9     5     6   ar
    10     7     8    1
    11     8     9    1
    12     9    10   am
    13     9    18    2
    14    10    11    1
    15    11    12   ar
    16    11    16   ar
    17    12    13   ar
    18    13    14   ar
    19    13    17    1
    20    14    15   ar
    21    15    16   ar
    22    20    21   ar
    23    20    26   ar
    24    21    22   ar
    25    22    23    1
    26    22    24   ar
    27    24    25   ar
    28    25    26   ar
