@<TRIPOS>MOLECULE
36341_ChemDiv_G195-0343
 28 30 0 0 0
SMALL
GASTEIGER
Energy = 0

@<TRIPOS>ATOM
      1 N          -3.0250   -1.5080    0.0000 N.ar    1  LIG1       -0.2699
      2 C          -2.1630   -0.9830    0.0000 C.ar    1  LIG1        0.2883
      3 C          -1.2830   -1.5080    0.0000 C.ar    1  LIG1        0.1636
      4 N          -1.2830   -2.5130    0.0000 N.ar    1  LIG1       -0.2312
      5 C          -2.1630   -3.0130    0.0000 C.ar    1  LIG1        0.1186
      6 C          -3.0250   -2.5130    0.0000 C.ar    1  LIG1        0.1036
      7 S          -0.4250   -1.0000    0.0000 S.3     1  LIG1       -0.0804
      8 C          -0.4250    0.0000    0.0000 C.3     1  LIG1        0.1506
      9 C           0.4380    0.5000    0.0000 C.2     1  LIG1        0.2570
     10 N           1.3000    0.0040    0.0000 N.am    1  LIG1       -0.1785
     11 C           2.1630    0.5130    0.0000 C.ar    1  LIG1        0.0734
     12 C           2.1500    1.5040    0.0000 C.ar    1  LIG1        0.0163
     13 C           3.0130    2.0130    0.0000 C.ar    1  LIG1       -0.0029
     14 C           3.8830    1.5130    0.0000 C.ar    1  LIG1       -0.0224
     15 C           3.8880    0.5130    0.0000 C.ar    1  LIG1       -0.0029
     16 C           3.0250    0.0130    0.0000 C.ar    1  LIG1        0.0163
     17 C           4.7460    2.0170    0.0000 C.3     1  LIG1        0.0224
     18 C           5.6130    1.5290    0.0000 C.3     1  LIG1        0.0047
     19 C           4.7330    3.0170    0.0000 C.3     1  LIG1        0.0047
     20 O           0.4330    1.4960    0.0000 O.2     1  LIG1       -0.2720
     21 O          -2.1630    0.0130    0.0000 O.2     1  LIG1       -0.2644
     22 C          -3.8880   -1.0000    0.0000 C.ar    1  LIG1        0.0678
     23 C          -3.8880    0.0000    0.0000 C.ar    1  LIG1        0.0290
     24 C          -4.7500    0.5000    0.0000 C.ar    1  LIG1        0.0591
     25 CL         -4.7500    1.4960    0.0000 Cl      1  LIG1       -0.0822
     26 C          -5.6170    0.0040    0.0000 C.ar    1  LIG1        0.0115
     27 C          -5.6130   -1.0000    0.0000 C.ar    1  LIG1        0.0024
     28 C          -4.7500   -1.5000    0.0000 C.ar    1  LIG1        0.0177
@<TRIPOS>BOND
     1     1     2   ar
     2     1     6   ar
     3     1    22    1
     4     2     3   ar
     5     2    21    2
     6     3     4   ar
     7     3     7    1
     8     4     5   ar
     9     5     6   ar
    10     7     8    1
    11     8     9    1
    12     9    10   am
    13     9    20    2
    14    10    11    1
    15    11    12   ar
    16    11    16   ar
    17    12    13   ar
    18    13    14   ar
    19    14    15   ar
    20    14    17    1
    21    15    16   ar
    22    17    18    1
    23    17    19    1
    24    22    23   ar
    25    22    28   ar
    26    23    24   ar
    27    24    25    1
    28    24    26   ar
    29    26    27   ar
    30    27    28   ar
