@<TRIPOS>MOLECULE
36354_ChemDiv_C239-0625
 29 33 0 0 0
SMALL
GASTEIGER
Energy = 0

@<TRIPOS>ATOM
      1 N           1.3880   -1.1130    0.0000 N.am    1  LIG1       -0.2168
      2 C           2.0710   -1.8630    0.0000 C.2     1  LIG1        0.2554
      3 C           2.9580   -1.4540    0.0000 C.ar    1  LIG1        0.0584
      4 C           2.8710   -0.4630    0.0000 C.ar    1  LIG1        0.0584
      5 C           1.8880   -0.2540    0.0000 C.2     1  LIG1        0.2554
      6 O           1.4790    0.6790    0.0000 O.2     1  LIG1       -0.2695
      7 C           3.6880    0.1210    0.0000 C.ar    1  LIG1        0.0047
      8 C           4.5960   -0.3040    0.0000 C.ar    1  LIG1        0.0001
      9 C           4.6880   -1.2960    0.0000 C.ar    1  LIG1        0.0001
     10 C           3.8670   -1.8750    0.0000 C.ar    1  LIG1        0.0047
     11 O           1.8790   -2.8420    0.0000 O.2     1  LIG1       -0.2695
     12 C           0.3920   -1.1130    0.0000 C.3     1  LIG1        0.1501
     13 C          -0.1130   -0.2420    0.0000 C.ar    1  LIG1        0.1126
     14 C          -1.1080   -0.1380    0.0000 C.ar    1  LIG1        0.1490
     15 N          -1.3170    0.8330    0.0000 N.ar    1  LIG1       -0.2760
     16 C          -0.4580    1.3330    0.0000 C.ar    1  LIG1        0.1485
     17 N           0.2920    0.6670    0.0000 N.ar    1  LIG1       -0.2277
     18 C          -0.4580    2.3460    0.0000 C.ar    1  LIG1        0.0380
     19 C          -1.3170    2.8460    0.0000 C.ar    1  LIG1        0.0113
     20 C          -2.1830    2.3460    0.0000 C.ar    1  LIG1        0.0523
     21 C          -2.1830    1.3330    0.0000 C.ar    1  LIG1        0.0893
     22 BR         -3.0580    2.8460    0.0000 Br      1  LIG1       -0.0474
     23 N          -1.7630   -0.8880    0.0000 N.pl3   1  LIG1       -0.2221
     24 C          -2.7460   -0.6790    0.0000 C.3     1  LIG1        0.0940
     25 C          -3.0580    0.2630    0.0000 C.3     1  LIG1        0.0216
     26 C          -4.0250    0.4670    0.0000 C.3     1  LIG1        0.0018
     27 C          -4.6920   -0.2830    0.0000 C.3     1  LIG1        0.0001
     28 C          -4.3710   -1.2250    0.0000 C.3     1  LIG1        0.0018
     29 C          -3.3960   -1.4290    0.0000 C.3     1  LIG1        0.0216
@<TRIPOS>BOND
     1     1     2   am
     2     1     5   am
     3     1    12    1
     4     2     3    1
     5     2    11    2
     6     3     4   ar
     7     3    10   ar
     8     4     5    1
     9     4     7   ar
    10     5     6    2
    11     7     8   ar
    12     8     9   ar
    13     9    10   ar
    14    12    13    1
    15    13    14   ar
    16    13    17   ar
    17    14    15   ar
    18    14    23    1
    19    15    16   ar
    20    15    21   ar
    21    16    17   ar
    22    16    18   ar
    23    18    19   ar
    24    19    20   ar
    25    20    21   ar
    26    20    22    1
    27    23    24    1
    28    24    25    1
    29    24    29    1
    30    25    26    1
    31    26    27    1
    32    27    28    1
    33    28    29    1
