@<TRIPOS>MOLECULE
36356_ChemDiv_C239-0739
 24 27 0 0 0
SMALL
GASTEIGER
Energy = 0

@<TRIPOS>ATOM
      1 N           0.0670    0.9170    0.0000 N.ar    1  LIG1       -0.2657
      2 C           0.9290    1.4130    0.0000 C.ar    1  LIG1        0.2373
      3 N           1.6670    0.7330    0.0000 N.ar    1  LIG1       -0.2082
      4 C           1.2710   -0.1580    0.0000 C.ar    1  LIG1        0.1168
      5 C           0.2750   -0.0710    0.0000 C.ar    1  LIG1        0.1567
      6 N          -0.3880   -0.8080    0.0000 N.pl3   1  LIG1       -0.1939
      7 C          -1.0540   -1.5630    0.0000 C.ar    1  LIG1        0.0722
      8 C          -2.0290   -1.3540    0.0000 C.ar    1  LIG1        0.0174
      9 C          -2.6880   -2.0960    0.0000 C.ar    1  LIG1        0.0127
     10 C          -2.3830   -3.0460    0.0000 C.ar    1  LIG1        0.0578
     11 CL         -2.8830   -3.9080    0.0000 Cl      1  LIG1       -0.0822
     12 C          -1.4000   -3.2460    0.0000 C.ar    1  LIG1        0.0127
     13 C          -0.7380   -2.5000    0.0000 C.ar    1  LIG1        0.0174
     14 C           1.7290   -1.0500    0.0000 C.ar    1  LIG1        0.0275
     15 C           2.7290   -1.2170    0.0000 C.ar    1  LIG1        0.0370
     16 S           2.8790   -2.2130    0.0000 S.2     1  LIG1       -0.0859
     17 C           1.9880   -2.6670    0.0000 C.ar    1  LIG1        0.0355
     18 C           1.2750   -1.9540    0.0000 C.ar    1  LIG1        0.0091
     19 N           0.9290    2.4130    0.0000 N.ar    1  LIG1       -0.2154
     20 C           0.0670    2.9130    0.0000 C.ar    1  LIG1        0.0636
     21 C          -0.8040    2.4130    0.0000 C.ar    1  LIG1        0.0280
     22 C          -0.8040    1.4130    0.0000 C.ar    1  LIG1        0.0469
     23 C          -1.6750    0.9170    0.0000 C.3     1  LIG1        0.0505
     24 C           0.0670    3.9130    0.0000 C.3     1  LIG1        0.0522
@<TRIPOS>BOND
     1     1     2   ar
     2     1     5   ar
     3     1    22   ar
     4     2     3   ar
     5     2    19   ar
     6     3     4   ar
     7     4     5   ar
     8     4    14    1
     9     5     6    1
    10     6     7    1
    11     7     8   ar
    12     7    13   ar
    13     8     9   ar
    14     9    10   ar
    15    10    11    1
    16    10    12   ar
    17    12    13   ar
    18    14    15   ar
    19    14    18   ar
    20    15    16   ar
    21    16    17   ar
    22    17    18   ar
    23    19    20   ar
    24    20    21   ar
    25    20    24    1
    26    21    22   ar
    27    22    23    1
