@<TRIPOS>MOLECULE
36350_ChemDiv_C519-1703
 32 35 0 0 0
SMALL
GASTEIGER
Energy = 0

@<TRIPOS>ATOM
      1 C          -1.7250   -1.0000    0.0000 C.ar    1  LIG1        0.1096
      2 C          -0.8540   -0.5000    0.0000 C.ar    1  LIG1        0.2028
      3 C          -0.8630    0.5000    0.0000 C.ar    1  LIG1        0.0562
      4 C          -1.7250    0.9960    0.0000 C.ar    1  LIG1        0.0631
      5 N          -2.5880    0.5000    0.0000 N.ar    1  LIG1       -0.3258
      6 C          -2.5960   -0.5000    0.0000 C.ar    1  LIG1        0.0836
      7 C          -3.4500    1.0040    0.0000 C.3     1  LIG1        0.1061
      8 C          -3.4500    2.0000    0.0000 C.3     1  LIG1        0.0265
      9 C          -1.7250    1.9960    0.0000 C.ar    1  LIG1        0.0187
     10 C          -0.8630    2.4960    0.0000 C.ar    1  LIG1        0.0214
     11 C           0.0080    1.9960    0.0000 C.ar    1  LIG1        0.1224
     12 S           0.8710    2.5000    0.0000 S.O2    1  LIG1        0.0633
     13 N           1.7330    3.0080    0.0000 N.3     1  LIG1       -0.1554
     14 C           2.6000    2.5000    0.0000 C.3     1  LIG1        0.0796
     15 C           3.4630    3.0000    0.0000 C.3     1  LIG1        0.0177
     16 C           4.3380    2.4960    0.0000 C.3     1  LIG1        0.0014
     17 C           4.3380    1.5130    0.0000 C.3     1  LIG1        0.0001
     18 C           3.4750    0.9960    0.0000 C.3     1  LIG1        0.0014
     19 C           2.6000    1.4960    0.0000 C.3     1  LIG1        0.0177
     20 C           1.7210    4.0000    0.0000 C.3     1  LIG1        0.1148
     21 O           0.3630    3.3630    0.0000 O.2     1  LIG1       -0.1528
     22 O           1.3750    1.6380    0.0000 O.2     1  LIG1       -0.1528
     23 C           0.0080    0.9960    0.0000 C.ar    1  LIG1        0.0245
     24 O           0.0080   -1.0000    0.0000 O.2     1  LIG1       -0.2863
     25 C          -1.7250   -2.0080    0.0000 C.2     1  LIG1        0.2537
     26 N          -2.5960   -2.4960    0.0000 N.am    1  LIG1       -0.2708
     27 C          -3.4790   -1.9960    0.0000 C.3     1  LIG1        0.1258
     28 C          -4.3330   -2.4960    0.0000 C.3     1  LIG1        0.1637
     29 O          -4.3420   -3.4880    0.0000 O.3     1  LIG1       -0.3501
     30 C          -3.4670   -3.9960    0.0000 C.3     1  LIG1        0.1637
     31 C          -2.6040   -3.4960    0.0000 C.3     1  LIG1        0.1258
     32 O          -0.8630   -2.5080    0.0000 O.2     1  LIG1       -0.2697
@<TRIPOS>BOND
     1     1     2   ar
     2     1     6   ar
     3     1    25    1
     4     2     3   ar
     5     2    24    2
     6     3     4   ar
     7     3    23   ar
     8     4     5   ar
     9     4     9   ar
    10     5     6   ar
    11     5     7    1
    12     7     8    1
    13     9    10   ar
    14    10    11   ar
    15    11    12    1
    16    11    23   ar
    17    12    13    1
    18    12    21    2
    19    12    22    2
    20    13    14    1
    21    13    20    1
    22    14    15    1
    23    14    19    1
    24    15    16    1
    25    16    17    1
    26    17    18    1
    27    18    19    1
    28    25    26   am
    29    25    32    2
    30    26    27    1
    31    26    31    1
    32    27    28    1
    33    28    29    1
    34    29    30    1
    35    30    31    1
