@<TRIPOS>MOLECULE
36358_ChemDiv_C325-0299
 24 27 0 0 0
SMALL
GASTEIGER
Energy = 0

@<TRIPOS>ATOM
      1 N          -1.0380    0.7460    0.0000 N.ar    1  LIG1       -0.2657
      2 C          -0.3330    1.4460    0.0000 C.ar    1  LIG1        0.2373
      3 N           0.5500    0.9920    0.0000 N.ar    1  LIG1       -0.2082
      4 C           0.4130    0.0250    0.0000 C.ar    1  LIG1        0.1168
      5 C          -0.5790   -0.1420    0.0000 C.ar    1  LIG1        0.1567
      6 N          -1.0460   -1.0420    0.0000 N.pl3   1  LIG1       -0.1939
      7 C          -0.5130   -1.8880    0.0000 C.ar    1  LIG1        0.0718
      8 C           0.4960   -1.8460    0.0000 C.ar    1  LIG1        0.0123
      9 C           1.0290   -2.7000    0.0000 C.ar    1  LIG1       -0.0206
     10 C           0.5580   -3.5880    0.0000 C.ar    1  LIG1       -0.0042
     11 C          -0.4500   -3.6250    0.0000 C.ar    1  LIG1        0.0010
     12 C          -0.9790   -2.7710    0.0000 C.ar    1  LIG1        0.0165
     13 C           2.0330   -2.6670    0.0000 C.3     1  LIG1        0.0311
     14 C           1.2040   -0.5920    0.0000 C.ar    1  LIG1        0.0275
     15 C           1.1250   -1.5880    0.0000 C.ar    1  LIG1        0.0370
     16 S           2.0580   -1.9750    0.0000 S.2     1  LIG1       -0.0859
     17 C           2.6920   -1.2130    0.0000 C.ar    1  LIG1        0.0355
     18 C           2.1750   -0.3580    0.0000 C.ar    1  LIG1        0.0091
     19 N          -0.5920    2.4040    0.0000 N.ar    1  LIG1       -0.2154
     20 C          -1.5670    2.6630    0.0000 C.ar    1  LIG1        0.0636
     21 C          -2.2540    1.9750    0.0000 C.ar    1  LIG1        0.0280
     22 C          -1.9960    1.0000    0.0000 C.ar    1  LIG1        0.0469
     23 C          -2.6960    0.2920    0.0000 C.3     1  LIG1        0.0505
     24 C          -1.8540    3.6290    0.0000 C.3     1  LIG1        0.0522
@<TRIPOS>BOND
     1     1     2   ar
     2     1     5   ar
     3     1    22   ar
     4     2     3   ar
     5     2    19   ar
     6     3     4   ar
     7     4     5   ar
     8     4    14    1
     9     5     6    1
    10     6     7    1
    11     7     8   ar
    12     7    12   ar
    13     8     9   ar
    14     9    10   ar
    15     9    13    1
    16    10    11   ar
    17    11    12   ar
    18    14    15   ar
    19    14    18   ar
    20    15    16   ar
    21    16    17   ar
    22    17    18   ar
    23    19    20   ar
    24    20    21   ar
    25    20    24    1
    26    21    22   ar
    27    22    23    1
