@<TRIPOS>MOLECULE
36352_ChemDiv_K511-0005
 26 28 0 0 0
SMALL
GASTEIGER
Energy = 0

@<TRIPOS>ATOM
      1 S           0.1130    1.7790    0.0000 S.O2    1  LIG1        0.0772
      2 N           1.0330    2.1960    0.0000 N.3     1  LIG1       -0.0699
      3 C           1.8420    1.6080    0.0000 C.3     1  LIG1        0.1751
      4 C           2.7670    2.0170    0.0000 C.2     1  LIG1        0.2591
      5 N           3.6580    1.5630    0.0000 N.am    1  LIG1       -0.2042
      6 C           3.8540    0.5880    0.0000 C.3     1  LIG1        0.1152
      7 C           3.1920   -0.1880    0.0000 C.3     1  LIG1        0.0235
      8 C           2.2040   -0.1540    0.0000 C.3     1  LIG1        0.0038
      9 C           1.6040    0.6330    0.0000 C.3     1  LIG1        0.0288
     10 O           2.8000    3.0080    0.0000 O.2     1  LIG1       -0.2718
     11 C          -0.8130    1.3710    0.0000 C.ar    1  LIG1        0.1238
     12 C          -0.9170    0.3790    0.0000 C.ar    1  LIG1        0.0246
     13 C          -1.8170   -0.0250    0.0000 C.ar    1  LIG1        0.0580
     14 C          -1.9210   -1.0170    0.0000 C.ar    1  LIG1        0.1996
     15 C          -2.8380   -1.4210    0.0000 C.ar    1  LIG1        0.0720
     16 C          -3.6460   -0.8460    0.0000 C.ar    1  LIG1        0.1031
     17 N          -3.5420    0.1460    0.0000 N.ar    1  LIG1       -0.2436
     18 C          -2.6250    0.5580    0.0000 C.ar    1  LIG1        0.0845
     19 C          -2.5210    1.5500    0.0000 C.ar    1  LIG1        0.0206
     20 C          -1.6080    1.9540    0.0000 C.ar    1  LIG1        0.0215
     21 C          -2.9460   -2.4080    0.0000 C.2     1  LIG1        0.0775
     22 O          -2.1330   -3.0040    0.0000 O.co2   1  LIG1       -0.5444
     23 O          -3.8580   -2.8250    0.0000 O.co2   1  LIG1       -0.5444
     24 O          -1.1130   -1.6000    0.0000 O.2     1  LIG1       -0.2864
     25 O           0.5330    0.8580    0.0000 O.2     1  LIG1       -0.1516
     26 O          -0.2920    2.7040    0.0000 O.2     1  LIG1       -0.1516
@<TRIPOS>BOND
     1     1     2    1
     2     1    11    1
     3     1    25    2
     4     1    26    2
     5     2     3    1
     6     3     4    1
     7     3     9    1
     8     4     5   am
     9     4    10    2
    10     5     6    1
    11     6     7    1
    12     7     8    1
    13     8     9    1
    14    11    12   ar
    15    11    20   ar
    16    12    13   ar
    17    13    14   ar
    18    13    18   ar
    19    14    15   ar
    20    14    24    2
    21    15    16   ar
    22    15    21    1
    23    16    17   ar
    24    17    18   ar
    25    18    19   ar
    26    19    20   ar
    27    21    22   ar
    28    21    23   ar
