@<TRIPOS>MOLECULE
36361_ChemDiv_C200-4388
 37 41 0 0 0
SMALL
GASTEIGER
Energy = 0

@<TRIPOS>ATOM
      1 S          -0.8710   -0.2540    0.0000 S.O2    1  LIG1        0.0798
      2 N          -1.7500   -0.7540    0.0000 N.pl3   1  LIG1       -0.1860
      3 C          -2.6130   -0.2540    0.0000 C.ar    1  LIG1        0.0706
      4 C          -2.6130    0.7580    0.0000 C.ar    1  LIG1        0.0340
      5 C          -1.7330    1.2580    0.0000 C.ar    1  LIG1        0.1050
      6 C          -0.8710    0.7420    0.0000 C.ar    1  LIG1        0.1621
      7 C           0.0040    1.2420    0.0000 C.ar    1  LIG1        0.1227
      8 N           0.0210    2.2540    0.0000 N.ar    1  LIG1       -0.2182
      9 C          -0.8580    2.7710    0.0000 C.ar    1  LIG1        0.1905
     10 N          -1.7330    2.2710    0.0000 N.ar    1  LIG1       -0.2198
     11 S          -0.8420    3.7670    0.0000 S.3     1  LIG1       -0.0658
     12 C           0.0210    4.2460    0.0000 C.3     1  LIG1        0.1519
     13 C           0.8830    3.7540    0.0000 C.2     1  LIG1        0.2571
     14 N           1.7580    4.2460    0.0000 N.am    1  LIG1       -0.1762
     15 C           2.6080    3.7380    0.0000 C.ar    1  LIG1        0.1007
     16 C           3.4830    4.2330    0.0000 C.ar    1  LIG1        0.1553
     17 F           3.4830    5.2290    0.0000 F       1  LIG1       -0.2028
     18 C           4.3290    3.7210    0.0000 C.ar    1  LIG1        0.0310
     19 C           4.3290    2.7250    0.0000 C.ar    1  LIG1        0.0024
     20 C           3.4710    2.2420    0.0000 C.ar    1  LIG1        0.0015
     21 C           2.6080    2.7380    0.0000 C.ar    1  LIG1        0.0189
     22 O           0.8830    2.7540    0.0000 O.2     1  LIG1       -0.2720
     23 C          -3.4750    1.2580    0.0000 C.ar    1  LIG1        0.0028
     24 C          -4.3330    0.7420    0.0000 C.ar    1  LIG1        0.0001
     25 C          -4.3330   -0.2540    0.0000 C.ar    1  LIG1        0.0013
     26 C          -3.4750   -0.7540    0.0000 C.ar    1  LIG1        0.0162
     27 C          -1.7500   -1.7540    0.0000 C.3     1  LIG1        0.1423
     28 C          -2.6130   -2.2500    0.0000 C.ar    1  LIG1        0.0024
     29 C          -2.6130   -3.2330    0.0000 C.ar    1  LIG1        0.0343
     30 C          -3.4750   -3.7330    0.0000 C.ar    1  LIG1        0.1385
     31 O          -3.4750   -4.7330    0.0000 O.3     1  LIG1       -0.4714
     32 C          -2.6130   -5.2290    0.0000 C.3     1  LIG1        0.2525
     33 C          -4.3330   -3.2330    0.0000 C.ar    1  LIG1        0.0369
     34 C          -4.3330   -2.2380    0.0000 C.ar    1  LIG1        0.0028
     35 C          -3.4750   -1.7380    0.0000 C.ar    1  LIG1       -0.0024
     36 O           0.0960    0.0000    0.0000 O.2     1  LIG1       -0.1496
     37 O          -0.3710   -1.1170    0.0000 O.2     1  LIG1       -0.1496
@<TRIPOS>BOND
     1     1     2    1
     2     1     6    1
     3     1    36    2
     4     1    37    2
     5     2     3    1
     6     2    27    1
     7     3     4   ar
     8     3    26   ar
     9     4     5    1
    10     4    23   ar
    11     5     6   ar
    12     5    10   ar
    13     6     7   ar
    14     7     8   ar
    15     8     9   ar
    16     9    10   ar
    17     9    11    1
    18    11    12    1
    19    12    13    1
    20    13    14   am
    21    13    22    2
    22    14    15    1
    23    15    16   ar
    24    15    21   ar
    25    16    17    1
    26    16    18   ar
    27    18    19   ar
    28    19    20   ar
    29    20    21   ar
    30    23    24   ar
    31    24    25   ar
    32    25    26   ar
    33    27    28    1
    34    28    29   ar
    35    28    35   ar
    36    29    30   ar
    37    30    31    1
    38    30    33   ar
    39    31    32    1
    40    33    34   ar
    41    34    35   ar
