@<TRIPOS>MOLECULE
36362_ChemDiv_C325-0401
 25 28 0 0 0
SMALL
GASTEIGER
Energy = 0

@<TRIPOS>ATOM
      1 N          -0.7630    1.1630    0.0000 N.ar    1  LIG1       -0.2657
      2 C          -0.4460    2.1210    0.0000 C.ar    1  LIG1        0.2373
      3 N           0.5500    2.1170    0.0000 N.ar    1  LIG1       -0.2082
      4 C           0.8580    1.1630    0.0000 C.ar    1  LIG1        0.1168
      5 C           0.0420    0.5790    0.0000 C.ar    1  LIG1        0.1567
      6 N           0.0420   -0.4210    0.0000 N.pl3   1  LIG1       -0.1939
      7 C          -0.8330   -0.9170    0.0000 C.ar    1  LIG1        0.0723
      8 C          -0.8210   -1.9130    0.0000 C.ar    1  LIG1        0.0197
      9 C          -1.6920   -2.4130    0.0000 C.ar    1  LIG1        0.0382
     10 C          -2.5670   -1.9130    0.0000 C.ar    1  LIG1        0.1388
     11 C          -2.5580   -0.9170    0.0000 C.ar    1  LIG1        0.0382
     12 C          -1.6920   -0.4170    0.0000 C.ar    1  LIG1        0.0197
     13 O          -3.4250   -2.4130    0.0000 O.3     1  LIG1       -0.4714
     14 C          -3.4250   -3.4080    0.0000 C.3     1  LIG1        0.2525
     15 C           1.8080    0.8500    0.0000 C.ar    1  LIG1        0.0275
     16 C           2.1210   -0.0880    0.0000 C.ar    1  LIG1        0.0370
     17 S           3.1210   -0.1000    0.0000 S.2     1  LIG1       -0.0859
     18 C           3.4250    0.8630    0.0000 C.ar    1  LIG1        0.0355
     19 C           2.6170    1.4500    0.0000 C.ar    1  LIG1        0.0091
     20 N          -1.1080    2.8710    0.0000 N.ar    1  LIG1       -0.2154
     21 C          -2.0880    2.6630    0.0000 C.ar    1  LIG1        0.0636
     22 C          -2.4080    1.7130    0.0000 C.ar    1  LIG1        0.0280
     23 C          -1.7420    0.9670    0.0000 C.ar    1  LIG1        0.0469
     24 C          -2.0540    0.0170    0.0000 C.3     1  LIG1        0.0505
     25 C          -2.7540    3.4130    0.0000 C.3     1  LIG1        0.0522
@<TRIPOS>BOND
     1     1     2   ar
     2     1     5   ar
     3     1    23   ar
     4     2     3   ar
     5     2    20   ar
     6     3     4   ar
     7     4     5   ar
     8     4    15    1
     9     5     6    1
    10     6     7    1
    11     7     8   ar
    12     7    12   ar
    13     8     9   ar
    14     9    10   ar
    15    10    11   ar
    16    10    13    1
    17    11    12   ar
    18    13    14    1
    19    15    16   ar
    20    15    19   ar
    21    16    17   ar
    22    17    18   ar
    23    18    19   ar
    24    20    21   ar
    25    21    22   ar
    26    21    25    1
    27    22    23   ar
    28    23    24    1
