@<TRIPOS>MOLECULE
36367_ChemDiv_C200-4483
 22 24 0 0 0
SMALL
GASTEIGER
Energy = 0

@<TRIPOS>ATOM
      1 C           0.8540    0.9920    0.0000 C.ar    1  LIG1        0.1625
      2 C          -0.0170    0.5040    0.0000 C.ar    1  LIG1        0.0360
      3 C          -0.8750    0.9920    0.0000 C.ar    1  LIG1        0.0092
      4 C          -0.8750    2.0000    0.0000 C.ar    1  LIG1        0.0761
      5 C          -0.0170    2.5000    0.0000 C.ar    1  LIG1        0.3457
      6 O           0.8540    2.0000    0.0000 O.2     1  LIG1       -0.4199
      7 O          -0.0170    3.5080    0.0000 O.2     1  LIG1       -0.2445
      8 C          -1.7330    2.4960    0.0000 C.ar    1  LIG1        0.0065
      9 C          -2.6000    2.0000    0.0000 C.ar    1  LIG1        0.0002
     10 C          -2.5960    0.9920    0.0000 C.ar    1  LIG1        0.0000
     11 C          -1.7330    0.5040    0.0000 C.ar    1  LIG1        0.0003
     12 C          -0.0170   -0.4920    0.0000 C.ar    1  LIG1        0.0026
     13 C          -0.8790   -1.0000    0.0000 C.ar    1  LIG1       -0.0045
     14 C          -0.8790   -2.0000    0.0000 C.ar    1  LIG1       -0.0258
     15 C          -0.0170   -2.4960    0.0000 C.ar    1  LIG1       -0.0258
     16 C           0.8580   -1.9960    0.0000 C.ar    1  LIG1       -0.0046
     17 C           0.8540   -1.0000    0.0000 C.ar    1  LIG1       -0.0002
     18 C          -0.0170   -3.5040    0.0000 C.3     1  LIG1        0.0307
     19 C          -1.7500   -2.4960    0.0000 C.3     1  LIG1        0.0307
     20 C           1.7210    0.4920    0.0000 C.2     1  LIG1        0.1077
     21 O           2.5960    0.9920    0.0000 O.co2   1  LIG1       -0.5415
     22 O           1.7210   -0.5040    0.0000 O.co2   1  LIG1       -0.5415
@<TRIPOS>BOND
     1     1     2   ar
     2     1     6   ar
     3     1    20    1
     4     2     3   ar
     5     2    12    1
     6     3     4   ar
     7     3    11   ar
     8     4     5   ar
     9     4     8   ar
    10     5     6   ar
    11     5     7    2
    12     8     9   ar
    13     9    10   ar
    14    10    11   ar
    15    12    13   ar
    16    12    17   ar
    17    13    14   ar
    18    14    15   ar
    19    14    19    1
    20    15    16   ar
    21    15    18    1
    22    16    17   ar
    23    20    21   ar
    24    20    22   ar
