@<TRIPOS>MOLECULE
36365_ChemDiv_G071-0440
 38 42 0 0 0
SMALL
GASTEIGER
Energy = 0

@<TRIPOS>ATOM
      1 S          -0.0170   -2.7420    0.0000 S.O2    1  LIG1        0.0798
      2 N          -0.8880   -3.2420    0.0000 N.pl3   1  LIG1       -0.1860
      3 C          -1.7540   -2.7330    0.0000 C.ar    1  LIG1        0.0706
      4 C          -1.7540   -1.7330    0.0000 C.ar    1  LIG1        0.0340
      5 C          -0.8880   -1.2330    0.0000 C.ar    1  LIG1        0.1050
      6 C          -0.0250   -1.7420    0.0000 C.ar    1  LIG1        0.1621
      7 C           0.8500   -1.2460    0.0000 C.ar    1  LIG1        0.1227
      8 N           0.8540   -0.2500    0.0000 N.ar    1  LIG1       -0.2182
      9 C          -0.0080    0.2670    0.0000 C.ar    1  LIG1        0.1905
     10 N          -0.8790   -0.2330    0.0000 N.ar    1  LIG1       -0.2198
     11 S           0.0040    1.2670    0.0000 S.3     1  LIG1       -0.0673
     12 C           0.8710    1.7500    0.0000 C.3     1  LIG1        0.1341
     13 C           0.8830    2.7540    0.0000 C.2     1  LIG1        0.1873
     14 C           1.7500    3.2420    0.0000 C.ar    1  LIG1        0.0725
     15 C           2.6130    2.7380    0.0000 C.ar    1  LIG1        0.1416
     16 C           3.4750    3.2290    0.0000 C.ar    1  LIG1        0.0401
     17 C           3.4920    4.2210    0.0000 C.ar    1  LIG1        0.0400
     18 C           2.6210    4.7330    0.0000 C.ar    1  LIG1        0.1390
     19 C           1.7580    4.2380    0.0000 C.ar    1  LIG1        0.0428
     20 O           2.6250    5.7250    0.0000 O.3     1  LIG1       -0.4714
     21 C           1.7630    6.2330    0.0000 C.3     1  LIG1        0.2525
     22 O           2.5960    1.7420    0.0000 O.3     1  LIG1       -0.4713
     23 C           3.4630    1.2380    0.0000 C.3     1  LIG1        0.2525
     24 O           0.0210    3.2670    0.0000 O.2     1  LIG1       -0.2903
     25 C          -2.6170   -1.2330    0.0000 C.ar    1  LIG1        0.0028
     26 C          -3.4790   -1.7330    0.0000 C.ar    1  LIG1        0.0001
     27 C          -3.4790   -2.7420    0.0000 C.ar    1  LIG1        0.0013
     28 C          -2.6170   -3.2420    0.0000 C.ar    1  LIG1        0.0162
     29 C          -0.8880   -4.2420    0.0000 C.3     1  LIG1        0.1418
     30 C          -1.7580   -4.7330    0.0000 C.ar    1  LIG1       -0.0045
     31 C          -1.7540   -5.7330    0.0000 C.ar    1  LIG1       -0.0241
     32 C          -0.8880   -6.2330    0.0000 C.3     1  LIG1        0.0308
     33 C          -2.6170   -6.2330    0.0000 C.ar    1  LIG1       -0.0045
     34 C          -3.4960   -5.7330    0.0000 C.ar    1  LIG1       -0.0003
     35 C          -3.4830   -4.7330    0.0000 C.ar    1  LIG1       -0.0003
     36 C          -2.6170   -4.2330    0.0000 C.ar    1  LIG1       -0.0029
     37 O           0.9880   -2.7330    0.0000 O.2     1  LIG1       -0.1496
     38 O           0.2420   -3.7040    0.0000 O.2     1  LIG1       -0.1496
@<TRIPOS>BOND
     1     1     2    1
     2     1     6    1
     3     1    37    2
     4     1    38    2
     5     2     3    1
     6     2    29    1
     7     3     4   ar
     8     3    28   ar
     9     4     5    1
    10     4    25   ar
    11     5     6   ar
    12     5    10   ar
    13     6     7   ar
    14     7     8   ar
    15     8     9   ar
    16     9    10   ar
    17     9    11    1
    18    11    12    1
    19    12    13    1
    20    13    14    1
    21    13    24    2
    22    14    15   ar
    23    14    19   ar
    24    15    16   ar
    25    15    22    1
    26    16    17   ar
    27    17    18   ar
    28    18    19   ar
    29    18    20    1
    30    20    21    1
    31    22    23    1
    32    25    26   ar
    33    26    27   ar
    34    27    28   ar
    35    29    30    1
    36    30    31   ar
    37    30    36   ar
    38    31    32    1
    39    31    33   ar
    40    33    34   ar
    41    34    35   ar
    42    35    36   ar
