@<TRIPOS>MOLECULE
36360_ChemDiv_C325-0389
 23 26 0 0 0
SMALL
GASTEIGER
Energy = 0

@<TRIPOS>ATOM
      1 N           0.3880    0.2630    0.0000 N.ar    1  LIG1       -0.2657
      2 C           1.2460    0.7630    0.0000 C.ar    1  LIG1        0.2373
      3 N           1.9830    0.1000    0.0000 N.ar    1  LIG1       -0.2082
      4 C           1.5830   -0.8080    0.0000 C.ar    1  LIG1        0.1168
      5 C           0.5920   -0.7040    0.0000 C.ar    1  LIG1        0.1567
      6 N          -0.2790   -1.2000    0.0000 N.pl3   1  LIG1       -0.1939
      7 C          -1.2880   -1.1960    0.0000 C.ar    1  LIG1        0.0721
      8 C          -1.7750   -0.3210    0.0000 C.ar    1  LIG1        0.0166
      9 C          -2.7750   -0.3170    0.0000 C.ar    1  LIG1        0.0013
     10 C          -3.2830   -1.1830    0.0000 C.ar    1  LIG1        0.0001
     11 C          -2.7790   -2.0580    0.0000 C.ar    1  LIG1        0.0013
     12 C          -1.7830   -2.0580    0.0000 C.ar    1  LIG1        0.0166
     13 C           2.0830   -1.6750    0.0000 C.ar    1  LIG1        0.0275
     14 C           1.6750   -2.5880    0.0000 C.ar    1  LIG1        0.0370
     15 S           2.4170   -3.2630    0.0000 S.2     1  LIG1       -0.0859
     16 C           3.2790   -2.7710    0.0000 C.ar    1  LIG1        0.0355
     17 C           3.0670   -1.7750    0.0000 C.ar    1  LIG1        0.0091
     18 N           1.2460    1.7710    0.0000 N.ar    1  LIG1       -0.2154
     19 C           0.3790    2.2710    0.0000 C.ar    1  LIG1        0.0636
     20 C          -0.4880    1.7710    0.0000 C.ar    1  LIG1        0.0280
     21 C          -0.4880    0.7630    0.0000 C.ar    1  LIG1        0.0469
     22 C          -1.3540    0.2670    0.0000 C.3     1  LIG1        0.0505
     23 C           0.3790    3.2670    0.0000 C.3     1  LIG1        0.0522
@<TRIPOS>BOND
     1     1     2   ar
     2     1     5   ar
     3     1    21   ar
     4     2     3   ar
     5     2    18   ar
     6     3     4   ar
     7     4     5   ar
     8     4    13    1
     9     5     6    1
    10     6     7    1
    11     7     8   ar
    12     7    12   ar
    13     8     9   ar
    14     9    10   ar
    15    10    11   ar
    16    11    12   ar
    17    13    14   ar
    18    13    17   ar
    19    14    15   ar
    20    15    16   ar
    21    16    17   ar
    22    18    19   ar
    23    19    20   ar
    24    19    23    1
    25    20    21   ar
    26    21    22    1
