@<TRIPOS>MOLECULE
36369_ChemDiv_G195-0512
 29 31 0 0 0
SMALL
GASTEIGER
Energy = 0

@<TRIPOS>ATOM
      1 N          -2.1630   -1.0170    0.0000 N.ar    1  LIG1       -0.2699
      2 C          -1.2880   -0.4880    0.0000 C.ar    1  LIG1        0.2883
      3 C          -0.4250   -1.0170    0.0000 C.ar    1  LIG1        0.1636
      4 N          -0.4250   -2.0170    0.0000 N.ar    1  LIG1       -0.2312
      5 C          -1.2880   -2.5130    0.0000 C.ar    1  LIG1        0.1186
      6 C          -2.1630   -2.0170    0.0000 C.ar    1  LIG1        0.1036
      7 S           0.4380   -0.5040    0.0000 S.3     1  LIG1       -0.0804
      8 C           0.4380    0.4920    0.0000 C.3     1  LIG1        0.1506
      9 C           1.2960    0.9920    0.0000 C.2     1  LIG1        0.2569
     10 N           2.1580    0.4920    0.0000 N.am    1  LIG1       -0.1791
     11 C           3.0210    0.9920    0.0000 C.ar    1  LIG1        0.0654
     12 C           3.0040    1.9880    0.0000 C.ar    1  LIG1       -0.0071
     13 C           3.8670    2.5040    0.0000 C.ar    1  LIG1       -0.0072
     14 C           4.7420    2.0040    0.0000 C.ar    1  LIG1       -0.0224
     15 C           4.7420    1.0080    0.0000 C.ar    1  LIG1       -0.0072
     16 C           3.8790    0.4920    0.0000 C.ar    1  LIG1       -0.0071
     17 C           3.8960   -0.5040    0.0000 C.3     1  LIG1        0.0324
     18 C           5.6040    2.5170    0.0000 C.3     1  LIG1        0.0310
     19 C           2.1420    2.4880    0.0000 C.3     1  LIG1        0.0324
     20 O           1.2960    1.9880    0.0000 O.2     1  LIG1       -0.2720
     21 O          -1.2880    0.5080    0.0000 O.2     1  LIG1       -0.2644
     22 C          -3.0250   -0.5040    0.0000 C.ar    1  LIG1        0.0664
     23 C          -3.0250    0.4920    0.0000 C.ar    1  LIG1        0.0133
     24 C          -3.8830    0.9920    0.0000 C.ar    1  LIG1       -0.0207
     25 C          -4.7460    0.4920    0.0000 C.ar    1  LIG1       -0.0084
     26 C          -4.7460   -0.5210    0.0000 C.ar    1  LIG1       -0.0207
     27 C          -3.8830   -1.0170    0.0000 C.ar    1  LIG1        0.0133
     28 C          -5.6080   -1.0170    0.0000 C.3     1  LIG1        0.0311
     29 C          -3.8830    1.9880    0.0000 C.3     1  LIG1        0.0311
@<TRIPOS>BOND
     1     1     2   ar
     2     1     6   ar
     3     1    22    1
     4     2     3   ar
     5     2    21    2
     6     3     4   ar
     7     3     7    1
     8     4     5   ar
     9     5     6   ar
    10     7     8    1
    11     8     9    1
    12     9    10   am
    13     9    20    2
    14    10    11    1
    15    11    12   ar
    16    11    16   ar
    17    12    13   ar
    18    12    19    1
    19    13    14   ar
    20    14    15   ar
    21    14    18    1
    22    15    16   ar
    23    16    17    1
    24    22    23   ar
    25    22    27   ar
    26    23    24   ar
    27    24    25   ar
    28    24    29    1
    29    25    26   ar
    30    26    27   ar
    31    26    28    1
