@<TRIPOS>MOLECULE
36374_ChemDiv_K780-0416
 27 29 0 0 0
SMALL
GASTEIGER
Energy = 0

@<TRIPOS>ATOM
      1 S          -1.7170   -0.0210    0.0000 S.O2    1  LIG1        0.0633
      2 N          -2.5790    0.4960    0.0000 N.3     1  LIG1       -0.1555
      3 C          -3.4540    0.0130    0.0000 C.3     1  LIG1        0.0958
      4 C          -4.3170    0.5380    0.0000 C.3     1  LIG1        0.0178
      5 C          -4.3000    1.5420    0.0000 C.3     1  LIG1        0.0029
      6 C          -3.4170    2.0210    0.0000 C.3     1  LIG1        0.0178
      7 C          -2.5670    1.5040    0.0000 C.3     1  LIG1        0.0958
      8 C          -3.3960    3.0210    0.0000 C.3     1  LIG1        0.0015
      9 C          -5.1960    0.0540    0.0000 C.3     1  LIG1        0.0015
     10 C          -0.8540   -0.5250    0.0000 C.ar    1  LIG1        0.1224
     11 C           0.0040   -0.0210    0.0000 C.ar    1  LIG1        0.0245
     12 C           0.8710   -0.5130    0.0000 C.ar    1  LIG1        0.0563
     13 C           1.7290   -0.0130    0.0000 C.ar    1  LIG1        0.2047
     14 C           2.6000   -0.5130    0.0000 C.ar    1  LIG1        0.1316
     15 C           2.6000   -1.5210    0.0000 C.ar    1  LIG1        0.0856
     16 N           1.7290   -2.0210    0.0000 N.ar    1  LIG1       -0.3237
     17 C           0.8670   -1.5170    0.0000 C.ar    1  LIG1        0.0631
     18 C           0.0040   -2.0210    0.0000 C.ar    1  LIG1        0.0187
     19 C          -0.8540   -1.5210    0.0000 C.ar    1  LIG1        0.0214
     20 C           1.7290   -3.0170    0.0000 C.3     1  LIG1        0.1305
     21 C           3.4670   -0.0210    0.0000 C.2     1  LIG1        0.3459
     22 O           3.4710    0.9790    0.0000 O.2     1  LIG1       -0.2447
     23 O           4.3290   -0.5250    0.0000 O.3     1  LIG1       -0.4412
     24 C           5.1920   -0.0130    0.0000 C.3     1  LIG1        0.2560
     25 O           1.7290    0.9830    0.0000 O.2     1  LIG1       -0.2862
     26 O          -2.2420   -0.8790    0.0000 O.2     1  LIG1       -0.1528
     27 O          -1.2080    0.8210    0.0000 O.2     1  LIG1       -0.1528
@<TRIPOS>BOND
     1     1     2    1
     2     1    10    1
     3     1    26    2
     4     1    27    2
     5     2     3    1
     6     2     7    1
     7     3     4    1
     8     4     5    1
     9     4     9    1
    10     5     6    1
    11     6     7    1
    12     6     8    1
    13    10    11   ar
    14    10    19   ar
    15    11    12   ar
    16    12    13   ar
    17    12    17   ar
    18    13    14   ar
    19    13    25    2
    20    14    15   ar
    21    14    21    1
    22    15    16   ar
    23    16    17   ar
    24    16    20    1
    25    17    18   ar
    26    18    19   ar
    27    21    22    2
    28    21    23    1
    29    23    24    1
