@<TRIPOS>MOLECULE
36376_ChemDiv_K780-0428
 24 26 0 0 0
SMALL
GASTEIGER
Energy = 0

@<TRIPOS>ATOM
      1 S          -1.7330    0.4830    0.0000 S.O2    1  LIG1        0.0633
      2 C          -0.8710   -0.0170    0.0000 C.ar    1  LIG1        0.1224
      3 C          -0.0080    0.4830    0.0000 C.ar    1  LIG1        0.0245
      4 C           0.8540   -0.0170    0.0000 C.ar    1  LIG1        0.0561
      5 C           1.7210    0.4960    0.0000 C.ar    1  LIG1        0.1995
      6 C           2.5920   -0.0170    0.0000 C.ar    1  LIG1        0.0701
      7 C           2.5920   -1.0210    0.0000 C.ar    1  LIG1        0.0802
      8 N           1.7130   -1.5210    0.0000 N.ar    1  LIG1       -0.3238
      9 C           0.8500   -1.0210    0.0000 C.ar    1  LIG1        0.0631
     10 C          -0.0080   -1.5130    0.0000 C.ar    1  LIG1        0.0187
     11 C          -0.8710   -1.0170    0.0000 C.ar    1  LIG1        0.0214
     12 C           1.7130   -2.5170    0.0000 C.3     1  LIG1        0.1305
     13 C           3.4580    0.4830    0.0000 C.2     1  LIG1        0.0774
     14 O           3.4580    1.4790    0.0000 O.co2   1  LIG1       -0.5444
     15 O           4.3210   -0.0210    0.0000 O.co2   1  LIG1       -0.5444
     16 O           1.7130    1.4880    0.0000 O.2     1  LIG1       -0.2864
     17 N          -2.5920    1.0000    0.0000 N.3     1  LIG1       -0.1555
     18 C          -2.5670    2.0040    0.0000 C.3     1  LIG1        0.0958
     19 C          -3.4250    2.5210    0.0000 C.3     1  LIG1        0.0192
     20 C          -4.3000    2.0380    0.0000 C.3     1  LIG1        0.0030
     21 C          -4.3250    1.0380    0.0000 C.3     1  LIG1        0.0192
     22 C          -3.4630    0.5130    0.0000 C.3     1  LIG1        0.0958
     23 O          -2.2540   -0.3790    0.0000 O.2     1  LIG1       -0.1528
     24 O          -1.2210    1.3250    0.0000 O.2     1  LIG1       -0.1528
@<TRIPOS>BOND
     1     1     2    1
     2     1    17    1
     3     1    23    2
     4     1    24    2
     5     2     3   ar
     6     2    11   ar
     7     3     4   ar
     8     4     5   ar
     9     4     9   ar
    10     5     6   ar
    11     5    16    2
    12     6     7   ar
    13     6    13    1
    14     7     8   ar
    15     8     9   ar
    16     8    12    1
    17     9    10   ar
    18    10    11   ar
    19    13    14   ar
    20    13    15   ar
    21    17    18    1
    22    17    22    1
    23    18    19    1
    24    19    20    1
    25    20    21    1
    26    21    22    1
