@<TRIPOS>MOLECULE
36377_ChemDiv_C718-0123
 30 33 0 0 0
SMALL
GASTEIGER
Energy = 0

@<TRIPOS>ATOM
      1 C          -1.0460   -2.2080    0.0000 C.ar    1  LIG1        0.2041
      2 C          -0.3080   -2.8790    0.0000 C.ar    1  LIG1        0.2490
      3 S           0.6630   -2.6750    0.0000 S.O2    1  LIG1        0.0486
      4 C           1.6330   -2.4040    0.0000 C.ar    1  LIG1        0.1121
      5 C           2.3380   -3.1130    0.0000 C.ar    1  LIG1        0.0185
      6 C           3.3000   -2.8460    0.0000 C.ar    1  LIG1       -0.0029
      7 C           3.5500   -1.8750    0.0000 C.ar    1  LIG1       -0.0218
      8 C           2.8250   -1.1790    0.0000 C.ar    1  LIG1       -0.0029
      9 C           1.8750   -1.4460    0.0000 C.ar    1  LIG1        0.0185
     10 C           4.5130   -1.6130    0.0000 C.3     1  LIG1        0.0310
     11 O           0.4290   -1.7040    0.0000 O.2     1  LIG1       -0.1626
     12 O           0.9040   -3.6420    0.0000 O.2     1  LIG1       -0.1626
     13 N          -0.7000   -3.8000    0.0000 N.ar    1  LIG1       -0.1076
     14 N          -1.7000   -3.6920    0.0000 N.ar    1  LIG1       -0.0569
     15 N          -1.9130   -2.7080    0.0000 N.ar    1  LIG1       -0.1914
     16 C          -2.7710   -2.2080    0.0000 C.ar    1  LIG1        0.0888
     17 C          -2.7880   -1.2130    0.0000 C.ar    1  LIG1        0.0508
     18 C          -1.9290   -0.6960    0.0000 C.ar    1  LIG1        0.1507
     19 N          -1.0460   -1.1920    0.0000 N.ar    1  LIG1       -0.2076
     20 N          -1.9290    0.3000    0.0000 N.pl3   1  LIG1       -0.2183
     21 C          -1.0710    0.8040    0.0000 C.3     1  LIG1        0.1372
     22 C          -1.0790    1.8000    0.0000 C.3     1  LIG1        0.1385
     23 N          -0.2130    2.3040    0.0000 N.am    1  LIG1       -0.2035
     24 C          -0.2130    3.3000    0.0000 C.2     1  LIG1        0.2419
     25 O          -1.0830    3.8000    0.0000 O.2     1  LIG1       -0.2733
     26 C           0.6460    3.8040    0.0000 C.3     1  LIG1        0.0964
     27 C          -3.6540   -0.7080    0.0000 C.ar    1  LIG1        0.0043
     28 C          -4.5170   -1.2130    0.0000 C.ar    1  LIG1        0.0002
     29 C          -4.5170   -2.2080    0.0000 C.ar    1  LIG1        0.0015
     30 C          -3.6540   -2.7080    0.0000 C.ar    1  LIG1        0.0194
@<TRIPOS>BOND
     1     1     2   ar
     2     1    15   ar
     3     1    19   ar
     4     2     3    1
     5     2    13   ar
     6     3     4    1
     7     3    11    2
     8     3    12    2
     9     4     5   ar
    10     4     9   ar
    11     5     6   ar
    12     6     7   ar
    13     7     8   ar
    14     7    10    1
    15     8     9   ar
    16    13    14   ar
    17    14    15   ar
    18    15    16   ar
    19    16    17   ar
    20    16    30   ar
    21    17    18   ar
    22    17    27   ar
    23    18    19   ar
    24    18    20    1
    25    20    21    1
    26    21    22    1
    27    22    23    1
    28    23    24   am
    29    24    25    2
    30    24    26    1
    31    27    28   ar
    32    28    29   ar
    33    29    30   ar
