@<TRIPOS>MOLECULE
36373_ChemDiv_G195-0519
 27 29 0 0 0
SMALL
GASTEIGER
Energy = 0

@<TRIPOS>ATOM
      1 N          -2.1500   -1.0080    0.0000 N.ar    1  LIG1       -0.2699
      2 C          -1.2880   -0.4830    0.0000 C.ar    1  LIG1        0.2883
      3 C          -0.4250   -1.0080    0.0000 C.ar    1  LIG1        0.1636
      4 N          -0.4250   -2.0130    0.0000 N.ar    1  LIG1       -0.2312
      5 C          -1.2880   -2.5130    0.0000 C.ar    1  LIG1        0.1186
      6 C          -2.1500   -2.0130    0.0000 C.ar    1  LIG1        0.1036
      7 S           0.4500   -0.5000    0.0000 S.3     1  LIG1       -0.0804
      8 C           0.4380    0.5000    0.0000 C.3     1  LIG1        0.1506
      9 C           1.3000    1.0000    0.0000 C.2     1  LIG1        0.2570
     10 N           2.1630    0.5040    0.0000 N.am    1  LIG1       -0.1785
     11 C           3.0250    1.0130    0.0000 C.ar    1  LIG1        0.0734
     12 C           3.9040    0.5130    0.0000 C.ar    1  LIG1        0.0171
     13 C           4.7500    1.0130    0.0000 C.ar    1  LIG1        0.0080
     14 C           4.7500    2.0130    0.0000 C.ar    1  LIG1        0.0347
     15 BR          5.6130    2.5170    0.0000 Br      1  LIG1       -0.0490
     16 C           3.8750    2.5130    0.0000 C.ar    1  LIG1        0.0080
     17 C           3.0250    2.0040    0.0000 C.ar    1  LIG1        0.0171
     18 O           1.3000    1.9960    0.0000 O.2     1  LIG1       -0.2720
     19 O          -1.2880    0.5130    0.0000 O.2     1  LIG1       -0.2644
     20 C          -3.0130   -0.5000    0.0000 C.ar    1  LIG1        0.0664
     21 C          -3.8920   -1.0000    0.0000 C.ar    1  LIG1        0.0133
     22 C          -4.7540   -0.5000    0.0000 C.ar    1  LIG1       -0.0207
     23 C          -4.7540    0.4710    0.0000 C.ar    1  LIG1       -0.0084
     24 C          -3.8750    1.0000    0.0000 C.ar    1  LIG1       -0.0207
     25 C          -3.0130    0.5000    0.0000 C.ar    1  LIG1        0.0133
     26 C          -3.8920    1.9960    0.0000 C.3     1  LIG1        0.0311
     27 C          -5.6170   -0.9960    0.0000 C.3     1  LIG1        0.0311
@<TRIPOS>BOND
     1     1     2   ar
     2     1     6   ar
     3     1    20    1
     4     2     3   ar
     5     2    19    2
     6     3     4   ar
     7     3     7    1
     8     4     5   ar
     9     5     6   ar
    10     7     8    1
    11     8     9    1
    12     9    10   am
    13     9    18    2
    14    10    11    1
    15    11    12   ar
    16    11    17   ar
    17    12    13   ar
    18    13    14   ar
    19    14    15    1
    20    14    16   ar
    21    16    17   ar
    22    20    21   ar
    23    20    25   ar
    24    21    22   ar
    25    22    23   ar
    26    22    27    1
    27    23    24   ar
    28    24    25   ar
    29    24    26    1
