@<TRIPOS>MOLECULE
36378_ChemDiv_K781-2142
 35 39 0 0 0
SMALL
GASTEIGER
Energy = 0

@<TRIPOS>ATOM
      1 S           3.0420    2.9880    0.0000 S.O2    1  LIG1        0.0634
      2 N           3.9040    3.4880    0.0000 N.3     1  LIG1       -0.1504
      3 C           4.7790    2.9920    0.0000 C.3     1  LIG1        0.1279
      4 C           5.6330    3.5000    0.0000 C.3     1  LIG1        0.1613
      5 O           5.6330    4.4960    0.0000 O.3     1  LIG1       -0.3507
      6 C           4.7630    4.9880    0.0000 C.3     1  LIG1        0.1613
      7 C           3.8880    4.4830    0.0000 C.3     1  LIG1        0.1279
      8 C           2.1750    2.4750    0.0000 C.ar    1  LIG1        0.1224
      9 C           2.1750    1.4710    0.0000 C.ar    1  LIG1        0.0246
     10 C           1.3130    0.9710    0.0000 C.ar    1  LIG1        0.0581
     11 C           1.3130   -0.0250    0.0000 C.ar    1  LIG1        0.2029
     12 C           0.4460   -0.5170    0.0000 C.ar    1  LIG1        0.1115
     13 C           0.4420   -1.5170    0.0000 C.2     1  LIG1        0.2538
     14 N          -0.4210   -2.0170    0.0000 N.am    1  LIG1       -0.2724
     15 C          -0.4210   -3.0170    0.0000 C.3     1  LIG1        0.1151
     16 C          -1.2960   -3.5130    0.0000 C.3     1  LIG1        0.1123
     17 N          -2.1580   -3.0040    0.0000 N.pl3   1  LIG1       -0.3041
     18 C          -3.0290   -3.5040    0.0000 C.ar    1  LIG1        0.0481
     19 C          -3.8880   -2.9880    0.0000 C.ar    1  LIG1        0.0168
     20 C          -4.7580   -3.4880    0.0000 C.ar    1  LIG1        0.0309
     21 C          -4.7670   -4.4880    0.0000 C.ar    1  LIG1        0.1402
     22 C          -3.9040   -4.9880    0.0000 C.ar    1  LIG1        0.0309
     23 C          -3.0290   -4.4960    0.0000 C.ar    1  LIG1        0.0168
     24 F          -5.6380   -4.9830    0.0000 F       1  LIG1       -0.2042
     25 C          -2.1500   -2.0000    0.0000 C.3     1  LIG1        0.1123
     26 C          -1.2880   -1.5170    0.0000 C.3     1  LIG1        0.1151
     27 O           1.3130   -2.0250    0.0000 O.2     1  LIG1       -0.2697
     28 C          -0.4170   -0.0170    0.0000 C.ar    1  LIG1        0.1065
     29 N          -0.4170    0.9750    0.0000 N.ar    1  LIG1       -0.2435
     30 C           0.4460    1.4710    0.0000 C.ar    1  LIG1        0.0845
     31 C           0.4460    2.4750    0.0000 C.ar    1  LIG1        0.0206
     32 C           1.3130    2.9750    0.0000 C.ar    1  LIG1        0.0215
     33 O           2.1750   -0.5250    0.0000 O.2     1  LIG1       -0.2863
     34 O           2.5420    3.8500    0.0000 O.2     1  LIG1       -0.1528
     35 O           3.5500    2.1210    0.0000 O.2     1  LIG1       -0.1528
@<TRIPOS>BOND
     1     1     2    1
     2     1     8    1
     3     1    34    2
     4     1    35    2
     5     2     3    1
     6     2     7    1
     7     3     4    1
     8     4     5    1
     9     5     6    1
    10     6     7    1
    11     8     9   ar
    12     8    32   ar
    13     9    10   ar
    14    10    11   ar
    15    10    30   ar
    16    11    12   ar
    17    11    33    2
    18    12    13    1
    19    12    28   ar
    20    13    14   am
    21    13    27    2
    22    14    15    1
    23    14    26    1
    24    15    16    1
    25    16    17    1
    26    17    18    1
    27    17    25    1
    28    18    19   ar
    29    18    23   ar
    30    19    20   ar
    31    20    21   ar
    32    21    22   ar
    33    21    24    1
    34    22    23   ar
    35    25    26    1
    36    28    29   ar
    37    29    30   ar
    38    30    31   ar
    39    31    32   ar
