@<TRIPOS>MOLECULE
36379_ChemDiv_C718-1022
 29 33 0 0 0
SMALL
GASTEIGER
Energy = 0

@<TRIPOS>ATOM
      1 C          -0.1420   -1.4580    0.0000 C.ar    1  LIG1        0.2040
      2 C           0.6000   -2.1290    0.0000 C.ar    1  LIG1        0.2490
      3 S           1.5830   -1.9290    0.0000 S.O2    1  LIG1        0.0486
      4 O           1.3500   -0.9580    0.0000 O.2     1  LIG1       -0.1626
      5 O           1.8130   -2.8960    0.0000 O.2     1  LIG1       -0.1626
      6 C           2.5500   -1.6580    0.0000 C.ar    1  LIG1        0.1121
      7 C           2.7960   -0.7000    0.0000 C.ar    1  LIG1        0.0188
      8 C           3.7500   -0.4330    0.0000 C.ar    1  LIG1        0.0013
      9 C           4.4630   -1.1290    0.0000 C.ar    1  LIG1        0.0001
     10 C           4.2170   -2.1000    0.0000 C.ar    1  LIG1        0.0013
     11 C           3.2500   -2.3670    0.0000 C.ar    1  LIG1        0.0188
     12 N           0.1920   -3.0500    0.0000 N.ar    1  LIG1       -0.1076
     13 N          -0.8080   -2.9330    0.0000 N.ar    1  LIG1       -0.0569
     14 N          -1.0080   -1.9580    0.0000 N.ar    1  LIG1       -0.1914
     15 C          -1.8750   -1.4460    0.0000 C.ar    1  LIG1        0.0888
     16 C          -1.8710   -0.4460    0.0000 C.ar    1  LIG1        0.0503
     17 C          -1.0080    0.0540    0.0000 C.ar    1  LIG1        0.1350
     18 N          -0.1420   -0.4460    0.0000 N.ar    1  LIG1       -0.2091
     19 N          -1.0080    1.0540    0.0000 N.pl3   1  LIG1       -0.2880
     20 C          -0.1420    1.5540    0.0000 C.3     1  LIG1        0.1242
     21 C          -0.1420    2.5420    0.0000 C.3     1  LIG1        0.1636
     22 O          -1.0080    3.0540    0.0000 O.3     1  LIG1       -0.3501
     23 C          -1.8710    2.5540    0.0000 C.3     1  LIG1        0.1636
     24 C          -1.8710    1.5540    0.0000 C.3     1  LIG1        0.1242
     25 C          -2.7420    0.0540    0.0000 C.ar    1  LIG1        0.0157
     26 C          -3.6040   -0.4580    0.0000 C.ar    1  LIG1        0.0579
     27 C          -3.6040   -1.4580    0.0000 C.ar    1  LIG1        0.0129
     28 C          -2.7420   -1.9580    0.0000 C.ar    1  LIG1        0.0202
     29 CL         -4.4670    0.0540    0.0000 Cl      1  LIG1       -0.0822
@<TRIPOS>BOND
     1     1     2   ar
     2     1    14   ar
     3     1    18   ar
     4     2     3    1
     5     2    12   ar
     6     3     4    2
     7     3     5    2
     8     3     6    1
     9     6     7   ar
    10     6    11   ar
    11     7     8   ar
    12     8     9   ar
    13     9    10   ar
    14    10    11   ar
    15    12    13   ar
    16    13    14   ar
    17    14    15   ar
    18    15    16   ar
    19    15    28   ar
    20    16    17   ar
    21    16    25   ar
    22    17    18   ar
    23    17    19    1
    24    19    20    1
    25    19    24    1
    26    20    21    1
    27    21    22    1
    28    22    23    1
    29    23    24    1
    30    25    26   ar
    31    26    27   ar
    32    26    29    1
    33    27    28   ar
