@<TRIPOS>MOLECULE
36372_ChemDiv_K692-0055
 29 32 0 0 0
SMALL
GASTEIGER
Energy = 0

@<TRIPOS>ATOM
      1 S          -2.3880   -0.0750    0.0000 S.O2    1  LIG1        0.0633
      2 C          -1.5130   -0.5750    0.0000 C.ar    1  LIG1        0.1224
      3 C          -0.6420   -0.0750    0.0000 C.ar    1  LIG1        0.0246
      4 C           0.2170   -0.5750    0.0000 C.ar    1  LIG1        0.0581
      5 C           1.0830   -0.0750    0.0000 C.ar    1  LIG1        0.2029
      6 C           1.9460   -0.5750    0.0000 C.ar    1  LIG1        0.1115
      7 C           2.8170   -0.0750    0.0000 C.2     1  LIG1        0.2538
      8 N           3.6880   -0.5880    0.0000 N.am    1  LIG1       -0.2708
      9 C           3.6710   -1.5750    0.0000 C.3     1  LIG1        0.1258
     10 C           4.5330   -2.0880    0.0000 C.3     1  LIG1        0.1637
     11 O           5.3960   -1.5920    0.0000 O.3     1  LIG1       -0.3501
     12 C           5.4080   -0.5920    0.0000 C.3     1  LIG1        0.1637
     13 C           4.5500   -0.0880    0.0000 C.3     1  LIG1        0.1258
     14 O           2.8250    0.9210    0.0000 O.2     1  LIG1       -0.2697
     15 C           1.9460   -1.5750    0.0000 C.ar    1  LIG1        0.1065
     16 N           1.0830   -2.0750    0.0000 N.ar    1  LIG1       -0.2435
     17 C           0.2210   -1.5750    0.0000 C.ar    1  LIG1        0.0845
     18 C          -0.6420   -2.0750    0.0000 C.ar    1  LIG1        0.0206
     19 C          -1.5130   -1.5750    0.0000 C.ar    1  LIG1        0.0215
     20 O           1.0830    0.9210    0.0000 O.2     1  LIG1       -0.2863
     21 N          -3.2630    0.4250    0.0000 N.3     1  LIG1       -0.1555
     22 C          -4.0790   -0.1330    0.0000 C.3     1  LIG1        0.0958
     23 C          -5.0630    0.1500    0.0000 C.3     1  LIG1        0.0191
     24 C          -5.4130    1.0790    0.0000 C.3     1  LIG1        0.0015
     25 C          -4.9130    1.9580    0.0000 C.3     1  LIG1        0.0015
     26 C          -3.8960    2.0920    0.0000 C.3     1  LIG1        0.0191
     27 C          -3.2000    1.4080    0.0000 C.3     1  LIG1        0.0958
     28 O          -2.8830   -0.9500    0.0000 O.2     1  LIG1       -0.1528
     29 O          -1.8880    0.8000    0.0000 O.2     1  LIG1       -0.1528
@<TRIPOS>BOND
     1     1     2    1
     2     1    21    1
     3     1    28    2
     4     1    29    2
     5     2     3   ar
     6     2    19   ar
     7     3     4   ar
     8     4     5   ar
     9     4    17   ar
    10     5     6   ar
    11     5    20    2
    12     6     7    1
    13     6    15   ar
    14     7     8   am
    15     7    14    2
    16     8     9    1
    17     8    13    1
    18     9    10    1
    19    10    11    1
    20    11    12    1
    21    12    13    1
    22    15    16   ar
    23    16    17   ar
    24    17    18   ar
    25    18    19   ar
    26    21    22    1
    27    21    27    1
    28    22    23    1
    29    23    24    1
    30    24    25    1
    31    25    26    1
    32    26    27    1
