@<TRIPOS>MOLECULE
36370_ChemDiv_K511-0008
 23 24 0 0 0
SMALL
GASTEIGER
Energy = 0

@<TRIPOS>ATOM
      1 S           1.1540    0.4420    0.0000 S.O2    1  LIG1        0.0634
      2 C           0.0960   -0.1750    0.0000 C.ar    1  LIG1        0.1224
      3 C          -0.0210   -1.1500    0.0000 C.ar    1  LIG1        0.0246
      4 C          -0.9040   -1.5420    0.0000 C.ar    1  LIG1        0.0580
      5 C          -1.0130   -2.5000    0.0000 C.ar    1  LIG1        0.1996
      6 C          -1.9000   -2.8960    0.0000 C.ar    1  LIG1        0.0720
      7 C          -2.6830   -2.3170    0.0000 C.ar    1  LIG1        0.1031
      8 N          -2.5630   -1.3460    0.0000 N.ar    1  LIG1       -0.2436
      9 C          -1.6750   -0.9630    0.0000 C.ar    1  LIG1        0.0845
     10 C          -1.5710    0.0080    0.0000 C.ar    1  LIG1        0.0206
     11 C          -0.6920    0.3920    0.0000 C.ar    1  LIG1        0.0215
     12 C          -2.0080   -3.8750    0.0000 C.2     1  LIG1        0.0775
     13 O          -1.2420   -4.4540    0.0000 O.co2   1  LIG1       -0.5444
     14 O          -2.8960   -4.2580    0.0000 O.co2   1  LIG1       -0.5444
     15 O          -0.2330   -3.0790    0.0000 O.2     1  LIG1       -0.2864
     16 N           2.0250    0.9330    0.0000 N.3     1  LIG1       -0.1529
     17 C           2.0250    1.9420    0.0000 C.3     1  LIG1        0.1120
     18 C           1.1540    2.4460    0.0000 C.3     1  LIG1        0.1245
     19 C           1.1540    3.4500    0.0000 C.1     1  LIG1        0.0747
     20 N           1.1500    4.4540    0.0000 N.1     1  LIG1       -0.1958
     21 C           2.8920    0.4420    0.0000 C.3     1  LIG1        0.1149
     22 O           1.5790   -0.5710    0.0000 O.2     1  LIG1       -0.1528
     23 O           0.6920    1.4380    0.0000 O.2     1  LIG1       -0.1528
@<TRIPOS>BOND
     1     1     2    1
     2     1    16    1
     3     1    22    2
     4     1    23    2
     5     2     3   ar
     6     2    11   ar
     7     3     4   ar
     8     4     5   ar
     9     4     9   ar
    10     5     6   ar
    11     5    15    2
    12     6     7   ar
    13     6    12    1
    14     7     8   ar
    15     8     9   ar
    16     9    10   ar
    17    10    11   ar
    18    12    13   ar
    19    12    14   ar
    20    16    17    1
    21    16    21    1
    22    17    18    1
    23    18    19    1
    24    19    20    3
