@<TRIPOS>MOLECULE
36371_ChemDiv_G195-0517
 27 29 0 0 0
SMALL
GASTEIGER
Energy = 0

@<TRIPOS>ATOM
      1 N          -1.7380   -1.0080    0.0000 N.ar    1  LIG1       -0.2699
      2 C          -0.8630   -0.4830    0.0000 C.ar    1  LIG1        0.2883
      3 C           0.0000   -1.0080    0.0000 C.ar    1  LIG1        0.1636
      4 N           0.0000   -2.0080    0.0000 N.ar    1  LIG1       -0.2312
      5 C          -0.8630   -2.5080    0.0000 C.ar    1  LIG1        0.1186
      6 C          -1.7380   -2.0080    0.0000 C.ar    1  LIG1        0.1036
      7 S           0.8580   -0.5000    0.0000 S.3     1  LIG1       -0.0804
      8 C           0.8580    0.5000    0.0000 C.3     1  LIG1        0.1490
      9 C           1.7210    0.9960    0.0000 C.2     1  LIG1        0.2408
     10 N           2.5830    0.5040    0.0000 N.am    1  LIG1       -0.2561
     11 C           3.4420    1.0130    0.0000 C.ar    1  LIG1        0.0539
     12 C           4.3210    0.5130    0.0000 C.ar    1  LIG1        0.0149
     13 C           5.1790    1.0170    0.0000 C.ar    1  LIG1        0.0013
     14 C           5.1670    2.0130    0.0000 C.ar    1  LIG1        0.0001
     15 C           4.2880    2.5130    0.0000 C.ar    1  LIG1        0.0013
     16 C           3.4290    2.0080    0.0000 C.ar    1  LIG1        0.0149
     17 C           2.5960   -0.4960    0.0000 C.3     1  LIG1        0.1200
     18 O           1.7210    1.9960    0.0000 O.2     1  LIG1       -0.2736
     19 O          -0.8630    0.5130    0.0000 O.2     1  LIG1       -0.2644
     20 C          -2.6000   -0.5000    0.0000 C.ar    1  LIG1        0.0664
     21 C          -2.5880    0.5000    0.0000 C.ar    1  LIG1        0.0133
     22 C          -3.4460    0.9960    0.0000 C.ar    1  LIG1       -0.0207
     23 C          -4.3250    0.5040    0.0000 C.ar    1  LIG1       -0.0084
     24 C          -4.3250   -0.5000    0.0000 C.ar    1  LIG1       -0.0207
     25 C          -3.4630   -0.9960    0.0000 C.ar    1  LIG1        0.0133
     26 C          -5.1830   -0.9920    0.0000 C.3     1  LIG1        0.0311
     27 C          -3.4460    1.9960    0.0000 C.3     1  LIG1        0.0311
@<TRIPOS>BOND
     1     1     2   ar
     2     1     6   ar
     3     1    20    1
     4     2     3   ar
     5     2    19    2
     6     3     4   ar
     7     3     7    1
     8     4     5   ar
     9     5     6   ar
    10     7     8    1
    11     8     9    1
    12     9    10   am
    13     9    18    2
    14    10    11    1
    15    10    17    1
    16    11    12   ar
    17    11    16   ar
    18    12    13   ar
    19    13    14   ar
    20    14    15   ar
    21    15    16   ar
    22    20    21   ar
    23    20    25   ar
    24    21    22   ar
    25    22    23   ar
    26    22    27    1
    27    23    24   ar
    28    24    25   ar
    29    24    26    1
