@<TRIPOS>MOLECULE
36381_ChemDiv_C718-1061
 30 33 0 0 0
SMALL
GASTEIGER
Energy = 0

@<TRIPOS>ATOM
      1 C          -0.1420   -2.2080    0.0000 C.ar    1  LIG1        0.2041
      2 C           0.6000   -2.8750    0.0000 C.ar    1  LIG1        0.2490
      3 S           1.5830   -2.6790    0.0000 S.O2    1  LIG1        0.0486
      4 O           1.8080   -3.6460    0.0000 O.2     1  LIG1       -0.1626
      5 O           1.3500   -1.7040    0.0000 O.2     1  LIG1       -0.1626
      6 C           2.5460   -2.4170    0.0000 C.ar    1  LIG1        0.1121
      7 C           3.2500   -3.1170    0.0000 C.ar    1  LIG1        0.0188
      8 C           4.2130   -2.8540    0.0000 C.ar    1  LIG1        0.0013
      9 C           4.4580   -1.8880    0.0000 C.ar    1  LIG1        0.0001
     10 C           3.7500   -1.1790    0.0000 C.ar    1  LIG1        0.0013
     11 C           2.7960   -1.4500    0.0000 C.ar    1  LIG1        0.0188
     12 N           0.1920   -3.8000    0.0000 N.ar    1  LIG1       -0.1076
     13 N          -0.8080   -3.6880    0.0000 N.ar    1  LIG1       -0.0569
     14 N          -1.0080   -2.7080    0.0000 N.ar    1  LIG1       -0.1914
     15 C          -1.8750   -2.2040    0.0000 C.ar    1  LIG1        0.0889
     16 C          -1.8710   -1.2040    0.0000 C.ar    1  LIG1        0.0517
     17 C          -1.0080   -0.6960    0.0000 C.ar    1  LIG1        0.1507
     18 N          -0.1420   -1.2040    0.0000 N.ar    1  LIG1       -0.2076
     19 N          -1.0080    0.3040    0.0000 N.pl3   1  LIG1       -0.2183
     20 C          -0.1420    0.8040    0.0000 C.3     1  LIG1        0.1372
     21 C          -0.1420    1.8040    0.0000 C.3     1  LIG1        0.1385
     22 N           0.7210    2.3040    0.0000 N.am    1  LIG1       -0.2035
     23 C           0.7210    3.3040    0.0000 C.2     1  LIG1        0.2419
     24 O          -0.1420    3.8040    0.0000 O.2     1  LIG1       -0.2733
     25 C           1.5920    3.8040    0.0000 C.3     1  LIG1        0.0964
     26 C          -2.7380   -0.7040    0.0000 C.ar    1  LIG1        0.0157
     27 C          -3.6000   -1.2040    0.0000 C.ar    1  LIG1        0.0579
     28 C          -3.6000   -2.2080    0.0000 C.ar    1  LIG1        0.0129
     29 C          -2.7380   -2.7080    0.0000 C.ar    1  LIG1        0.0202
     30 CL         -4.4630   -0.7040    0.0000 Cl      1  LIG1       -0.0822
@<TRIPOS>BOND
     1     1     2   ar
     2     1    14   ar
     3     1    18   ar
     4     2     3    1
     5     2    12   ar
     6     3     4    2
     7     3     5    2
     8     3     6    1
     9     6     7   ar
    10     6    11   ar
    11     7     8   ar
    12     8     9   ar
    13     9    10   ar
    14    10    11   ar
    15    12    13   ar
    16    13    14   ar
    17    14    15   ar
    18    15    16   ar
    19    15    29   ar
    20    16    17   ar
    21    16    26   ar
    22    17    18   ar
    23    17    19    1
    24    19    20    1
    25    20    21    1
    26    21    22    1
    27    22    23   am
    28    23    24    2
    29    23    25    1
    30    26    27   ar
    31    27    28   ar
    32    27    30    1
    33    28    29   ar
