@<TRIPOS>MOLECULE
36383_ChemDiv_C718-1367
 32 36 0 0 0
SMALL
GASTEIGER
Energy = 0

@<TRIPOS>ATOM
      1 C          -0.9750   -1.5330    0.0000 C.ar    1  LIG1        0.2040
      2 C          -0.2330   -2.2000    0.0000 C.ar    1  LIG1        0.2490
      3 S           0.7460   -2.0040    0.0000 S.O2    1  LIG1        0.0486
      4 C           1.7040   -1.7420    0.0000 C.ar    1  LIG1        0.1121
      5 C           2.4170   -2.4420    0.0000 C.ar    1  LIG1        0.0185
      6 C           3.3710   -2.1790    0.0000 C.ar    1  LIG1       -0.0029
      7 C           3.6250   -1.2130    0.0000 C.ar    1  LIG1       -0.0221
      8 C           2.9080   -0.5040    0.0000 C.ar    1  LIG1       -0.0029
      9 C           1.9540   -0.7790    0.0000 C.ar    1  LIG1        0.0185
     10 C           4.5790   -0.9460    0.0000 C.3     1  LIG1        0.0264
     11 C           5.3000   -1.6420    0.0000 C.3     1  LIG1        0.0050
     12 O           0.9750   -2.9710    0.0000 O.2     1  LIG1       -0.1626
     13 O           0.5080   -1.0290    0.0000 O.2     1  LIG1       -0.1626
     14 N          -0.6420   -3.1250    0.0000 N.ar    1  LIG1       -0.1076
     15 N          -1.6420   -3.0130    0.0000 N.ar    1  LIG1       -0.0569
     16 N          -1.8460   -2.0330    0.0000 N.ar    1  LIG1       -0.1914
     17 C          -2.7170   -1.5290    0.0000 C.ar    1  LIG1        0.0888
     18 C          -2.7080   -0.5290    0.0000 C.ar    1  LIG1        0.0503
     19 C          -1.8460   -0.0210    0.0000 C.ar    1  LIG1        0.1348
     20 N          -0.9750   -0.5290    0.0000 N.ar    1  LIG1       -0.2091
     21 N          -1.8460    0.9790    0.0000 N.pl3   1  LIG1       -0.2932
     22 C          -2.6750    1.3330    0.0000 C.3     1  LIG1        0.0922
     23 C          -2.9000    2.3250    0.0000 C.3     1  LIG1        0.0215
     24 C          -2.1750    3.1290    0.0000 C.3     1  LIG1        0.0018
     25 C          -1.1170    3.0580    0.0000 C.3     1  LIG1        0.0018
     26 C          -0.5670    2.2040    0.0000 C.3     1  LIG1        0.0215
     27 C          -0.8920    1.3880    0.0000 C.3     1  LIG1        0.0922
     28 C          -3.5790   -0.0290    0.0000 C.ar    1  LIG1        0.0157
     29 C          -4.4420   -0.5290    0.0000 C.ar    1  LIG1        0.0579
     30 C          -4.4420   -1.5330    0.0000 C.ar    1  LIG1        0.0129
     31 C          -3.5790   -2.0330    0.0000 C.ar    1  LIG1        0.0202
     32 CL         -5.3040   -0.0290    0.0000 Cl      1  LIG1       -0.0822
@<TRIPOS>BOND
     1     1     2   ar
     2     1    16   ar
     3     1    20   ar
     4     2     3    1
     5     2    14   ar
     6     3     4    1
     7     3    12    2
     8     3    13    2
     9     4     5   ar
    10     4     9   ar
    11     5     6   ar
    12     6     7   ar
    13     7     8   ar
    14     7    10    1
    15     8     9   ar
    16    10    11    1
    17    14    15   ar
    18    15    16   ar
    19    16    17   ar
    20    17    18   ar
    21    17    31   ar
    22    18    19   ar
    23    18    28   ar
    24    19    20   ar
    25    19    21    1
    26    21    22    1
    27    21    27    1
    28    22    23    1
    29    23    24    1
    30    24    25    1
    31    25    26    1
    32    26    27    1
    33    28    29   ar
    34    29    30   ar
    35    29    32    1
    36    30    31   ar
