@<TRIPOS>MOLECULE
36380_ChemDiv_K784-1506
 32 35 0 0 0
SMALL
GASTEIGER
Energy = 0

@<TRIPOS>ATOM
      1 S          -1.7330    0.0080    0.0000 S.O2    1  LIG1        0.0766
      2 N          -2.6000    0.5040    0.0000 N.pl3   1  LIG1       -0.1906
      3 C          -3.4630    0.0080    0.0000 C.ar    1  LIG1        0.0689
      4 C          -3.4630   -1.0040    0.0000 C.ar    1  LIG1        0.0184
      5 C          -4.3250   -1.5000    0.0000 C.ar    1  LIG1        0.0310
      6 C          -5.1960   -1.0000    0.0000 C.ar    1  LIG1        0.1402
      7 C          -5.1960    0.0080    0.0000 C.ar    1  LIG1        0.0310
      8 C          -4.3250    0.5040    0.0000 C.ar    1  LIG1        0.0184
      9 F          -6.0580   -1.5040    0.0000 F       1  LIG1       -0.2042
     10 C          -2.6080    1.5040    0.0000 C.3     1  LIG1        0.1159
     11 C          -3.4710    2.0040    0.0000 C.3     1  LIG1        0.0252
     12 C          -0.8540   -0.5000    0.0000 C.ar    1  LIG1        0.1256
     13 C           0.0080    0.0080    0.0000 C.ar    1  LIG1        0.0249
     14 C           0.8710   -0.4920    0.0000 C.ar    1  LIG1        0.0581
     15 C           1.7330    0.0080    0.0000 C.ar    1  LIG1        0.2029
     16 C           2.6040   -0.4920    0.0000 C.ar    1  LIG1        0.1115
     17 C           3.4710    0.0080    0.0000 C.2     1  LIG1        0.2538
     18 N           4.3330   -0.5000    0.0000 N.am    1  LIG1       -0.2708
     19 C           4.3290   -1.5000    0.0000 C.3     1  LIG1        0.1258
     20 C           5.1920   -2.0000    0.0000 C.3     1  LIG1        0.1637
     21 O           6.0580   -1.5040    0.0000 O.3     1  LIG1       -0.3501
     22 C           6.0580   -0.5080    0.0000 C.3     1  LIG1        0.1637
     23 C           5.1960   -0.0040    0.0000 C.3     1  LIG1        0.1258
     24 O           3.4830    1.0040    0.0000 O.2     1  LIG1       -0.2697
     25 C           2.6040   -1.4920    0.0000 C.ar    1  LIG1        0.1065
     26 N           1.7330   -1.9920    0.0000 N.ar    1  LIG1       -0.2435
     27 C           0.8710   -1.4920    0.0000 C.ar    1  LIG1        0.0845
     28 C           0.0080   -1.9920    0.0000 C.ar    1  LIG1        0.0206
     29 C          -0.8540   -1.4920    0.0000 C.ar    1  LIG1        0.0217
     30 O           1.7330    1.0040    0.0000 O.2     1  LIG1       -0.2863
     31 O          -2.2290   -0.8710    0.0000 O.2     1  LIG1       -0.1497
     32 O          -1.2330    0.8750    0.0000 O.2     1  LIG1       -0.1497
@<TRIPOS>BOND
     1     1     2    1
     2     1    12    1
     3     1    31    2
     4     1    32    2
     5     2     3    1
     6     2    10    1
     7     3     4   ar
     8     3     8   ar
     9     4     5   ar
    10     5     6   ar
    11     6     7   ar
    12     6     9    1
    13     7     8   ar
    14    10    11    1
    15    12    13   ar
    16    12    29   ar
    17    13    14   ar
    18    14    15   ar
    19    14    27   ar
    20    15    16   ar
    21    15    30    2
    22    16    17    1
    23    16    25   ar
    24    17    18   am
    25    17    24    2
    26    18    19    1
    27    18    23    1
    28    19    20    1
    29    20    21    1
    30    21    22    1
    31    22    23    1
    32    25    26   ar
    33    26    27   ar
    34    27    28   ar
    35    28    29   ar
