@<TRIPOS>MOLECULE
36387_ChemDiv_C200-4510
 30 33 0 0 0
SMALL
GASTEIGER
Energy = 0

@<TRIPOS>ATOM
      1 C          -0.3000    0.0960    0.0000 C.ar    1  LIG1        0.1542
      2 C           0.2830   -0.7040    0.0000 C.ar    1  LIG1        0.1923
      3 N           1.2880   -0.7080    0.0000 N.ar    1  LIG1       -0.2005
      4 C           1.5960   -1.6580    0.0000 C.ar    1  LIG1        0.2051
      5 N           2.5500   -1.9580    0.0000 N.am    1  LIG1       -0.1492
      6 C           3.2920   -1.2960    0.0000 C.2     1  LIG1        0.2716
      7 C           4.2420   -1.6080    0.0000 C.ar    1  LIG1        0.0660
      8 C           4.4500   -2.5880    0.0000 C.ar    1  LIG1        0.0621
      9 CL          3.6960   -3.2580    0.0000 Cl      1  LIG1       -0.0821
     10 C           5.4000   -2.8960    0.0000 C.ar    1  LIG1        0.0115
     11 C           6.1420   -2.2330    0.0000 C.ar    1  LIG1        0.0009
     12 C           5.9290   -1.2460    0.0000 C.ar    1  LIG1        0.0002
     13 C           4.9790   -0.9420    0.0000 C.ar    1  LIG1        0.0054
     14 O           3.0830   -0.3170    0.0000 O.2     1  LIG1       -0.2679
     15 S           0.7880   -2.2460    0.0000 S.2     1  LIG1        0.0514
     16 N          -0.0290   -1.6580    0.0000 N.ar    1  LIG1       -0.1855
     17 N           0.0130    1.0580    0.0000 N.ar    1  LIG1       -0.1257
     18 N          -0.8000    1.6460    0.0000 N.ar    1  LIG1       -0.0598
     19 N          -1.6000    1.0580    0.0000 N.ar    1  LIG1       -0.2144
     20 C          -1.3000    0.0960    0.0000 C.ar    1  LIG1        0.0848
     21 C          -1.8880   -0.7080    0.0000 C.3     1  LIG1        0.0540
     22 C          -2.5540    1.3580    0.0000 C.ar    1  LIG1        0.0841
     23 C          -3.2920    0.6960    0.0000 C.ar    1  LIG1        0.0189
     24 C          -4.2420    1.0000    0.0000 C.ar    1  LIG1       -0.0027
     25 C          -4.4540    1.9790    0.0000 C.ar    1  LIG1       -0.0224
     26 C          -3.7130    2.6460    0.0000 C.ar    1  LIG1       -0.0027
     27 C          -2.7630    2.3420    0.0000 C.ar    1  LIG1        0.0189
     28 C          -5.4040    2.2790    0.0000 C.3     1  LIG1        0.0224
     29 C          -5.6170    3.2630    0.0000 C.3     1  LIG1        0.0047
     30 C          -6.1420    1.6170    0.0000 C.3     1  LIG1        0.0047
@<TRIPOS>BOND
     1     1     2    1
     2     1    17   ar
     3     1    20   ar
     4     2     3   ar
     5     2    16   ar
     6     3     4   ar
     7     4     5    1
     8     4    15   ar
     9     5     6   am
    10     6     7    1
    11     6    14    2
    12     7     8   ar
    13     7    13   ar
    14     8     9    1
    15     8    10   ar
    16    10    11   ar
    17    11    12   ar
    18    12    13   ar
    19    15    16   ar
    20    17    18   ar
    21    18    19   ar
    22    19    20   ar
    23    19    22    1
    24    20    21    1
    25    22    23   ar
    26    22    27   ar
    27    23    24   ar
    28    24    25   ar
    29    25    26   ar
    30    25    28    1
    31    26    27   ar
    32    28    29    1
    33    28    30    1
