@<TRIPOS>MOLECULE
36385_ChemDiv_C200-4501
 29 32 0 0 0
SMALL
GASTEIGER
Energy = 0

@<TRIPOS>ATOM
      1 C          -0.6670   -0.0830    0.0000 C.ar    1  LIG1        0.1542
      2 C          -0.0830   -0.8830    0.0000 C.ar    1  LIG1        0.1923
      3 N           0.9170   -0.8880    0.0000 N.ar    1  LIG1       -0.2005
      4 C           1.2290   -1.8380    0.0000 C.ar    1  LIG1        0.2051
      5 N           2.1790   -2.1420    0.0000 N.am    1  LIG1       -0.1492
      6 C           2.9250   -1.4750    0.0000 C.2     1  LIG1        0.2716
      7 C           3.8750   -1.7880    0.0000 C.ar    1  LIG1        0.0660
      8 C           4.0790   -2.7710    0.0000 C.ar    1  LIG1        0.0621
      9 CL          3.3250   -3.4380    0.0000 Cl      1  LIG1       -0.0821
     10 C           5.0290   -3.0750    0.0000 C.ar    1  LIG1        0.0115
     11 C           5.7710   -2.4130    0.0000 C.ar    1  LIG1        0.0009
     12 C           5.5580   -1.4250    0.0000 C.ar    1  LIG1        0.0002
     13 C           4.6080   -1.1250    0.0000 C.ar    1  LIG1        0.0054
     14 O           2.7130   -0.4960    0.0000 O.2     1  LIG1       -0.2679
     15 S           0.4170   -2.4290    0.0000 S.2     1  LIG1        0.0514
     16 N          -0.3960   -1.8380    0.0000 N.ar    1  LIG1       -0.1855
     17 N          -0.3580    0.8790    0.0000 N.ar    1  LIG1       -0.1257
     18 N          -1.1710    1.4670    0.0000 N.ar    1  LIG1       -0.0598
     19 N          -1.9710    0.8790    0.0000 N.ar    1  LIG1       -0.2144
     20 C          -1.6710   -0.0830    0.0000 C.ar    1  LIG1        0.0848
     21 C          -2.2580   -0.8880    0.0000 C.3     1  LIG1        0.0540
     22 C          -2.9210    1.1790    0.0000 C.ar    1  LIG1        0.0849
     23 C          -3.1330    2.1580    0.0000 C.ar    1  LIG1        0.0303
     24 C          -4.0830    2.4670    0.0000 C.ar    1  LIG1        0.0552
     25 C          -4.8250    1.7960    0.0000 C.ar    1  LIG1       -0.0112
     26 C          -4.6130    0.8170    0.0000 C.ar    1  LIG1       -0.0019
     27 C          -3.6630    0.5170    0.0000 C.ar    1  LIG1        0.0189
     28 C          -5.7750    2.1000    0.0000 C.3     1  LIG1        0.0319
     29 CL         -4.2920    3.4420    0.0000 Cl      1  LIG1       -0.0825
@<TRIPOS>BOND
     1     1     2    1
     2     1    17   ar
     3     1    20   ar
     4     2     3   ar
     5     2    16   ar
     6     3     4   ar
     7     4     5    1
     8     4    15   ar
     9     5     6   am
    10     6     7    1
    11     6    14    2
    12     7     8   ar
    13     7    13   ar
    14     8     9    1
    15     8    10   ar
    16    10    11   ar
    17    11    12   ar
    18    12    13   ar
    19    15    16   ar
    20    17    18   ar
    21    18    19   ar
    22    19    20   ar
    23    19    22    1
    24    20    21    1
    25    22    23   ar
    26    22    27   ar
    27    23    24   ar
    28    24    25   ar
    29    24    29    1
    30    25    26   ar
    31    25    28    1
    32    26    27   ar
