@<TRIPOS>MOLECULE
36389_ChemDiv_C200-4598
 29 32 0 0 0
SMALL
GASTEIGER
Energy = 0

@<TRIPOS>ATOM
      1 C          -1.2130   -0.6710    0.0000 C.ar    1  LIG1        0.1542
      2 C          -0.2420   -0.8960    0.0000 C.ar    1  LIG1        0.1923
      3 N           0.4670   -0.1880    0.0000 N.ar    1  LIG1       -0.2005
      4 C           1.3630   -0.6420    0.0000 C.ar    1  LIG1        0.2051
      5 N           2.2920   -0.2920    0.0000 N.am    1  LIG1       -0.1493
      6 C           2.4630    0.6920    0.0000 C.2     1  LIG1        0.2707
      7 C           3.4080    1.0380    0.0000 C.ar    1  LIG1        0.0555
      8 C           4.1710    0.4040    0.0000 C.ar    1  LIG1        0.0054
      9 C           5.1080    0.7420    0.0000 C.ar    1  LIG1        0.0115
     10 C           5.2750    1.7210    0.0000 C.ar    1  LIG1        0.0577
     11 C           4.5170    2.3670    0.0000 C.ar    1  LIG1        0.0115
     12 C           3.5830    2.0210    0.0000 C.ar    1  LIG1        0.0054
     13 CL          6.2210    2.0630    0.0000 Cl      1  LIG1       -0.0822
     14 O           1.6920    1.3290    0.0000 O.2     1  LIG1       -0.2679
     15 S           1.1960   -1.6380    0.0000 S.2     1  LIG1        0.0514
     16 N           0.1960   -1.7830    0.0000 N.ar    1  LIG1       -0.1855
     17 C          -1.9960   -1.3040    0.0000 C.ar    1  LIG1        0.0848
     18 N          -2.8250   -0.7540    0.0000 N.ar    1  LIG1       -0.2147
     19 N          -2.5750    0.2040    0.0000 N.ar    1  LIG1       -0.0598
     20 N          -1.5710    0.2580    0.0000 N.ar    1  LIG1       -0.1257
     21 C          -3.7830   -1.0750    0.0000 C.ar    1  LIG1        0.0809
     22 C          -4.5330   -0.4000    0.0000 C.ar    1  LIG1        0.0065
     23 C          -5.4830   -0.7170    0.0000 C.ar    1  LIG1        0.0551
     24 CL         -6.2210   -0.0460    0.0000 Cl      1  LIG1       -0.0825
     25 C          -5.6880   -1.6960    0.0000 C.ar    1  LIG1        0.0112
     26 C          -4.9420   -2.3630    0.0000 C.ar    1  LIG1        0.0024
     27 C          -3.9880   -2.0540    0.0000 C.ar    1  LIG1        0.0189
     28 C          -4.3250    0.5750    0.0000 C.3     1  LIG1        0.0335
     29 C          -1.9380   -2.3000    0.0000 C.3     1  LIG1        0.0540
@<TRIPOS>BOND
     1     1     2    1
     2     1    17   ar
     3     1    20   ar
     4     2     3   ar
     5     2    16   ar
     6     3     4   ar
     7     4     5    1
     8     4    15   ar
     9     5     6   am
    10     6     7    1
    11     6    14    2
    12     7     8   ar
    13     7    12   ar
    14     8     9   ar
    15     9    10   ar
    16    10    11   ar
    17    10    13    1
    18    11    12   ar
    19    15    16   ar
    20    17    18   ar
    21    17    29    1
    22    18    19   ar
    23    18    21    1
    24    19    20   ar
    25    21    22   ar
    26    21    27   ar
    27    22    23   ar
    28    22    28    1
    29    23    24    1
    30    23    25   ar
    31    25    26   ar
    32    26    27   ar
