@<TRIPOS>MOLECULE
36391_ChemDiv_C200-4600
 29 32 0 0 0
SMALL
GASTEIGER
Energy = 0

@<TRIPOS>ATOM
      1 C          -1.4830   -0.1830    0.0000 C.ar    1  LIG1        0.1542
      2 C          -0.5130   -0.4080    0.0000 C.ar    1  LIG1        0.1923
      3 N           0.2000    0.3000    0.0000 N.ar    1  LIG1       -0.2005
      4 C           1.0920   -0.1500    0.0000 C.ar    1  LIG1        0.2051
      5 N           2.0210    0.1960    0.0000 N.am    1  LIG1       -0.1493
      6 C           2.1960    1.1790    0.0000 C.2     1  LIG1        0.2707
      7 C           3.1420    1.5250    0.0000 C.ar    1  LIG1        0.0555
      8 C           3.9000    0.8920    0.0000 C.ar    1  LIG1        0.0054
      9 C           4.8380    1.2290    0.0000 C.ar    1  LIG1        0.0115
     10 C           5.0040    2.2130    0.0000 C.ar    1  LIG1        0.0577
     11 C           4.2500    2.8540    0.0000 C.ar    1  LIG1        0.0115
     12 C           3.3130    2.5080    0.0000 C.ar    1  LIG1        0.0054
     13 CL          5.9500    2.5540    0.0000 Cl      1  LIG1       -0.0822
     14 O           1.4250    1.8170    0.0000 O.2     1  LIG1       -0.2679
     15 S           0.9250   -1.1500    0.0000 S.2     1  LIG1        0.0514
     16 N          -0.0710   -1.2960    0.0000 N.ar    1  LIG1       -0.1855
     17 C          -2.2630   -0.8170    0.0000 C.ar    1  LIG1        0.0848
     18 N          -3.0960   -0.2670    0.0000 N.ar    1  LIG1       -0.2147
     19 N          -2.8420    0.6960    0.0000 N.ar    1  LIG1       -0.0598
     20 N          -1.8420    0.7460    0.0000 N.ar    1  LIG1       -0.1257
     21 C          -4.0500   -0.5830    0.0000 C.ar    1  LIG1        0.0809
     22 C          -4.2580   -1.5670    0.0000 C.ar    1  LIG1        0.0303
     23 C          -5.2080   -1.8750    0.0000 C.ar    1  LIG1        0.0592
     24 C          -5.9540   -1.2080    0.0000 C.ar    1  LIG1        0.0112
     25 C          -5.7540   -0.2250    0.0000 C.ar    1  LIG1       -0.0019
     26 C          -4.8000    0.0920    0.0000 C.ar    1  LIG1       -0.0041
     27 C          -4.5960    1.0630    0.0000 C.3     1  LIG1        0.0326
     28 CL         -5.4210   -2.8500    0.0000 Cl      1  LIG1       -0.0822
     29 C          -2.2080   -1.8130    0.0000 C.3     1  LIG1        0.0540
@<TRIPOS>BOND
     1     1     2    1
     2     1    17   ar
     3     1    20   ar
     4     2     3   ar
     5     2    16   ar
     6     3     4   ar
     7     4     5    1
     8     4    15   ar
     9     5     6   am
    10     6     7    1
    11     6    14    2
    12     7     8   ar
    13     7    12   ar
    14     8     9   ar
    15     9    10   ar
    16    10    11   ar
    17    10    13    1
    18    11    12   ar
    19    15    16   ar
    20    17    18   ar
    21    17    29    1
    22    18    19   ar
    23    18    21    1
    24    19    20   ar
    25    21    22   ar
    26    21    26   ar
    27    22    23   ar
    28    23    24   ar
    29    23    28    1
    30    24    25   ar
    31    25    26   ar
    32    26    27    1
