@<TRIPOS>MOLECULE
36397_ChemDiv_G193-0141
 30 33 0 0 0
SMALL
GASTEIGER
Energy = 0

@<TRIPOS>ATOM
      1 C          -0.3960    0.7250    0.0000 C.ar    1  LIG1        0.1542
      2 C           0.4040    0.1500    0.0000 C.ar    1  LIG1        0.1923
      3 N           1.3580    0.4710    0.0000 N.ar    1  LIG1       -0.2005
      4 C           1.9460   -0.3330    0.0000 C.ar    1  LIG1        0.2051
      5 N           2.9460   -0.3290    0.0000 N.am    1  LIG1       -0.1493
      6 C           3.4580   -1.1920    0.0000 C.2     1  LIG1        0.2708
      7 C           4.4580   -1.1790    0.0000 C.ar    1  LIG1        0.0563
      8 C           4.9420   -0.3170    0.0000 C.ar    1  LIG1        0.0160
      9 C           5.9420   -0.3040    0.0000 C.ar    1  LIG1        0.0578
     10 CL          6.4380    0.5630    0.0000 Cl      1  LIG1       -0.0822
     11 C           6.4500   -1.1750    0.0000 C.ar    1  LIG1        0.0114
     12 C           5.9580   -2.0420    0.0000 C.ar    1  LIG1        0.0010
     13 C           4.9580   -2.0420    0.0000 C.ar    1  LIG1        0.0046
     14 O           2.9630   -2.0580    0.0000 O.2     1  LIG1       -0.2679
     15 S           1.3710   -1.1500    0.0000 S.2     1  LIG1        0.0514
     16 N           0.4210   -0.8460    0.0000 N.ar    1  LIG1       -0.1855
     17 N          -0.4130    1.7290    0.0000 N.ar    1  LIG1       -0.1257
     18 N          -1.3790    2.0420    0.0000 N.ar    1  LIG1       -0.0598
     19 N          -1.9580    1.2170    0.0000 N.ar    1  LIG1       -0.2144
     20 C          -1.3500    0.4080    0.0000 C.ar    1  LIG1        0.0848
     21 C          -1.6540   -0.5460    0.0000 C.3     1  LIG1        0.0540
     22 C          -2.9540    1.2080    0.0000 C.ar    1  LIG1        0.0841
     23 C          -3.4580    2.0630    0.0000 C.ar    1  LIG1        0.0189
     24 C          -4.4580    2.0580    0.0000 C.ar    1  LIG1       -0.0027
     25 C          -4.9500    1.1790    0.0000 C.ar    1  LIG1       -0.0224
     26 C          -4.4380    0.3170    0.0000 C.ar    1  LIG1       -0.0027
     27 C          -3.4380    0.3380    0.0000 C.ar    1  LIG1        0.0189
     28 C          -5.9500    1.1630    0.0000 C.3     1  LIG1        0.0224
     29 C          -6.4500    2.0250    0.0000 C.3     1  LIG1        0.0047
     30 C          -6.4290    0.3040    0.0000 C.3     1  LIG1        0.0047
@<TRIPOS>BOND
     1     1     2    1
     2     1    17   ar
     3     1    20   ar
     4     2     3   ar
     5     2    16   ar
     6     3     4   ar
     7     4     5    1
     8     4    15   ar
     9     5     6   am
    10     6     7    1
    11     6    14    2
    12     7     8   ar
    13     7    13   ar
    14     8     9   ar
    15     9    10    1
    16     9    11   ar
    17    11    12   ar
    18    12    13   ar
    19    15    16   ar
    20    17    18   ar
    21    18    19   ar
    22    19    20   ar
    23    19    22    1
    24    20    21    1
    25    22    23   ar
    26    22    27   ar
    27    23    24   ar
    28    24    25   ar
    29    25    26   ar
    30    25    28    1
    31    26    27   ar
    32    28    29    1
    33    28    30    1
