@<TRIPOS>MOLECULE
36408_ChemDiv_K788-1262
 38 41 0 0 0
SMALL
GASTEIGER
Energy = 0

@<TRIPOS>ATOM
      1 S          -1.8330   -0.2630    0.0000 S.O2    1  LIG1       -0.0578
      2 C          -0.8330   -0.2460    0.0000 C.ar    1  LIG1        0.0895
      3 C          -0.3540    0.6290    0.0000 C.ar    1  LIG1        0.0216
      4 C           0.6460    0.6460    0.0000 C.ar    1  LIG1        0.0580
      5 C           1.1210    1.5290    0.0000 C.ar    1  LIG1        0.2030
      6 C           2.1380    1.5540    0.0000 C.ar    1  LIG1        0.1130
      7 C           2.6500    0.6920    0.0000 C.ar    1  LIG1        0.1066
      8 N           2.1670   -0.1960    0.0000 N.ar    1  LIG1       -0.2435
      9 C           1.1670   -0.2170    0.0000 C.ar    1  LIG1        0.0845
     10 C           0.6830   -1.0790    0.0000 C.ar    1  LIG1        0.0205
     11 C          -0.3170   -1.1040    0.0000 C.ar    1  LIG1        0.0185
     12 C           2.6210    2.4330    0.0000 C.2     1  LIG1        0.2695
     13 O           2.1040    3.2790    0.0000 O.2     1  LIG1       -0.2682
     14 N           3.6210    2.4460    0.0000 N.am    1  LIG1       -0.1997
     15 C           4.1290    1.5830    0.0000 C.3     1  LIG1        0.1368
     16 C           3.6460    0.7210    0.0000 C.3     1  LIG1        0.1142
     17 N           4.1500   -0.1420    0.0000 N.pl3   1  LIG1       -0.3057
     18 C           5.1500   -0.1250    0.0000 C.ar    1  LIG1        0.0479
     19 C           5.6580   -0.9830    0.0000 C.ar    1  LIG1        0.0145
     20 C           6.6580   -0.9750    0.0000 C.ar    1  LIG1        0.0013
     21 C           7.1460   -0.0960    0.0000 C.ar    1  LIG1        0.0001
     22 C           6.6330    0.7670    0.0000 C.ar    1  LIG1        0.0013
     23 C           5.6330    0.7420    0.0000 C.ar    1  LIG1        0.0145
     24 C           3.6670   -1.0040    0.0000 C.3     1  LIG1        0.0909
     25 C           4.1750   -1.8670    0.0000 C.3     1  LIG1        0.0232
     26 O           0.6210    2.4000    0.0000 O.2     1  LIG1       -0.2863
     27 N          -2.8290   -0.2630    0.0000 N.pl3   1  LIG1       -0.5358
     28 C          -3.6960   -0.7710    0.0000 C.ar    1  LIG1       -0.1123
     29 C          -4.5580   -0.2710    0.0000 C.ar    1  LIG1       -0.0242
     30 C          -5.4210   -0.7710    0.0000 C.ar    1  LIG1       -0.0061
     31 C          -5.4210   -1.7750    0.0000 C.ar    1  LIG1       -0.0226
     32 C          -4.5580   -2.2750    0.0000 C.ar    1  LIG1       -0.0061
     33 C          -3.6960   -1.7750    0.0000 C.ar    1  LIG1       -0.0242
     34 C          -6.2830   -2.2750    0.0000 C.3     1  LIG1        0.0224
     35 C          -7.1460   -1.7750    0.0000 C.3     1  LIG1        0.0047
     36 C          -6.2830   -3.2750    0.0000 C.3     1  LIG1        0.0047
     37 O          -1.8330    0.7210    0.0000 O.2     1  LIG1       -0.1842
     38 O          -1.8380   -1.2630    0.0000 O.2     1  LIG1       -0.1842
@<TRIPOS>BOND
     1     1     2    1
     2     1    27    1
     3     1    37    2
     4     1    38    2
     5     2     3   ar
     6     2    11   ar
     7     3     4   ar
     8     4     5   ar
     9     4     9   ar
    10     5     6   ar
    11     5    26    2
    12     6     7   ar
    13     6    12    1
    14     7     8   ar
    15     8     9   ar
    16     9    10   ar
    17    10    11   ar
    18    12    13    2
    19    12    14   am
    20    14    15    1
    21    15    16    1
    22    16    17    1
    23    17    18    1
    24    17    24    1
    25    18    19   ar
    26    18    23   ar
    27    19    20   ar
    28    20    21   ar
    29    21    22   ar
    30    22    23   ar
    31    24    25    1
    32    27    28    1
    33    28    29   ar
    34    28    33   ar
    35    29    30   ar
    36    30    31   ar
    37    31    32   ar
    38    31    34    1
    39    32    33   ar
    40    34    35    1
    41    34    36    1
