@<TRIPOS>MOLECULE
36407_ChemDiv_C718-1542
 30 34 0 0 0
SMALL
GASTEIGER
Energy = 0

@<TRIPOS>ATOM
      1 C          -0.6170   -1.2290    0.0000 C.ar    1  LIG1        0.2040
      2 C           0.1250   -1.9000    0.0000 C.ar    1  LIG1        0.2490
      3 S           1.1040   -1.7000    0.0000 S.O2    1  LIG1        0.0486
      4 C           2.0630   -1.4290    0.0000 C.ar    1  LIG1        0.1118
      5 C           2.7750   -2.1380    0.0000 C.ar    1  LIG1        0.0142
      6 C           3.7290   -1.8710    0.0000 C.ar    1  LIG1       -0.0245
      7 C           3.9880   -0.9000    0.0000 C.ar    1  LIG1       -0.0257
      8 C           3.2710   -0.2040    0.0000 C.ar    1  LIG1       -0.0032
      9 C           2.3170   -0.4710    0.0000 C.ar    1  LIG1        0.0185
     10 C           4.9420   -0.6290    0.0000 C.3     1  LIG1        0.0307
     11 C           4.4420   -2.5750    0.0000 C.3     1  LIG1        0.0307
     12 O           0.8670   -0.7290    0.0000 O.2     1  LIG1       -0.1626
     13 O           1.3380   -2.6670    0.0000 O.2     1  LIG1       -0.1626
     14 N          -0.2830   -2.8210    0.0000 N.ar    1  LIG1       -0.1076
     15 N          -1.2830   -2.7040    0.0000 N.ar    1  LIG1       -0.0569
     16 N          -1.4830   -1.7290    0.0000 N.ar    1  LIG1       -0.1914
     17 C          -2.3580   -1.2210    0.0000 C.ar    1  LIG1        0.0888
     18 C          -2.3460   -0.2210    0.0000 C.ar    1  LIG1        0.0503
     19 C          -1.4830    0.2790    0.0000 C.ar    1  LIG1        0.1348
     20 N          -0.6170   -0.2210    0.0000 N.ar    1  LIG1       -0.2091
     21 N          -1.4830    1.2790    0.0000 N.pl3   1  LIG1       -0.2932
     22 C          -2.2960    1.8710    0.0000 C.3     1  LIG1        0.0922
     23 C          -1.9920    2.8250    0.0000 C.3     1  LIG1        0.0232
     24 C          -0.9960    2.8250    0.0000 C.3     1  LIG1        0.0232
     25 C          -0.6790    1.8710    0.0000 C.3     1  LIG1        0.0922
     26 C          -3.2210    0.2790    0.0000 C.ar    1  LIG1        0.0157
     27 C          -4.0830   -0.2290    0.0000 C.ar    1  LIG1        0.0579
     28 C          -4.0830   -1.2290    0.0000 C.ar    1  LIG1        0.0129
     29 C          -3.2210   -1.7290    0.0000 C.ar    1  LIG1        0.0202
     30 CL         -4.9460    0.2790    0.0000 Cl      1  LIG1       -0.0822
@<TRIPOS>BOND
     1     1     2   ar
     2     1    16   ar
     3     1    20   ar
     4     2     3    1
     5     2    14   ar
     6     3     4    1
     7     3    12    2
     8     3    13    2
     9     4     5   ar
    10     4     9   ar
    11     5     6   ar
    12     6     7   ar
    13     6    11    1
    14     7     8   ar
    15     7    10    1
    16     8     9   ar
    17    14    15   ar
    18    15    16   ar
    19    16    17   ar
    20    17    18   ar
    21    17    29   ar
    22    18    19   ar
    23    18    26   ar
    24    19    20   ar
    25    19    21    1
    26    21    22    1
    27    21    25    1
    28    22    23    1
    29    23    24    1
    30    24    25    1
    31    26    27   ar
    32    27    28   ar
    33    27    30    1
    34    28    29   ar
