@<TRIPOS>MOLECULE
36405_ChemDiv_C718-1510
 31 34 0 0 0
SMALL
GASTEIGER
Energy = 0

@<TRIPOS>ATOM
      1 C          -0.6170   -1.9580    0.0000 C.ar    1  LIG1        0.2040
      2 C           0.1250   -2.6250    0.0000 C.ar    1  LIG1        0.2490
      3 S           1.1040   -2.4290    0.0000 S.O2    1  LIG1        0.0486
      4 C           2.0670   -2.1670    0.0000 C.ar    1  LIG1        0.1118
      5 C           2.7750   -2.8670    0.0000 C.ar    1  LIG1        0.0142
      6 C           3.7290   -2.6040    0.0000 C.ar    1  LIG1       -0.0245
      7 C           3.9880   -1.6380    0.0000 C.ar    1  LIG1       -0.0257
      8 C           3.2710   -0.9290    0.0000 C.ar    1  LIG1       -0.0032
      9 C           2.3170   -1.2000    0.0000 C.ar    1  LIG1        0.0185
     10 C           4.9420   -1.3670    0.0000 C.3     1  LIG1        0.0307
     11 C           4.4420   -3.3040    0.0000 C.3     1  LIG1        0.0307
     12 O           0.8670   -1.4540    0.0000 O.2     1  LIG1       -0.1626
     13 O           1.3380   -3.3960    0.0000 O.2     1  LIG1       -0.1626
     14 N          -0.2830   -3.5500    0.0000 N.ar    1  LIG1       -0.1076
     15 N          -1.2830   -3.4380    0.0000 N.ar    1  LIG1       -0.0569
     16 N          -1.4830   -2.4580    0.0000 N.ar    1  LIG1       -0.1914
     17 C          -2.3580   -1.9540    0.0000 C.ar    1  LIG1        0.0888
     18 C          -2.3460   -0.9540    0.0000 C.ar    1  LIG1        0.0503
     19 C          -1.4830   -0.4460    0.0000 C.ar    1  LIG1        0.1349
     20 N          -0.6170   -0.9540    0.0000 N.ar    1  LIG1       -0.2091
     21 N          -1.4830    0.5540    0.0000 N.pl3   1  LIG1       -0.2914
     22 C          -0.6170    1.0540    0.0000 C.3     1  LIG1        0.0922
     23 C          -0.6170    2.0540    0.0000 C.3     1  LIG1        0.0215
     24 C           0.2460    2.5540    0.0000 C.3     1  LIG1        0.0018
     25 C           0.2460    3.5540    0.0000 C.3     1  LIG1        0.0001
     26 C          -2.3460    1.0540    0.0000 C.3     1  LIG1        0.1136
     27 C          -3.2210   -0.4540    0.0000 C.ar    1  LIG1        0.0157
     28 C          -4.0830   -0.9540    0.0000 C.ar    1  LIG1        0.0579
     29 C          -4.0830   -1.9580    0.0000 C.ar    1  LIG1        0.0129
     30 C          -3.2210   -2.4580    0.0000 C.ar    1  LIG1        0.0202
     31 CL         -4.9460   -0.4540    0.0000 Cl      1  LIG1       -0.0822
@<TRIPOS>BOND
     1     1     2   ar
     2     1    16   ar
     3     1    20   ar
     4     2     3    1
     5     2    14   ar
     6     3     4    1
     7     3    12    2
     8     3    13    2
     9     4     5   ar
    10     4     9   ar
    11     5     6   ar
    12     6     7   ar
    13     6    11    1
    14     7     8   ar
    15     7    10    1
    16     8     9   ar
    17    14    15   ar
    18    15    16   ar
    19    16    17   ar
    20    17    18   ar
    21    17    30   ar
    22    18    19   ar
    23    18    27   ar
    24    19    20   ar
    25    19    21    1
    26    21    22    1
    27    21    26    1
    28    22    23    1
    29    23    24    1
    30    24    25    1
    31    27    28   ar
    32    28    29   ar
    33    28    31    1
    34    29    30   ar
