@<TRIPOS>MOLECULE
36406_ChemDiv_K788-1247
 35 38 0 0 0
SMALL
GASTEIGER
Energy = 0

@<TRIPOS>ATOM
      1 C           2.1460    1.5080    0.0000 C.ar    1  LIG1        0.1115
      2 C           1.1290    1.4960    0.0000 C.ar    1  LIG1        0.2029
      3 C           0.6540    0.6040    0.0000 C.ar    1  LIG1        0.0580
      4 C          -0.3460    0.5830    0.0000 C.ar    1  LIG1        0.0216
      5 C          -0.8250   -0.2880    0.0000 C.ar    1  LIG1        0.0895
      6 S          -1.8250   -0.3080    0.0000 S.O2    1  LIG1       -0.0578
      7 N          -2.8250   -0.3080    0.0000 N.pl3   1  LIG1       -0.5358
      8 C          -3.6880   -0.8080    0.0000 C.ar    1  LIG1       -0.1123
      9 C          -4.5540   -0.3080    0.0000 C.ar    1  LIG1       -0.0242
     10 C          -5.4170   -0.8170    0.0000 C.ar    1  LIG1       -0.0061
     11 C          -5.4170   -1.8170    0.0000 C.ar    1  LIG1       -0.0226
     12 C          -4.5540   -2.3210    0.0000 C.ar    1  LIG1       -0.0061
     13 C          -3.6880   -1.8170    0.0000 C.ar    1  LIG1       -0.0242
     14 C          -6.2790   -2.3210    0.0000 C.3     1  LIG1        0.0224
     15 C          -6.2790   -3.3080    0.0000 C.3     1  LIG1        0.0047
     16 C          -7.1460   -1.8170    0.0000 C.3     1  LIG1        0.0047
     17 O          -1.8250    0.6750    0.0000 O.2     1  LIG1       -0.1842
     18 O          -1.8290   -1.3080    0.0000 O.2     1  LIG1       -0.1842
     19 C          -0.3080   -1.1420    0.0000 C.ar    1  LIG1        0.0185
     20 C           0.6920   -1.1290    0.0000 C.ar    1  LIG1        0.0205
     21 C           1.1750   -0.2580    0.0000 C.ar    1  LIG1        0.0845
     22 N           2.1750   -0.2330    0.0000 N.ar    1  LIG1       -0.2435
     23 C           2.6580    0.6460    0.0000 C.ar    1  LIG1        0.1065
     24 O           0.6290    2.3580    0.0000 O.2     1  LIG1       -0.2863
     25 C           2.6290    2.3880    0.0000 C.2     1  LIG1        0.2537
     26 N           3.6290    2.4040    0.0000 N.am    1  LIG1       -0.2759
     27 C           4.1080    3.2710    0.0000 C.3     1  LIG1        0.0942
     28 C           5.1130    3.2830    0.0000 C.3     1  LIG1        0.0307
     29 C           5.6290    2.4250    0.0000 C.3     1  LIG1        0.0833
     30 C           6.6290    2.4380    0.0000 C.2     1  LIG1        0.2604
     31 O           7.1170    3.3130    0.0000 O.2     1  LIG1       -0.2717
     32 N           7.1460    1.5830    0.0000 N.am    1  LIG1       -0.0878
     33 C           5.1420    1.5540    0.0000 C.3     1  LIG1        0.0307
     34 C           4.1460    1.5420    0.0000 C.3     1  LIG1        0.0942
     35 O           2.1130    3.2380    0.0000 O.2     1  LIG1       -0.2697
@<TRIPOS>BOND
     1     1     2   ar
     2     1    23   ar
     3     1    25    1
     4     2     3   ar
     5     2    24    2
     6     3     4   ar
     7     3    21   ar
     8     4     5   ar
     9     5     6    1
    10     5    19   ar
    11     6     7    1
    12     6    17    2
    13     6    18    2
    14     7     8    1
    15     8     9   ar
    16     8    13   ar
    17     9    10   ar
    18    10    11   ar
    19    11    12   ar
    20    11    14    1
    21    12    13   ar
    22    14    15    1
    23    14    16    1
    24    19    20   ar
    25    20    21   ar
    26    21    22   ar
    27    22    23   ar
    28    25    26   am
    29    25    35    2
    30    26    27    1
    31    26    34    1
    32    27    28    1
    33    28    29    1
    34    29    30    1
    35    29    33    1
    36    30    31    2
    37    30    32   am
    38    33    34    1
