@<TRIPOS>MOLECULE
36403_ChemDiv_C718-1387
 31 34 0 0 0
SMALL
GASTEIGER
Energy = 0

@<TRIPOS>ATOM
      1 C          -0.9750   -1.9580    0.0000 C.ar    1  LIG1        0.2040
      2 C          -0.2330   -2.6250    0.0000 C.ar    1  LIG1        0.2490
      3 S           0.7460   -2.4290    0.0000 S.O2    1  LIG1        0.0486
      4 C           1.7040   -2.1670    0.0000 C.ar    1  LIG1        0.1121
      5 C           2.4170   -2.8670    0.0000 C.ar    1  LIG1        0.0185
      6 C           3.3710   -2.6040    0.0000 C.ar    1  LIG1       -0.0029
      7 C           3.6250   -1.6380    0.0000 C.ar    1  LIG1       -0.0221
      8 C           2.9080   -0.9290    0.0000 C.ar    1  LIG1       -0.0029
      9 C           1.9540   -1.2000    0.0000 C.ar    1  LIG1        0.0185
     10 C           4.5790   -1.3670    0.0000 C.3     1  LIG1        0.0264
     11 C           5.3000   -2.0630    0.0000 C.3     1  LIG1        0.0050
     12 O           0.9750   -3.3960    0.0000 O.2     1  LIG1       -0.1626
     13 O           0.5080   -1.4540    0.0000 O.2     1  LIG1       -0.1626
     14 N          -0.6420   -3.5500    0.0000 N.ar    1  LIG1       -0.1076
     15 N          -1.6420   -3.4380    0.0000 N.ar    1  LIG1       -0.0569
     16 N          -1.8460   -2.4580    0.0000 N.ar    1  LIG1       -0.1914
     17 C          -2.7170   -1.9540    0.0000 C.ar    1  LIG1        0.0888
     18 C          -2.7080   -0.9540    0.0000 C.ar    1  LIG1        0.0503
     19 C          -1.8460   -0.4460    0.0000 C.ar    1  LIG1        0.1349
     20 N          -0.9750   -0.9540    0.0000 N.ar    1  LIG1       -0.2091
     21 N          -1.8460    0.5540    0.0000 N.pl3   1  LIG1       -0.2914
     22 C          -0.9750    1.0540    0.0000 C.3     1  LIG1        0.0922
     23 C          -0.9750    2.0540    0.0000 C.3     1  LIG1        0.0215
     24 C          -0.1130    2.5540    0.0000 C.3     1  LIG1        0.0018
     25 C          -0.1130    3.5540    0.0000 C.3     1  LIG1        0.0001
     26 C          -2.7080    1.0540    0.0000 C.3     1  LIG1        0.1136
     27 C          -3.5790   -0.4540    0.0000 C.ar    1  LIG1        0.0157
     28 C          -4.4420   -0.9540    0.0000 C.ar    1  LIG1        0.0579
     29 C          -4.4420   -1.9580    0.0000 C.ar    1  LIG1        0.0129
     30 C          -3.5790   -2.4580    0.0000 C.ar    1  LIG1        0.0202
     31 CL         -5.3040   -0.4540    0.0000 Cl      1  LIG1       -0.0822
@<TRIPOS>BOND
     1     1     2   ar
     2     1    16   ar
     3     1    20   ar
     4     2     3    1
     5     2    14   ar
     6     3     4    1
     7     3    12    2
     8     3    13    2
     9     4     5   ar
    10     4     9   ar
    11     5     6   ar
    12     6     7   ar
    13     7     8   ar
    14     7    10    1
    15     8     9   ar
    16    10    11    1
    17    14    15   ar
    18    15    16   ar
    19    16    17   ar
    20    17    18   ar
    21    17    30   ar
    22    18    19   ar
    23    18    27   ar
    24    19    20   ar
    25    19    21    1
    26    21    22    1
    27    21    26    1
    28    22    23    1
    29    23    24    1
    30    24    25    1
    31    27    28   ar
    32    28    29   ar
    33    28    31    1
    34    29    30   ar
