@<TRIPOS>MOLECULE
36401_ChemDiv_C718-1383
 32 35 0 0 0
SMALL
GASTEIGER
Energy = 0

@<TRIPOS>ATOM
      1 C          -0.9750   -2.2040    0.0000 C.ar    1  LIG1        0.2041
      2 C          -0.2330   -2.8830    0.0000 C.ar    1  LIG1        0.2490
      3 S           0.7460   -2.6750    0.0000 S.O2    1  LIG1        0.0486
      4 C           1.7040   -2.4170    0.0000 C.ar    1  LIG1        0.1121
      5 C           2.4170   -3.1130    0.0000 C.ar    1  LIG1        0.0185
      6 C           3.3710   -2.8580    0.0000 C.ar    1  LIG1       -0.0029
      7 C           3.6290   -1.8880    0.0000 C.ar    1  LIG1       -0.0221
      8 C           2.9130   -1.1830    0.0000 C.ar    1  LIG1       -0.0029
      9 C           1.9580   -1.4460    0.0000 C.ar    1  LIG1        0.0185
     10 C           4.5830   -1.6130    0.0000 C.3     1  LIG1        0.0264
     11 C           5.3080   -2.3130    0.0000 C.3     1  LIG1        0.0050
     12 O           0.5080   -1.7040    0.0000 O.2     1  LIG1       -0.1626
     13 O           0.9790   -3.6460    0.0000 O.2     1  LIG1       -0.1626
     14 N          -0.6420   -3.7960    0.0000 N.ar    1  LIG1       -0.1076
     15 N          -1.6420   -3.6920    0.0000 N.ar    1  LIG1       -0.0569
     16 N          -1.8460   -2.7040    0.0000 N.ar    1  LIG1       -0.1914
     17 C          -2.7210   -2.2040    0.0000 C.ar    1  LIG1        0.0889
     18 C          -2.7080   -1.2040    0.0000 C.ar    1  LIG1        0.0517
     19 C          -1.8460   -0.7000    0.0000 C.ar    1  LIG1        0.1507
     20 N          -0.9750   -1.2040    0.0000 N.ar    1  LIG1       -0.2076
     21 N          -1.8460    0.3000    0.0000 N.pl3   1  LIG1       -0.2183
     22 C          -0.9750    0.8000    0.0000 C.3     1  LIG1        0.1372
     23 C          -0.9750    1.8000    0.0000 C.3     1  LIG1        0.1385
     24 N          -0.1130    2.3000    0.0000 N.am    1  LIG1       -0.2035
     25 C          -0.1130    3.3000    0.0000 C.2     1  LIG1        0.2419
     26 O          -0.9750    3.8000    0.0000 O.2     1  LIG1       -0.2733
     27 C           0.7500    3.8000    0.0000 C.3     1  LIG1        0.0964
     28 C          -3.5830   -0.7040    0.0000 C.ar    1  LIG1        0.0157
     29 C          -4.4460   -1.2040    0.0000 C.ar    1  LIG1        0.0579
     30 C          -4.4460   -2.2040    0.0000 C.ar    1  LIG1        0.0129
     31 C          -3.5830   -2.7040    0.0000 C.ar    1  LIG1        0.0202
     32 CL         -5.3130   -0.7040    0.0000 Cl      1  LIG1       -0.0822
@<TRIPOS>BOND
     1     1     2   ar
     2     1    16   ar
     3     1    20   ar
     4     2     3    1
     5     2    14   ar
     6     3     4    1
     7     3    12    2
     8     3    13    2
     9     4     5   ar
    10     4     9   ar
    11     5     6   ar
    12     6     7   ar
    13     7     8   ar
    14     7    10    1
    15     8     9   ar
    16    10    11    1
    17    14    15   ar
    18    15    16   ar
    19    16    17   ar
    20    17    18   ar
    21    17    31   ar
    22    18    19   ar
    23    18    28   ar
    24    19    20   ar
    25    19    21    1
    26    21    22    1
    27    22    23    1
    28    23    24    1
    29    24    25   am
    30    25    26    2
    31    25    27    1
    32    28    29   ar
    33    29    30   ar
    34    29    32    1
    35    30    31   ar
