@<TRIPOS>MOLECULE
36414_ChemDiv_K788-4722
 34 38 0 0 0
SMALL
GASTEIGER
Energy = 0

@<TRIPOS>ATOM
      1 S          -1.6630    1.0790    0.0000 S.O2    1  LIG1       -0.0578
      2 C          -0.7960    0.5750    0.0000 C.ar    1  LIG1        0.0895
      3 C           0.0630    1.0790    0.0000 C.ar    1  LIG1        0.0216
      4 C           0.9330    0.5830    0.0000 C.ar    1  LIG1        0.0580
      5 C           1.7960    1.0960    0.0000 C.ar    1  LIG1        0.2030
      6 C           2.6790    0.5830    0.0000 C.ar    1  LIG1        0.1130
      7 C           2.6790   -0.4250    0.0000 C.ar    1  LIG1        0.1066
      8 N           1.7960   -0.9250    0.0000 N.ar    1  LIG1       -0.2435
      9 C           0.9290   -0.4250    0.0000 C.ar    1  LIG1        0.0845
     10 C           0.0630   -0.9250    0.0000 C.ar    1  LIG1        0.0205
     11 C          -0.7960   -0.4210    0.0000 C.ar    1  LIG1        0.0185
     12 C           3.5420    1.0790    0.0000 C.2     1  LIG1        0.2695
     13 N           4.4040    0.5750    0.0000 N.am    1  LIG1       -0.1989
     14 C           4.4040   -0.4130    0.0000 C.3     1  LIG1        0.1448
     15 C           5.2630   -0.9040    0.0000 C.3     1  LIG1        0.1369
     16 O           5.3790   -1.8920    0.0000 O.3     1  LIG1       -0.3544
     17 C           6.3540   -2.0920    0.0000 C.3     1  LIG1        0.1422
     18 C           6.8500   -1.2330    0.0000 C.3     1  LIG1        0.0346
     19 C           6.1790   -0.4920    0.0000 C.3     1  LIG1        0.0340
     20 O           3.5540    2.0830    0.0000 O.2     1  LIG1       -0.2682
     21 O           1.7960    2.0960    0.0000 O.2     1  LIG1       -0.2863
     22 N          -2.5210    1.5960    0.0000 N.pl3   1  LIG1       -0.5357
     23 C          -3.3880    1.1040    0.0000 C.ar    1  LIG1       -0.1091
     24 C          -4.2500    1.6170    0.0000 C.ar    1  LIG1        0.0162
     25 C          -5.1210    1.1210    0.0000 C.ar    1  LIG1        0.1706
     26 C          -5.1210    0.1250    0.0000 C.ar    1  LIG1        0.1723
     27 O          -5.9880   -0.3790    0.0000 O.3     1  LIG1       -0.4684
     28 C          -6.8500    0.1250    0.0000 C.3     1  LIG1        0.2526
     29 C          -6.8500    1.1290    0.0000 C.3     1  LIG1        0.2526
     30 O          -5.9790    1.6250    0.0000 O.3     1  LIG1       -0.4684
     31 C          -4.2580   -0.3790    0.0000 C.ar    1  LIG1        0.0382
     32 C          -3.3920    0.1170    0.0000 C.ar    1  LIG1       -0.0205
     33 O          -2.1880    0.2170    0.0000 O.2     1  LIG1       -0.1842
     34 O          -1.1500    1.9250    0.0000 O.2     1  LIG1       -0.1842
@<TRIPOS>BOND
     1     1     2    1
     2     1    22    1
     3     1    33    2
     4     1    34    2
     5     2     3   ar
     6     2    11   ar
     7     3     4   ar
     8     4     5   ar
     9     4     9   ar
    10     5     6   ar
    11     5    21    2
    12     6     7   ar
    13     6    12    1
    14     7     8   ar
    15     8     9   ar
    16     9    10   ar
    17    10    11   ar
    18    12    13   am
    19    12    20    2
    20    13    14    1
    21    14    15    1
    22    15    16    1
    23    15    19    1
    24    16    17    1
    25    17    18    1
    26    18    19    1
    27    22    23    1
    28    23    24   ar
    29    23    32   ar
    30    24    25   ar
    31    25    26   ar
    32    25    30    1
    33    26    27    1
    34    26    31   ar
    35    27    28    1
    36    28    29    1
    37    29    30    1
    38    31    32   ar
