@<TRIPOS>MOLECULE
36412_ChemDiv_K788-4709
 35 39 0 0 0
SMALL
GASTEIGER
Energy = 0

@<TRIPOS>ATOM
      1 S          -0.9630    1.3130    0.0000 S.O2    1  LIG1       -0.0578
      2 C          -0.0960    0.8080    0.0000 C.ar    1  LIG1        0.0895
      3 C           0.7710    1.3130    0.0000 C.ar    1  LIG1        0.0216
      4 C           1.6380    0.8130    0.0000 C.ar    1  LIG1        0.0580
      5 C           2.5040    1.3250    0.0000 C.ar    1  LIG1        0.2030
      6 C           3.3830    0.8130    0.0000 C.ar    1  LIG1        0.1130
      7 C           4.2500    1.3080    0.0000 C.2     1  LIG1        0.2694
      8 N           5.1130    0.8080    0.0000 N.am    1  LIG1       -0.2033
      9 C           5.1130   -0.1880    0.0000 C.3     1  LIG1        0.0956
     10 C           4.1580   -0.5920    0.0000 C.3     1  LIG1        0.0217
     11 C           3.8330   -1.3960    0.0000 C.3     1  LIG1        0.0018
     12 C           4.3750   -2.2460    0.0000 C.3     1  LIG1        0.0001
     13 C           5.4290   -2.3250    0.0000 C.3     1  LIG1        0.0001
     14 C           6.1500   -1.5380    0.0000 C.3     1  LIG1        0.0018
     15 C           5.9330   -0.5460    0.0000 C.3     1  LIG1        0.0217
     16 O           4.2580    2.3130    0.0000 O.2     1  LIG1       -0.2682
     17 C           3.3830   -0.2000    0.0000 C.ar    1  LIG1        0.1066
     18 N           2.5040   -0.7000    0.0000 N.ar    1  LIG1       -0.2435
     19 C           1.6290   -0.2000    0.0000 C.ar    1  LIG1        0.0845
     20 C           0.7710   -0.6920    0.0000 C.ar    1  LIG1        0.0205
     21 C          -0.0960   -0.1920    0.0000 C.ar    1  LIG1        0.0185
     22 O           2.5040    2.3290    0.0000 O.2     1  LIG1       -0.2863
     23 N          -1.8210    1.8290    0.0000 N.pl3   1  LIG1       -0.5357
     24 C          -2.6830    1.3330    0.0000 C.ar    1  LIG1       -0.1091
     25 C          -3.5500    1.8460    0.0000 C.ar    1  LIG1        0.0162
     26 C          -4.4210    1.3500    0.0000 C.ar    1  LIG1        0.1706
     27 C          -4.4210    0.3500    0.0000 C.ar    1  LIG1        0.1723
     28 O          -5.2880   -0.1540    0.0000 O.3     1  LIG1       -0.4684
     29 C          -6.1500    0.3580    0.0000 C.3     1  LIG1        0.2526
     30 C          -6.1500    1.3540    0.0000 C.3     1  LIG1        0.2526
     31 O          -5.2790    1.8500    0.0000 O.3     1  LIG1       -0.4684
     32 C          -3.5540   -0.1540    0.0000 C.ar    1  LIG1        0.0382
     33 C          -2.6920    0.3420    0.0000 C.ar    1  LIG1       -0.0205
     34 O          -1.4830    0.4460    0.0000 O.2     1  LIG1       -0.1842
     35 O          -0.4500    2.1540    0.0000 O.2     1  LIG1       -0.1842
@<TRIPOS>BOND
     1     1     2    1
     2     1    23    1
     3     1    34    2
     4     1    35    2
     5     2     3   ar
     6     2    21   ar
     7     3     4   ar
     8     4     5   ar
     9     4    19   ar
    10     5     6   ar
    11     5    22    2
    12     6     7    1
    13     6    17   ar
    14     7     8   am
    15     7    16    2
    16     8     9    1
    17     9    10    1
    18     9    15    1
    19    10    11    1
    20    11    12    1
    21    12    13    1
    22    13    14    1
    23    14    15    1
    24    17    18   ar
    25    18    19   ar
    26    19    20   ar
    27    20    21   ar
    28    23    24    1
    29    24    25   ar
    30    24    33   ar
    31    25    26   ar
    32    26    27   ar
    33    26    31    1
    34    27    28    1
    35    27    32   ar
    36    28    29    1
    37    29    30    1
    38    30    31    1
    39    32    33   ar
