@<TRIPOS>MOLECULE
36418_ChemDiv_C243-0386
 29 33 0 0 0
SMALL
GASTEIGER
Energy = 0

@<TRIPOS>ATOM
      1 C          -1.2960    2.1000    0.0000 C.ar    1  LIG1        0.0810
      2 C          -1.2960    1.1000    0.0000 C.ar    1  LIG1        0.1170
      3 N          -2.1710    0.6040    0.0000 N.ar    1  LIG1       -0.2215
      4 C          -3.0380    1.1040    0.0000 C.ar    1  LIG1        0.1464
      5 N          -3.0250    2.1040    0.0000 N.ar    1  LIG1       -0.2580
      6 C          -2.1630    2.6170    0.0000 C.ar    1  LIG1        0.2677
      7 O          -2.1580    3.6080    0.0000 O.2     1  LIG1       -0.2665
      8 C          -3.8920    2.6170    0.0000 C.ar    1  LIG1        0.0843
      9 C          -4.7540    2.1040    0.0000 C.ar    1  LIG1        0.0189
     10 C          -4.7540    1.1040    0.0000 C.ar    1  LIG1        0.0003
     11 C          -3.8920    0.6130    0.0000 C.ar    1  LIG1        0.0127
     12 C          -3.8880   -0.3880    0.0000 C.3     1  LIG1        0.0342
     13 S          -0.3500    0.7960    0.0000 S.2     1  LIG1       -0.0632
     14 C           0.2420    1.6000    0.0000 C.ar    1  LIG1        0.0846
     15 C          -0.3420    2.4130    0.0000 C.ar    1  LIG1        0.0179
     16 C           1.2420    1.6000    0.0000 C.2     1  LIG1        0.2553
     17 N           1.7460    0.7330    0.0000 N.am    1  LIG1       -0.2712
     18 C           1.2380   -0.1290    0.0000 C.3     1  LIG1        0.1199
     19 C           1.7460   -0.9960    0.0000 C.2     1  LIG1       -0.0089
     20 C           2.7460   -0.9960    0.0000 C.2     1  LIG1       -0.0231
     21 C           3.2330   -0.1290    0.0000 C.3     1  LIG1        0.0476
     22 C           2.7290    0.7330    0.0000 C.3     1  LIG1        0.0987
     23 C           3.2420   -1.8710    0.0000 C.ar    1  LIG1       -0.0042
     24 C           2.7420   -2.7420    0.0000 C.ar    1  LIG1       -0.0003
     25 C           3.2460   -3.6040    0.0000 C.ar    1  LIG1       -0.0000
     26 C           4.2500   -3.6040    0.0000 C.ar    1  LIG1       -0.0000
     27 C           4.7500   -2.7250    0.0000 C.ar    1  LIG1       -0.0000
     28 C           4.2420   -1.8710    0.0000 C.ar    1  LIG1       -0.0003
     29 O           1.7460    2.4670    0.0000 O.2     1  LIG1       -0.2693
@<TRIPOS>BOND
     1     1     2   ar
     2     1     6   ar
     3     1    15   ar
     4     2     3   ar
     5     2    13   ar
     6     3     4   ar
     7     4     5   ar
     8     4    11   ar
     9     5     6   ar
    10     5     8   ar
    11     6     7    2
    12     8     9   ar
    13     9    10   ar
    14    10    11   ar
    15    11    12    1
    16    13    14   ar
    17    14    15   ar
    18    14    16    1
    19    16    17   am
    20    16    29    2
    21    17    18    1
    22    17    22    1
    23    18    19    1
    24    19    20    2
    25    20    21    1
    26    20    23    1
    27    21    22    1
    28    23    24   ar
    29    23    28   ar
    30    24    25   ar
    31    25    26   ar
    32    26    27   ar
    33    27    28   ar
