@<TRIPOS>MOLECULE
36413_ChemDiv_C718-2372
 35 39 0 0 0
SMALL
GASTEIGER
Energy = 0

@<TRIPOS>ATOM
      1 C          -0.6170   -2.7250    0.0000 C.ar    1  LIG1        0.2041
      2 C           0.1250   -3.3960    0.0000 C.ar    1  LIG1        0.2490
      3 S           1.1040   -3.1920    0.0000 S.O2    1  LIG1        0.0486
      4 C           2.0670   -2.9250    0.0000 C.ar    1  LIG1        0.1118
      5 C           2.7790   -3.6330    0.0000 C.ar    1  LIG1        0.0142
      6 C           3.7330   -3.3670    0.0000 C.ar    1  LIG1       -0.0245
      7 C           3.9880   -2.3960    0.0000 C.ar    1  LIG1       -0.0257
      8 C           3.2710   -1.7000    0.0000 C.ar    1  LIG1       -0.0032
      9 C           2.3170   -1.9670    0.0000 C.ar    1  LIG1        0.0185
     10 C           4.9420   -2.1330    0.0000 C.3     1  LIG1        0.0307
     11 C           4.4420   -4.0710    0.0000 C.3     1  LIG1        0.0307
     12 O           1.3380   -4.1630    0.0000 O.2     1  LIG1       -0.1626
     13 O           0.8710   -2.2130    0.0000 O.2     1  LIG1       -0.1626
     14 N          -0.2830   -4.3130    0.0000 N.ar    1  LIG1       -0.1076
     15 N          -1.2830   -4.2000    0.0000 N.ar    1  LIG1       -0.0569
     16 N          -1.4830   -3.2250    0.0000 N.ar    1  LIG1       -0.1914
     17 C          -2.3580   -2.7130    0.0000 C.ar    1  LIG1        0.0889
     18 C          -2.3460   -1.7130    0.0000 C.ar    1  LIG1        0.0517
     19 C          -1.4830   -1.2170    0.0000 C.ar    1  LIG1        0.1507
     20 N          -0.6170   -1.7130    0.0000 N.ar    1  LIG1       -0.2076
     21 N          -1.4830   -0.2170    0.0000 N.pl3   1  LIG1       -0.2202
     22 C          -0.6170    0.2830    0.0000 C.3     1  LIG1        0.1156
     23 C          -0.6170    1.2830    0.0000 C.3     1  LIG1        0.0449
     24 C           0.2500    1.7830    0.0000 C.3     1  LIG1        0.0952
     25 N           0.2500    2.7830    0.0000 N.am    1  LIG1       -0.2795
     26 C           1.0500    3.3750    0.0000 C.2     1  LIG1        0.2257
     27 O           2.0040    3.0580    0.0000 O.2     1  LIG1       -0.2749
     28 C           0.7460    4.3130    0.0000 C.3     1  LIG1        0.0870
     29 C          -0.2500    4.3130    0.0000 C.3     1  LIG1        0.0311
     30 C          -0.5580    3.3750    0.0000 C.3     1  LIG1        0.0939
     31 C          -3.2210   -1.2170    0.0000 C.ar    1  LIG1        0.0157
     32 C          -4.0830   -1.7130    0.0000 C.ar    1  LIG1        0.0579
     33 C          -4.0830   -2.7250    0.0000 C.ar    1  LIG1        0.0129
     34 C          -3.2210   -3.2250    0.0000 C.ar    1  LIG1        0.0202
     35 CL         -4.9460   -1.2170    0.0000 Cl      1  LIG1       -0.0822
@<TRIPOS>BOND
     1     1     2   ar
     2     1    16   ar
     3     1    20   ar
     4     2     3    1
     5     2    14   ar
     6     3     4    1
     7     3    12    2
     8     3    13    2
     9     4     5   ar
    10     4     9   ar
    11     5     6   ar
    12     6     7   ar
    13     6    11    1
    14     7     8   ar
    15     7    10    1
    16     8     9   ar
    17    14    15   ar
    18    15    16   ar
    19    16    17   ar
    20    17    18   ar
    21    17    34   ar
    22    18    19   ar
    23    18    31   ar
    24    19    20   ar
    25    19    21    1
    26    21    22    1
    27    22    23    1
    28    23    24    1
    29    24    25    1
    30    25    26   am
    31    25    30    1
    32    26    27    2
    33    26    28    1
    34    28    29    1
    35    29    30    1
    36    31    32   ar
    37    32    33   ar
    38    32    35    1
    39    33    34   ar
