@<TRIPOS>MOLECULE
36423_ChemDiv_G193-0264
 29 32 0 0 0
SMALL
GASTEIGER
Energy = 0

@<TRIPOS>ATOM
      1 C          -1.6460    0.2920    0.0000 C.ar    1  LIG1        0.1542
      2 C          -0.8460   -0.2830    0.0000 C.ar    1  LIG1        0.1923
      3 N           0.1040    0.0330    0.0000 N.ar    1  LIG1       -0.2005
      4 C           0.6960   -0.7710    0.0000 C.ar    1  LIG1        0.2051
      5 N           1.6960   -0.7630    0.0000 N.am    1  LIG1       -0.1493
      6 C           2.2080   -1.6250    0.0000 C.2     1  LIG1        0.2707
      7 C           3.2040   -1.6170    0.0000 C.ar    1  LIG1        0.0555
      8 C           3.6920   -0.7540    0.0000 C.ar    1  LIG1        0.0051
      9 C           4.6880   -0.7380    0.0000 C.ar    1  LIG1        0.0068
     10 C           5.1960   -1.6130    0.0000 C.ar    1  LIG1        0.0346
     11 C           4.7040   -2.4790    0.0000 C.ar    1  LIG1        0.0068
     12 C           3.7040   -2.4790    0.0000 C.ar    1  LIG1        0.0051
     13 BR          6.1960   -1.6000    0.0000 Br      1  LIG1       -0.0490
     14 O           1.7080   -2.4920    0.0000 O.2     1  LIG1       -0.2679
     15 S           0.1210   -1.5880    0.0000 S.2     1  LIG1        0.0514
     16 N          -0.8330   -1.2830    0.0000 N.ar    1  LIG1       -0.1855
     17 C          -2.6000   -0.0290    0.0000 C.ar    1  LIG1        0.0848
     18 N          -3.2040    0.7790    0.0000 N.ar    1  LIG1       -0.2147
     19 N          -2.6290    1.6040    0.0000 N.ar    1  LIG1       -0.0598
     20 N          -1.6630    1.2920    0.0000 N.ar    1  LIG1       -0.1257
     21 C          -4.2040    0.7750    0.0000 C.ar    1  LIG1        0.0798
     22 C          -4.7080    1.6250    0.0000 C.ar    1  LIG1       -0.0041
     23 C          -5.7170    1.6210    0.0000 C.ar    1  LIG1       -0.0031
     24 C          -6.1960    0.7420    0.0000 C.ar    1  LIG1       -0.0045
     25 C          -5.6830   -0.1170    0.0000 C.ar    1  LIG1       -0.0204
     26 C          -4.6880   -0.1000    0.0000 C.ar    1  LIG1        0.0146
     27 C          -6.1670   -0.9920    0.0000 C.3     1  LIG1        0.0311
     28 C          -4.2170    2.4960    0.0000 C.3     1  LIG1        0.0326
     29 C          -2.9040   -0.9790    0.0000 C.3     1  LIG1        0.0540
@<TRIPOS>BOND
     1     1     2    1
     2     1    17   ar
     3     1    20   ar
     4     2     3   ar
     5     2    16   ar
     6     3     4   ar
     7     4     5    1
     8     4    15   ar
     9     5     6   am
    10     6     7    1
    11     6    14    2
    12     7     8   ar
    13     7    12   ar
    14     8     9   ar
    15     9    10   ar
    16    10    11   ar
    17    10    13    1
    18    11    12   ar
    19    15    16   ar
    20    17    18   ar
    21    17    29    1
    22    18    19   ar
    23    18    21    1
    24    19    20   ar
    25    21    22   ar
    26    21    26   ar
    27    22    23   ar
    28    22    28    1
    29    23    24   ar
    30    24    25   ar
    31    25    26   ar
    32    25    27    1
