@<TRIPOS>MOLECULE
36422_ChemDiv_K412-0015
 18 19 0 0 0
SMALL
GASTEIGER
Energy = 0

@<TRIPOS>ATOM
      1 C           0.8580   -1.0420    0.0000 C.ar    1  LIG1        0.4091
      2 N           1.6290   -1.4460    0.0000 N.am    1  LIG1        0.1628
      3 C           2.5170   -0.9830    0.0000 C.2     1  LIG1        0.4586
      4 O           3.0210   -1.8710    0.0000 O.2     1  LIG1       -0.2119
      5 C           2.7000    0.0460    0.0000 C.3     1  LIG1        0.1519
      6 C           1.9790    0.8170    0.0000 C.3     1  LIG1        0.0418
      7 C           0.9750    0.7000    0.0000 C.3     1  LIG1        0.1348
      8 N           0.5580   -0.0750    0.0000 N.ar    1  LIG1       -0.1849
      9 N          -0.4630   -0.0750    0.0000 N.ar    1  LIG1       -0.1510
     10 C          -0.7880   -1.0420    0.0000 C.ar    1  LIG1        0.1637
     11 S           0.0420   -1.6500    0.0000 S.2     1  LIG1        0.0349
     12 S          -1.7460   -1.3710    0.0000 S.3     1  LIG1       -0.0746
     13 C          -2.4960   -0.7040    0.0000 C.3     1  LIG1        0.1733
     14 C          -2.2830    0.2880    0.0000 C.2     1  LIG1        0.3285
     15 O          -3.0250    0.9500    0.0000 O.2     1  LIG1       -0.2491
     16 O          -1.3330    0.5880    0.0000 O.3     1  LIG1       -0.4479
     17 C          -1.1420    1.5580    0.0000 C.3     1  LIG1        0.2086
     18 C          -0.1830    1.8750    0.0000 C.3     1  LIG1        0.0513
@<TRIPOS>BOND
     1     1     2    2
     2     1     8   ar
     3     1    11   ar
     4     2     3   am
     5     3     4    2
     6     3     5    1
     7     5     6    1
     8     6     7    1
     9     7     8    1
    10     8     9   ar
    11     9    10   ar
    12    10    11   ar
    13    10    12    1
    14    12    13    1
    15    13    14    1
    16    14    15    2
    17    14    16    1
    18    16    17    1
    19    17    18    1
