@<TRIPOS>MOLECULE
36426_ChemDiv_K412-0049
 22 24 0 0 0
SMALL
GASTEIGER
Energy = 0

@<TRIPOS>ATOM
      1 C           0.8880   -2.1630    0.0000 C.ar    1  LIG1        0.4091
      2 N           1.6540   -2.5580    0.0000 N.am    1  LIG1        0.1628
      3 C           2.5380   -2.1040    0.0000 C.2     1  LIG1        0.4586
      4 O           3.0460   -2.9790    0.0000 O.2     1  LIG1       -0.2119
      5 C           2.7170   -1.0710    0.0000 C.3     1  LIG1        0.1519
      6 C           1.9920   -0.2880    0.0000 C.3     1  LIG1        0.0418
      7 C           0.9920   -0.4080    0.0000 C.3     1  LIG1        0.1348
      8 N           0.5710   -1.1920    0.0000 N.ar    1  LIG1       -0.1849
      9 N          -0.4420   -1.1920    0.0000 N.ar    1  LIG1       -0.1510
     10 C          -0.7670   -2.1630    0.0000 C.ar    1  LIG1        0.1636
     11 S           0.0670   -2.7540    0.0000 S.2     1  LIG1        0.0349
     12 S          -1.7290   -2.4790    0.0000 S.3     1  LIG1       -0.0766
     13 C          -2.4830   -1.8170    0.0000 C.3     1  LIG1        0.1510
     14 C          -2.2500   -0.7250    0.0000 C.2     1  LIG1        0.2587
     15 N          -1.3210   -0.4500    0.0000 N.am    1  LIG1       -0.1521
     16 C          -1.1080    0.4880    0.0000 C.ar    1  LIG1        0.2077
     17 S          -1.7580    1.2130    0.0000 S.2     1  LIG1       -0.0330
     18 C          -1.2580    2.0630    0.0000 C.ar    1  LIG1        0.1128
     19 N          -0.3080    1.8460    0.0000 N.ar    1  LIG1       -0.1440
     20 N          -0.2170    0.8750    0.0000 N.ar    1  LIG1       -0.1239
     21 C          -1.6670    2.9830    0.0000 C.3     1  LIG1        0.0614
     22 O          -3.0500   -0.0130    0.0000 O.2     1  LIG1       -0.2720
@<TRIPOS>BOND
     1     1     2    2
     2     1     8   ar
     3     1    11   ar
     4     2     3   am
     5     3     4    2
     6     3     5    1
     7     5     6    1
     8     6     7    1
     9     7     8    1
    10     8     9   ar
    11     9    10   ar
    12    10    11   ar
    13    10    12    1
    14    12    13    1
    15    13    14    1
    16    14    15   am
    17    14    22    2
    18    15    16    1
    19    16    17   ar
    20    16    20   ar
    21    17    18   ar
    22    18    19   ar
    23    18    21    1
    24    19    20   ar
