@<TRIPOS>MOLECULE
36424_ChemDiv_K412-0024
 26 28 0 0 0
SMALL
GASTEIGER
Energy = 0

@<TRIPOS>ATOM
      1 C          -2.2000    1.9630    0.0000 C.ar    1  LIG1        0.4091
      2 N          -3.0000    2.5580    0.0000 N.am    1  LIG1        0.1628
      3 C          -3.9670    2.3040    0.0000 C.2     1  LIG1        0.4586
      4 O          -4.6250    3.0710    0.0000 O.2     1  LIG1       -0.2119
      5 C          -4.3880    1.4040    0.0000 C.3     1  LIG1        0.1519
      6 C          -3.9210    0.5210    0.0000 C.3     1  LIG1        0.0418
      7 C          -2.9250    0.3250    0.0000 C.3     1  LIG1        0.1348
      8 N          -2.1670    0.9750    0.0000 N.ar    1  LIG1       -0.1849
      9 N          -1.2210    0.6880    0.0000 N.ar    1  LIG1       -0.1510
     10 C          -0.6460    1.5040    0.0000 C.ar    1  LIG1        0.1636
     11 S          -1.2500    2.2920    0.0000 S.2     1  LIG1        0.0349
     12 S           0.3500    1.4130    0.0000 S.3     1  LIG1       -0.0767
     13 C           0.9130    2.2330    0.0000 C.3     1  LIG1        0.1491
     14 C           1.9040    2.1540    0.0000 C.2     1  LIG1        0.2371
     15 N           2.3250    1.2330    0.0000 N.am    1  LIG1       -0.2753
     16 C           3.3290    1.1460    0.0000 C.3     1  LIG1        0.1150
     17 C           3.7500    0.2500    0.0000 C.3     1  LIG1        0.1182
     18 N           3.1920   -0.5750    0.0000 N.am    1  LIG1       -0.2425
     19 C           3.6290   -1.4830    0.0000 C.2     1  LIG1        0.4050
     20 O           4.6210   -1.5540    0.0000 O.2     1  LIG1       -0.2262
     21 O           3.0710   -2.3080    0.0000 O.3     1  LIG1       -0.4345
     22 C           2.0710   -2.2380    0.0000 C.3     1  LIG1        0.2102
     23 C           1.5250   -3.0670    0.0000 C.3     1  LIG1        0.0513
     24 C           2.1920   -0.5000    0.0000 C.3     1  LIG1        0.1182
     25 C           1.7580    0.4000    0.0000 C.3     1  LIG1        0.1150
     26 O           2.4920    2.9830    0.0000 O.2     1  LIG1       -0.2739
@<TRIPOS>BOND
     1     1     2    2
     2     1     8   ar
     3     1    11   ar
     4     2     3   am
     5     3     4    2
     6     3     5    1
     7     5     6    1
     8     6     7    1
     9     7     8    1
    10     8     9   ar
    11     9    10   ar
    12    10    11   ar
    13    10    12    1
    14    12    13    1
    15    13    14    1
    16    14    15   am
    17    14    26    2
    18    15    16    1
    19    15    25    1
    20    16    17    1
    21    17    18    1
    22    18    19   am
    23    18    24    1
    24    19    20    2
    25    19    21    1
    26    21    22    1
    27    22    23    1
    28    24    25    1
