@<TRIPOS>MOLECULE
36425_ChemDiv_G193-0265
 29 32 0 0 0
SMALL
GASTEIGER
Energy = 0

@<TRIPOS>ATOM
      1 C          -1.1500    0.3040    0.0000 C.ar    1  LIG1        0.1542
      2 C          -0.3500   -0.2830    0.0000 C.ar    1  LIG1        0.1923
      3 N           0.6040    0.0330    0.0000 N.ar    1  LIG1       -0.2005
      4 C           1.1960   -0.7670    0.0000 C.ar    1  LIG1        0.2051
      5 N           2.1960   -0.7580    0.0000 N.am    1  LIG1       -0.1493
      6 C           2.7130   -1.6210    0.0000 C.2     1  LIG1        0.2707
      7 C           3.7130   -1.6170    0.0000 C.ar    1  LIG1        0.0555
      8 C           4.2080   -2.4790    0.0000 C.ar    1  LIG1        0.0051
      9 C           5.2080   -2.4670    0.0000 C.ar    1  LIG1        0.0068
     10 C           5.7040   -1.6040    0.0000 C.ar    1  LIG1        0.0346
     11 C           5.1960   -0.7380    0.0000 C.ar    1  LIG1        0.0068
     12 C           4.1960   -0.7420    0.0000 C.ar    1  LIG1        0.0051
     13 BR          6.7040   -1.6000    0.0000 Br      1  LIG1       -0.0490
     14 O           2.2130   -2.4830    0.0000 O.2     1  LIG1       -0.2679
     15 S           0.6210   -1.5750    0.0000 S.2     1  LIG1        0.0514
     16 N          -0.3330   -1.2710    0.0000 N.ar    1  LIG1       -0.1855
     17 N          -1.1670    1.3000    0.0000 N.ar    1  LIG1       -0.1257
     18 N          -2.1330    1.6080    0.0000 N.ar    1  LIG1       -0.0598
     19 N          -2.7080    0.7880    0.0000 N.ar    1  LIG1       -0.2144
     20 C          -2.1040   -0.0170    0.0000 C.ar    1  LIG1        0.0848
     21 C          -2.4080   -0.9710    0.0000 C.3     1  LIG1        0.0540
     22 C          -3.7080    0.7750    0.0000 C.ar    1  LIG1        0.0849
     23 C          -4.2130    1.6330    0.0000 C.ar    1  LIG1        0.0303
     24 C          -5.2130    1.6250    0.0000 C.ar    1  LIG1        0.0552
     25 C          -5.7080    0.7580    0.0000 C.ar    1  LIG1       -0.0112
     26 C          -5.1920   -0.1080    0.0000 C.ar    1  LIG1       -0.0019
     27 C          -4.1960   -0.0920    0.0000 C.ar    1  LIG1        0.0189
     28 C          -6.7040    0.7420    0.0000 C.3     1  LIG1        0.0319
     29 CL         -5.7250    2.4880    0.0000 Cl      1  LIG1       -0.0825
@<TRIPOS>BOND
     1     1     2    1
     2     1    17   ar
     3     1    20   ar
     4     2     3   ar
     5     2    16   ar
     6     3     4   ar
     7     4     5    1
     8     4    15   ar
     9     5     6   am
    10     6     7    1
    11     6    14    2
    12     7     8   ar
    13     7    12   ar
    14     8     9   ar
    15     9    10   ar
    16    10    11   ar
    17    10    13    1
    18    11    12   ar
    19    15    16   ar
    20    17    18   ar
    21    18    19   ar
    22    19    20   ar
    23    19    22    1
    24    20    21    1
    25    22    23   ar
    26    22    27   ar
    27    23    24   ar
    28    24    25   ar
    29    24    29    1
    30    25    26   ar
    31    25    28    1
    32    26    27   ar
