@<TRIPOS>MOLECULE
36431_ChemDiv_G193-0278
 29 32 0 0 0
SMALL
GASTEIGER
Energy = 0

@<TRIPOS>ATOM
      1 C          -1.6420   -0.1330    0.0000 C.ar    1  LIG1        0.1542
      2 C          -0.8290   -0.7080    0.0000 C.ar    1  LIG1        0.1923
      3 N           0.1210   -0.3920    0.0000 N.ar    1  LIG1       -0.2005
      4 C           0.7130   -1.1920    0.0000 C.ar    1  LIG1        0.2051
      5 N           1.7080   -1.1880    0.0000 N.am    1  LIG1       -0.1493
      6 C           2.2130   -2.0500    0.0000 C.2     1  LIG1        0.2707
      7 C           3.2130   -2.0420    0.0000 C.ar    1  LIG1        0.0555
      8 C           3.7130   -2.9000    0.0000 C.ar    1  LIG1        0.0051
      9 C           4.7080   -2.9000    0.0000 C.ar    1  LIG1        0.0068
     10 C           5.2080   -2.0330    0.0000 C.ar    1  LIG1        0.0346
     11 C           4.6960   -1.1630    0.0000 C.ar    1  LIG1        0.0068
     12 C           3.6960   -1.1790    0.0000 C.ar    1  LIG1        0.0051
     13 BR          6.2080   -2.0250    0.0000 Br      1  LIG1       -0.0490
     14 O           1.7250   -2.9170    0.0000 O.2     1  LIG1       -0.2679
     15 S           0.1380   -2.0080    0.0000 S.2     1  LIG1        0.0514
     16 N          -0.8170   -1.7080    0.0000 N.ar    1  LIG1       -0.1855
     17 N          -1.6500    0.8710    0.0000 N.ar    1  LIG1       -0.1257
     18 N          -2.6170    1.1830    0.0000 N.ar    1  LIG1       -0.0598
     19 N          -3.1920    0.3540    0.0000 N.ar    1  LIG1       -0.2144
     20 C          -2.5960   -0.4500    0.0000 C.ar    1  LIG1        0.0848
     21 C          -2.9000   -1.4040    0.0000 C.3     1  LIG1        0.0540
     22 C          -4.1880    0.3500    0.0000 C.ar    1  LIG1        0.0838
     23 C          -4.7000    1.2040    0.0000 C.ar    1  LIG1        0.0149
     24 C          -5.6960    1.1960    0.0000 C.ar    1  LIG1       -0.0207
     25 C          -6.1830    0.3210    0.0000 C.ar    1  LIG1       -0.0042
     26 C          -5.6710   -0.5420    0.0000 C.ar    1  LIG1        0.0012
     27 C          -4.6750   -0.5210    0.0000 C.ar    1  LIG1        0.0192
     28 C          -6.2080    2.0500    0.0000 C.3     1  LIG1        0.0264
     29 C          -5.7170    2.9210    0.0000 C.3     1  LIG1        0.0050
@<TRIPOS>BOND
     1     1     2    1
     2     1    17   ar
     3     1    20   ar
     4     2     3   ar
     5     2    16   ar
     6     3     4   ar
     7     4     5    1
     8     4    15   ar
     9     5     6   am
    10     6     7    1
    11     6    14    2
    12     7     8   ar
    13     7    12   ar
    14     8     9   ar
    15     9    10   ar
    16    10    11   ar
    17    10    13    1
    18    11    12   ar
    19    15    16   ar
    20    17    18   ar
    21    18    19   ar
    22    19    20   ar
    23    19    22    1
    24    20    21    1
    25    22    23   ar
    26    22    27   ar
    27    23    24   ar
    28    24    25   ar
    29    24    28    1
    30    25    26   ar
    31    26    27   ar
    32    28    29    1
