@<TRIPOS>MOLECULE
36434_ChemDiv_K828-0107
 31 34 0 0 0
SMALL
GASTEIGER
Energy = 0

@<TRIPOS>ATOM
      1 S           1.3130    1.5000    0.0000 S.O2    1  LIG1        0.0766
      2 N           2.1710    2.0000    0.0000 N.pl3   1  LIG1       -0.1906
      3 C           2.1630    3.0000    0.0000 C.ar    1  LIG1        0.0688
      4 C           1.3000    3.5130    0.0000 C.ar    1  LIG1        0.0161
      5 C           1.3000    4.5000    0.0000 C.ar    1  LIG1        0.0013
      6 C           2.1710    5.0040    0.0000 C.ar    1  LIG1        0.0001
      7 C           3.0380    4.5000    0.0000 C.ar    1  LIG1        0.0013
      8 C           3.0380    3.5080    0.0000 C.ar    1  LIG1        0.0161
      9 C           3.0250    1.5000    0.0000 C.3     1  LIG1        0.1159
     10 C           3.9000    2.0080    0.0000 C.3     1  LIG1        0.0252
     11 C           0.4500    1.0040    0.0000 C.ar    1  LIG1        0.1256
     12 C           0.4380    0.0040    0.0000 C.ar    1  LIG1        0.0249
     13 C          -0.4380   -0.4960    0.0000 C.ar    1  LIG1        0.0581
     14 C          -0.4380   -1.4920    0.0000 C.ar    1  LIG1        0.2029
     15 C          -1.3040   -1.9920    0.0000 C.ar    1  LIG1        0.1115
     16 C          -1.3040   -3.0080    0.0000 C.2     1  LIG1        0.2538
     17 N          -2.1670   -3.5080    0.0000 N.am    1  LIG1       -0.2708
     18 C          -2.1670   -4.5130    0.0000 C.3     1  LIG1        0.1258
     19 C          -3.0380   -5.0040    0.0000 C.3     1  LIG1        0.1637
     20 O          -3.9040   -4.4960    0.0000 O.3     1  LIG1       -0.3501
     21 C          -3.8920   -3.5000    0.0000 C.3     1  LIG1        0.1637
     22 C          -3.0250   -3.0210    0.0000 C.3     1  LIG1        0.1258
     23 O          -0.4540   -3.5000    0.0000 O.2     1  LIG1       -0.2697
     24 C          -2.1630   -1.4920    0.0000 C.ar    1  LIG1        0.1065
     25 N          -2.1630   -0.5080    0.0000 N.ar    1  LIG1       -0.2435
     26 C          -1.3000   -0.0130    0.0000 C.ar    1  LIG1        0.0845
     27 C          -1.3000    1.0040    0.0000 C.ar    1  LIG1        0.0206
     28 C          -0.4290    1.5000    0.0000 C.ar    1  LIG1        0.0217
     29 O           0.4540   -2.0040    0.0000 O.2     1  LIG1       -0.2863
     30 O           1.8080    0.6380    0.0000 O.2     1  LIG1       -0.1497
     31 O           0.8130    2.3630    0.0000 O.2     1  LIG1       -0.1497
@<TRIPOS>BOND
     1     1     2    1
     2     1    11    1
     3     1    30    2
     4     1    31    2
     5     2     3    1
     6     2     9    1
     7     3     4   ar
     8     3     8   ar
     9     4     5   ar
    10     5     6   ar
    11     6     7   ar
    12     7     8   ar
    13     9    10    1
    14    11    12   ar
    15    11    28   ar
    16    12    13   ar
    17    13    14   ar
    18    13    26   ar
    19    14    15   ar
    20    14    29    2
    21    15    16    1
    22    15    24   ar
    23    16    17   am
    24    16    23    2
    25    17    18    1
    26    17    22    1
    27    18    19    1
    28    19    20    1
    29    20    21    1
    30    21    22    1
    31    24    25   ar
    32    25    26   ar
    33    26    27   ar
    34    27    28   ar
