@<TRIPOS>MOLECULE
36436_ChemDiv_K828-0188
 38 42 0 0 0
SMALL
GASTEIGER
Energy = 0

@<TRIPOS>ATOM
      1 S           1.7170    3.0210    0.0000 S.O2    1  LIG1        0.0766
      2 N           2.5750    3.5500    0.0000 N.pl3   1  LIG1       -0.1906
      3 C           3.4540    3.0670    0.0000 C.ar    1  LIG1        0.0685
      4 C           4.3170    3.5790    0.0000 C.ar    1  LIG1        0.0119
      5 C           5.2040    3.1080    0.0000 C.ar    1  LIG1       -0.0206
      6 C           5.2250    2.1000    0.0000 C.ar    1  LIG1       -0.0042
      7 C           4.3630    1.5710    0.0000 C.ar    1  LIG1        0.0010
      8 C           3.4830    2.0670    0.0000 C.ar    1  LIG1        0.0161
      9 C           6.0670    3.6250    0.0000 C.3     1  LIG1        0.0311
     10 C           2.5500    4.5460    0.0000 C.3     1  LIG1        0.1159
     11 C           1.6670    5.0290    0.0000 C.3     1  LIG1        0.0252
     12 C           0.8500    2.5080    0.0000 C.ar    1  LIG1        0.1256
     13 C           0.8580    1.4920    0.0000 C.ar    1  LIG1        0.0249
     14 C          -0.0040    0.9830    0.0000 C.ar    1  LIG1        0.0581
     15 C          -0.0040   -0.0210    0.0000 C.ar    1  LIG1        0.2029
     16 C          -0.8710   -0.5290    0.0000 C.ar    1  LIG1        0.1115
     17 C          -0.8710   -1.5330    0.0000 C.2     1  LIG1        0.2538
     18 N          -1.7330   -2.0290    0.0000 N.am    1  LIG1       -0.2724
     19 C          -2.6210   -1.5250    0.0000 C.3     1  LIG1        0.1152
     20 C          -3.4710   -2.0210    0.0000 C.3     1  LIG1        0.1137
     21 N          -3.4670   -3.0130    0.0000 N.pl3   1  LIG1       -0.2897
     22 C          -4.3210   -3.5250    0.0000 C.ar    1  LIG1        0.1318
     23 N          -4.3330   -4.5290    0.0000 N.ar    1  LIG1       -0.2292
     24 C          -5.2000   -5.0290    0.0000 C.ar    1  LIG1        0.1003
     25 C          -6.0670   -4.5290    0.0000 C.ar    1  LIG1        0.0208
     26 C          -6.0540   -3.5330    0.0000 C.ar    1  LIG1        0.0045
     27 C          -5.1830   -3.0170    0.0000 C.ar    1  LIG1        0.0343
     28 C          -2.6040   -3.5170    0.0000 C.3     1  LIG1        0.1137
     29 C          -1.7330   -3.0170    0.0000 C.3     1  LIG1        0.1152
     30 O          -0.0040   -2.0290    0.0000 O.2     1  LIG1       -0.2697
     31 C          -1.7330   -0.0290    0.0000 C.ar    1  LIG1        0.1065
     32 N          -1.7420    0.9670    0.0000 N.ar    1  LIG1       -0.2435
     33 C          -0.8790    1.4750    0.0000 C.ar    1  LIG1        0.0845
     34 C          -0.8880    2.4790    0.0000 C.ar    1  LIG1        0.0206
     35 C          -0.0210    2.9920    0.0000 C.ar    1  LIG1        0.0217
     36 O           0.8710   -0.5290    0.0000 O.2     1  LIG1       -0.2863
     37 O           2.2330    2.1630    0.0000 O.2     1  LIG1       -0.1497
     38 O           1.3420    3.8210    0.0000 O.2     1  LIG1       -0.1497
@<TRIPOS>BOND
     1     1     2    1
     2     1    12    1
     3     1    37    2
     4     1    38    2
     5     2     3    1
     6     2    10    1
     7     3     4   ar
     8     3     8   ar
     9     4     5   ar
    10     5     6   ar
    11     5     9    1
    12     6     7   ar
    13     7     8   ar
    14    10    11    1
    15    12    13   ar
    16    12    35   ar
    17    13    14   ar
    18    14    15   ar
    19    14    33   ar
    20    15    16   ar
    21    15    36    2
    22    16    17    1
    23    16    31   ar
    24    17    18   am
    25    17    30    2
    26    18    19    1
    27    18    29    1
    28    19    20    1
    29    20    21    1
    30    21    22    1
    31    21    28    1
    32    22    23   ar
    33    22    27   ar
    34    23    24   ar
    35    24    25   ar
    36    25    26   ar
    37    26    27   ar
    38    28    29    1
    39    31    32   ar
    40    32    33   ar
    41    33    34   ar
    42    34    35   ar
