@<TRIPOS>MOLECULE
36435_ChemDiv_E565-0877
 31 35 0 0 0
SMALL
GASTEIGER
Energy = 0

@<TRIPOS>ATOM
      1 C          -0.9000   -2.2130    0.0000 C.ar    1  LIG1        0.2041
      2 C          -0.1580   -2.8630    0.0000 C.ar    1  LIG1        0.2490
      3 S           0.8250   -2.6670    0.0000 S.O2    1  LIG1        0.0486
      4 C           1.7920   -2.3960    0.0000 C.ar    1  LIG1        0.1130
      5 C           2.5040   -3.1040    0.0000 C.ar    1  LIG1        0.0302
      6 C           3.4670   -2.8330    0.0000 C.ar    1  LIG1        0.0590
      7 CL          4.1670   -3.5420    0.0000 Cl      1  LIG1       -0.0822
      8 C           3.7210   -1.8670    0.0000 C.ar    1  LIG1        0.0115
      9 C           3.0000   -1.1710    0.0000 C.ar    1  LIG1        0.0022
     10 C           2.0330   -1.4250    0.0000 C.ar    1  LIG1        0.0189
     11 O           0.5830   -1.6830    0.0000 O.2     1  LIG1       -0.1626
     12 O           1.0630   -3.6330    0.0000 O.2     1  LIG1       -0.1626
     13 N          -0.5580   -3.7880    0.0000 N.ar    1  LIG1       -0.1076
     14 N          -1.5500   -3.6790    0.0000 N.ar    1  LIG1       -0.0568
     15 N          -1.7630   -2.7130    0.0000 N.ar    1  LIG1       -0.1909
     16 C          -2.6210   -2.2130    0.0000 C.ar    1  LIG1        0.0953
     17 C          -2.6210   -1.2000    0.0000 C.ar    1  LIG1        0.0788
     18 C          -1.7670   -0.7000    0.0000 C.ar    1  LIG1        0.1409
     19 N          -0.9000   -1.2000    0.0000 N.ar    1  LIG1       -0.2085
     20 N          -1.7670    0.2960    0.0000 N.pl3   1  LIG1       -0.2927
     21 C          -0.9000    0.7960    0.0000 C.3     1  LIG1        0.0927
     22 C          -0.9000    1.7960    0.0000 C.3     1  LIG1        0.0307
     23 C          -1.7630    2.2920    0.0000 C.3     1  LIG1        0.0833
     24 C          -1.7630    3.2920    0.0000 C.2     1  LIG1        0.2604
     25 O          -2.6210    3.7920    0.0000 O.2     1  LIG1       -0.2717
     26 N          -0.8880    3.7920    0.0000 N.am    1  LIG1       -0.0878
     27 C          -2.6210    1.7960    0.0000 C.3     1  LIG1        0.0307
     28 C          -2.6290    0.7960    0.0000 C.3     1  LIG1        0.0927
     29 S          -3.5790   -0.8960    0.0000 S.2     1  LIG1       -0.0821
     30 C          -4.1710   -1.7130    0.0000 C.ar    1  LIG1        0.0371
     31 C          -3.5790   -2.5170    0.0000 C.ar    1  LIG1        0.0268
@<TRIPOS>BOND
     1     1     2   ar
     2     1    15   ar
     3     1    19   ar
     4     2     3    1
     5     2    13   ar
     6     3     4    1
     7     3    11    2
     8     3    12    2
     9     4     5   ar
    10     4    10   ar
    11     5     6   ar
    12     6     7    1
    13     6     8   ar
    14     8     9   ar
    15     9    10   ar
    16    13    14   ar
    17    14    15   ar
    18    15    16   ar
    19    16    17   ar
    20    16    31   ar
    21    17    18   ar
    22    17    29   ar
    23    18    19   ar
    24    18    20    1
    25    20    21    1
    26    20    28    1
    27    21    22    1
    28    22    23    1
    29    23    24    1
    30    23    27    1
    31    24    25    2
    32    24    26   am
    33    27    28    1
    34    29    30   ar
    35    30    31   ar
