@<TRIPOS>MOLECULE
36437_ChemDiv_E565-0882
 29 33 0 0 0
SMALL
GASTEIGER
Energy = 0

@<TRIPOS>ATOM
      1 C          -0.9000   -1.9830    0.0000 C.ar    1  LIG1        0.2041
      2 C          -0.1580   -2.6500    0.0000 C.ar    1  LIG1        0.2490
      3 S           0.8250   -2.4380    0.0000 S.O2    1  LIG1        0.0486
      4 C           1.7920   -2.1790    0.0000 C.ar    1  LIG1        0.1130
      5 C           2.5000   -2.8750    0.0000 C.ar    1  LIG1        0.0302
      6 C           3.4630   -2.6170    0.0000 C.ar    1  LIG1        0.0590
      7 CL          4.1630   -3.3210    0.0000 Cl      1  LIG1       -0.0822
      8 C           3.7170   -1.6500    0.0000 C.ar    1  LIG1        0.0115
      9 C           3.0000   -0.9420    0.0000 C.ar    1  LIG1        0.0022
     10 C           2.0330   -1.2000    0.0000 C.ar    1  LIG1        0.0189
     11 O           0.5830   -1.4540    0.0000 O.2     1  LIG1       -0.1626
     12 O           1.0580   -3.4040    0.0000 O.2     1  LIG1       -0.1626
     13 N          -0.5540   -3.5540    0.0000 N.ar    1  LIG1       -0.1076
     14 N          -1.5460   -3.4500    0.0000 N.ar    1  LIG1       -0.0568
     15 N          -1.7580   -2.4830    0.0000 N.ar    1  LIG1       -0.1909
     16 C          -2.6210   -1.9830    0.0000 C.ar    1  LIG1        0.0953
     17 C          -2.6210   -0.9710    0.0000 C.ar    1  LIG1        0.0802
     18 C          -1.7630   -0.4750    0.0000 C.ar    1  LIG1        0.1568
     19 N          -0.9000   -0.9710    0.0000 N.ar    1  LIG1       -0.2071
     20 N          -1.7630    0.5250    0.0000 N.pl3   1  LIG1       -0.2172
     21 C          -0.9000    1.0210    0.0000 C.3     1  LIG1        0.1432
     22 C          -0.9000    2.0170    0.0000 C.3     1  LIG1        0.1369
     23 O          -0.0960    2.6080    0.0000 O.3     1  LIG1       -0.3544
     24 C          -0.4000    3.5580    0.0000 C.3     1  LIG1        0.1422
     25 C          -1.3960    3.5580    0.0000 C.3     1  LIG1        0.0346
     26 C          -1.7130    2.6080    0.0000 C.3     1  LIG1        0.0340
     27 S          -3.5750   -0.6710    0.0000 S.2     1  LIG1       -0.0820
     28 C          -4.1670   -1.4880    0.0000 C.ar    1  LIG1        0.0371
     29 C          -3.5750   -2.3000    0.0000 C.ar    1  LIG1        0.0268
@<TRIPOS>BOND
     1     1     2   ar
     2     1    15   ar
     3     1    19   ar
     4     2     3    1
     5     2    13   ar
     6     3     4    1
     7     3    11    2
     8     3    12    2
     9     4     5   ar
    10     4    10   ar
    11     5     6   ar
    12     6     7    1
    13     6     8   ar
    14     8     9   ar
    15     9    10   ar
    16    13    14   ar
    17    14    15   ar
    18    15    16   ar
    19    16    17   ar
    20    16    29   ar
    21    17    18   ar
    22    17    27   ar
    23    18    19   ar
    24    18    20    1
    25    20    21    1
    26    21    22    1
    27    22    23    1
    28    22    26    1
    29    23    24    1
    30    24    25    1
    31    25    26    1
    32    27    28   ar
    33    28    29   ar
