@<TRIPOS>MOLECULE
36441_ChemDiv_E565-0898
 29 33 0 0 0
SMALL
GASTEIGER
Energy = 0

@<TRIPOS>ATOM
      1 C          -0.9000   -1.4630    0.0000 C.ar    1  LIG1        0.2041
      2 C          -0.1580   -2.1290    0.0000 C.ar    1  LIG1        0.2490
      3 S           0.8250   -1.9170    0.0000 S.O2    1  LIG1        0.0486
      4 C           1.7920   -1.6630    0.0000 C.ar    1  LIG1        0.1130
      5 C           2.5040   -2.3540    0.0000 C.ar    1  LIG1        0.0302
      6 C           3.4670   -2.1000    0.0000 C.ar    1  LIG1        0.0590
      7 CL          4.1670   -2.8000    0.0000 Cl      1  LIG1       -0.0822
      8 C           3.7210   -1.1330    0.0000 C.ar    1  LIG1        0.0115
      9 C           3.0000   -0.4210    0.0000 C.ar    1  LIG1        0.0022
     10 C           2.0330   -0.6920    0.0000 C.ar    1  LIG1        0.0189
     11 O           0.5830   -0.9420    0.0000 O.2     1  LIG1       -0.1626
     12 O           1.0630   -2.8920    0.0000 O.2     1  LIG1       -0.1626
     13 N          -0.5580   -3.0380    0.0000 N.ar    1  LIG1       -0.1076
     14 N          -1.5500   -2.9380    0.0000 N.ar    1  LIG1       -0.0568
     15 N          -1.7630   -1.9630    0.0000 N.ar    1  LIG1       -0.1909
     16 C          -2.6210   -1.4630    0.0000 C.ar    1  LIG1        0.0953
     17 C          -2.6210   -0.4670    0.0000 C.ar    1  LIG1        0.0802
     18 C          -1.7670    0.0420    0.0000 C.ar    1  LIG1        0.1567
     19 N          -0.9000   -0.4670    0.0000 N.ar    1  LIG1       -0.2071
     20 N          -1.7670    1.0460    0.0000 N.pl3   1  LIG1       -0.2216
     21 C          -0.9000    1.5460    0.0000 C.3     1  LIG1        0.0941
     22 C          -0.0420    1.0460    0.0000 C.3     1  LIG1        0.0216
     23 C           0.8210    1.5380    0.0000 C.3     1  LIG1        0.0018
     24 C           0.8250    2.5380    0.0000 C.3     1  LIG1        0.0001
     25 C          -0.0380    3.0420    0.0000 C.3     1  LIG1        0.0018
     26 C          -0.9130    2.5420    0.0000 C.3     1  LIG1        0.0216
     27 S          -3.5790   -0.1500    0.0000 S.2     1  LIG1       -0.0820
     28 C          -4.1710   -0.9670    0.0000 C.ar    1  LIG1        0.0371
     29 C          -3.5790   -1.7830    0.0000 C.ar    1  LIG1        0.0268
@<TRIPOS>BOND
     1     1     2   ar
     2     1    15   ar
     3     1    19   ar
     4     2     3    1
     5     2    13   ar
     6     3     4    1
     7     3    11    2
     8     3    12    2
     9     4     5   ar
    10     4    10   ar
    11     5     6   ar
    12     6     7    1
    13     6     8   ar
    14     8     9   ar
    15     9    10   ar
    16    13    14   ar
    17    14    15   ar
    18    15    16   ar
    19    16    17   ar
    20    16    29   ar
    21    17    18   ar
    22    17    27   ar
    23    18    19   ar
    24    18    20    1
    25    20    21    1
    26    21    22    1
    27    21    26    1
    28    22    23    1
    29    23    24    1
    30    24    25    1
    31    25    26    1
    32    27    28   ar
    33    28    29   ar
