@<TRIPOS>MOLECULE
36449_ChemDiv_G193-0279
 29 32 0 0 0
SMALL
GASTEIGER
Energy = 0

@<TRIPOS>ATOM
      1 C          -0.8960    0.7250    0.0000 C.ar    1  LIG1        0.1542
      2 C          -0.0960    0.1500    0.0000 C.ar    1  LIG1        0.1923
      3 N           0.8580    0.4670    0.0000 N.ar    1  LIG1       -0.2005
      4 C           1.4460   -0.3330    0.0000 C.ar    1  LIG1        0.2051
      5 N           2.4460   -0.3290    0.0000 N.am    1  LIG1       -0.1493
      6 C           2.9580   -1.1920    0.0000 C.2     1  LIG1        0.2707
      7 C           3.9580   -1.1790    0.0000 C.ar    1  LIG1        0.0555
      8 C           4.4580   -2.0420    0.0000 C.ar    1  LIG1        0.0051
      9 C           5.4540   -2.0420    0.0000 C.ar    1  LIG1        0.0068
     10 C           5.9500   -1.1750    0.0000 C.ar    1  LIG1        0.0346
     11 C           5.4420   -0.3040    0.0000 C.ar    1  LIG1        0.0068
     12 C           4.4420   -0.3170    0.0000 C.ar    1  LIG1        0.0051
     13 BR          6.9460   -1.1670    0.0000 Br      1  LIG1       -0.0490
     14 O           2.4630   -2.0580    0.0000 O.2     1  LIG1       -0.2679
     15 S           0.8710   -1.1500    0.0000 S.2     1  LIG1        0.0514
     16 N          -0.0790   -0.8460    0.0000 N.ar    1  LIG1       -0.1855
     17 N          -0.9130    1.7290    0.0000 N.ar    1  LIG1       -0.1257
     18 N          -1.8790    2.0420    0.0000 N.ar    1  LIG1       -0.0598
     19 N          -2.4540    1.2130    0.0000 N.ar    1  LIG1       -0.2144
     20 C          -1.8500    0.4080    0.0000 C.ar    1  LIG1        0.0848
     21 C          -2.1500   -0.5460    0.0000 C.3     1  LIG1        0.0540
     22 C          -3.4540    1.2080    0.0000 C.ar    1  LIG1        0.0841
     23 C          -3.9380    0.3380    0.0000 C.ar    1  LIG1        0.0189
     24 C          -4.9330    0.3170    0.0000 C.ar    1  LIG1       -0.0027
     25 C          -5.4500    1.1790    0.0000 C.ar    1  LIG1       -0.0221
     26 C          -4.9540    2.0580    0.0000 C.ar    1  LIG1       -0.0027
     27 C          -3.9580    2.0630    0.0000 C.ar    1  LIG1        0.0189
     28 C          -6.4420    1.1630    0.0000 C.3     1  LIG1        0.0264
     29 C          -6.9460    2.0250    0.0000 C.3     1  LIG1        0.0050
@<TRIPOS>BOND
     1     1     2    1
     2     1    17   ar
     3     1    20   ar
     4     2     3   ar
     5     2    16   ar
     6     3     4   ar
     7     4     5    1
     8     4    15   ar
     9     5     6   am
    10     6     7    1
    11     6    14    2
    12     7     8   ar
    13     7    12   ar
    14     8     9   ar
    15     9    10   ar
    16    10    11   ar
    17    10    13    1
    18    11    12   ar
    19    15    16   ar
    20    17    18   ar
    21    18    19   ar
    22    19    20   ar
    23    19    22    1
    24    20    21    1
    25    22    23   ar
    26    22    27   ar
    27    23    24   ar
    28    24    25   ar
    29    25    26   ar
    30    25    28    1
    31    26    27   ar
    32    28    29    1
