@<TRIPOS>MOLECULE
36442_ChemDiv_K828-0581
 28 30 0 0 0
SMALL
GASTEIGER
Energy = 0

@<TRIPOS>ATOM
      1 C          -1.3330   -0.4460    0.0000 C.ar    1  LIG1        0.1115
      2 C          -0.4540    0.0420    0.0000 C.ar    1  LIG1        0.2029
      3 C           0.4080   -0.4750    0.0000 C.ar    1  LIG1        0.0581
      4 C           1.2830    0.0000    0.0000 C.ar    1  LIG1        0.0246
      5 C           2.1330   -0.4960    0.0000 C.ar    1  LIG1        0.1224
      6 S           3.0210   -0.0290    0.0000 S.O2    1  LIG1        0.0633
      7 N           3.9130    0.4540    0.0000 N.3     1  LIG1       -0.1555
      8 C           4.7750   -0.0750    0.0000 C.3     1  LIG1        0.0958
      9 C           5.6420    0.4080    0.0000 C.3     1  LIG1        0.0206
     10 C           3.9330    1.4540    0.0000 C.3     1  LIG1        0.0958
     11 C           3.0710    1.9830    0.0000 C.3     1  LIG1        0.0206
     12 O           2.5420    0.8630    0.0000 O.2     1  LIG1       -0.1528
     13 O           3.5080   -0.9040    0.0000 O.2     1  LIG1       -0.1528
     14 C           2.1250   -1.4880    0.0000 C.ar    1  LIG1        0.0215
     15 C           1.2380   -1.9790    0.0000 C.ar    1  LIG1        0.0206
     16 C           0.3880   -1.4630    0.0000 C.ar    1  LIG1        0.0845
     17 N          -0.4920   -1.9580    0.0000 N.ar    1  LIG1       -0.2435
     18 C          -1.3500   -1.4330    0.0000 C.ar    1  LIG1        0.1065
     19 O          -0.4290    1.0380    0.0000 O.2     1  LIG1       -0.2863
     20 C          -2.2000    0.0540    0.0000 C.2     1  LIG1        0.2537
     21 N          -3.0630   -0.4460    0.0000 N.am    1  LIG1       -0.2760
     22 C          -3.9380    0.0580    0.0000 C.3     1  LIG1        0.0937
     23 C          -4.7830   -0.4330    0.0000 C.3     1  LIG1        0.0216
     24 C          -4.7830   -1.4330    0.0000 C.3     1  LIG1        0.0034
     25 C          -3.9210   -1.9420    0.0000 C.3     1  LIG1        0.0216
     26 C          -3.0580   -1.4330    0.0000 C.3     1  LIG1        0.0937
     27 C          -5.6460   -1.9580    0.0000 C.3     1  LIG1        0.0001
     28 O          -2.2000    1.0420    0.0000 O.2     1  LIG1       -0.2697
@<TRIPOS>BOND
     1     1     2   ar
     2     1    18   ar
     3     1    20    1
     4     2     3   ar
     5     2    19    2
     6     3     4   ar
     7     3    16   ar
     8     4     5   ar
     9     5     6    1
    10     5    14   ar
    11     6     7    1
    12     6    12    2
    13     6    13    2
    14     7     8    1
    15     7    10    1
    16     8     9    1
    17    10    11    1
    18    14    15   ar
    19    15    16   ar
    20    16    17   ar
    21    17    18   ar
    22    20    21   am
    23    20    28    2
    24    21    22    1
    25    21    26    1
    26    22    23    1
    27    23    24    1
    28    24    25    1
    29    24    27    1
    30    25    26    1
