@<TRIPOS>MOLECULE
36446_ChemDiv_K917-0627
 36 39 0 0 0
SMALL
GASTEIGER
Energy = 0

@<TRIPOS>ATOM
      1 S          -0.4630    3.2670    0.0000 S.O2    1  LIG1        0.0766
      2 N           0.4040    3.7710    0.0000 N.pl3   1  LIG1       -0.1888
      3 C           1.2790    3.2710    0.0000 C.ar    1  LIG1        0.0688
      4 C           2.1330    3.7710    0.0000 C.ar    1  LIG1        0.0158
      5 C           3.0130    3.2710    0.0000 C.ar    1  LIG1       -0.0030
      6 C           3.0290    2.2710    0.0000 C.ar    1  LIG1       -0.0224
      7 C           2.1630    1.7670    0.0000 C.ar    1  LIG1       -0.0030
      8 C           1.2920    2.2710    0.0000 C.ar    1  LIG1        0.0158
      9 C           3.8960    1.7670    0.0000 C.3     1  LIG1        0.0224
     10 C           4.7710    2.2830    0.0000 C.3     1  LIG1        0.0047
     11 C           3.9080    0.7830    0.0000 C.3     1  LIG1        0.0047
     12 C           0.3960    4.7420    0.0000 C.3     1  LIG1        0.1392
     13 C          -1.3130    2.7540    0.0000 C.ar    1  LIG1        0.1256
     14 C          -1.3130    1.7630    0.0000 C.ar    1  LIG1        0.0249
     15 C          -2.1920    1.2540    0.0000 C.ar    1  LIG1        0.0581
     16 C          -2.1790    0.2500    0.0000 C.ar    1  LIG1        0.2029
     17 C          -3.0460   -0.2420    0.0000 C.ar    1  LIG1        0.1115
     18 C          -3.0460   -1.2420    0.0000 C.2     1  LIG1        0.2540
     19 N          -3.9080   -1.7330    0.0000 N.am    1  LIG1       -0.2701
     20 C          -3.8960   -2.7210    0.0000 C.3     1  LIG1        0.1205
     21 C          -3.0330   -3.2330    0.0000 C.ar    1  LIG1       -0.0023
     22 C          -3.0330   -4.2330    0.0000 C.ar    1  LIG1       -0.0026
     23 C          -2.1790   -4.7420    0.0000 C.ar    1  LIG1       -0.0003
     24 C          -1.2960   -4.2540    0.0000 C.ar    1  LIG1       -0.0000
     25 C          -1.3040   -3.2460    0.0000 C.ar    1  LIG1       -0.0003
     26 C          -2.1630   -2.7380    0.0000 C.ar    1  LIG1       -0.0026
     27 C          -4.7750   -1.2290    0.0000 C.3     1  LIG1        0.1155
     28 O          -2.1830   -1.7330    0.0000 O.2     1  LIG1       -0.2697
     29 C          -3.9250    0.2500    0.0000 C.ar    1  LIG1        0.1065
     30 N          -3.9250    1.2540    0.0000 N.ar    1  LIG1       -0.2435
     31 C          -3.0500    1.7540    0.0000 C.ar    1  LIG1        0.0845
     32 C          -3.0500    2.7540    0.0000 C.ar    1  LIG1        0.0206
     33 C          -2.1920    3.2540    0.0000 C.ar    1  LIG1        0.0217
     34 O          -1.3130   -0.2380    0.0000 O.2     1  LIG1       -0.2863
     35 O           0.0540    2.4000    0.0000 O.2     1  LIG1       -0.1497
     36 O          -0.9670    4.1170    0.0000 O.2     1  LIG1       -0.1497
@<TRIPOS>BOND
     1     1     2    1
     2     1    13    1
     3     1    35    2
     4     1    36    2
     5     2     3    1
     6     2    12    1
     7     3     4   ar
     8     3     8   ar
     9     4     5   ar
    10     5     6   ar
    11     6     7   ar
    12     6     9    1
    13     7     8   ar
    14     9    10    1
    15     9    11    1
    16    13    14   ar
    17    13    33   ar
    18    14    15   ar
    19    15    16   ar
    20    15    31   ar
    21    16    17   ar
    22    16    34    2
    23    17    18    1
    24    17    29   ar
    25    18    19   am
    26    18    28    2
    27    19    20    1
    28    19    27    1
    29    20    21    1
    30    21    22   ar
    31    21    26   ar
    32    22    23   ar
    33    23    24   ar
    34    24    25   ar
    35    25    26   ar
    36    29    30   ar
    37    30    31   ar
    38    31    32   ar
    39    32    33   ar
