@<TRIPOS>MOLECULE
36445_ChemDiv_C201-0053
 26 30 0 0 0
SMALL
GASTEIGER
Energy = 0

@<TRIPOS>ATOM
      1 C          -0.4580    0.5040    0.0000 C.2     1  LIG1        0.1518
      2 C          -0.4460   -0.4960    0.0000 C.3     1  LIG1        0.4155
      3 N           0.4210   -0.9960    0.0000 N.2     1  LIG1       -0.0155
      4 C           1.2880   -0.4920    0.0000 C.2     1  LIG1        0.3680
      5 N           1.2790    0.5210    0.0000 N.am    1  LIG1        0.0360
      6 C           0.4080    1.0080    0.0000 C.2     1  LIG1        0.3794
      7 O           0.4000    2.0080    0.0000 O.2     1  LIG1       -0.2378
      8 C           2.1580   -0.9790    0.0000 C.ar    1  LIG1        0.0863
      9 C           3.0130   -0.4670    0.0000 C.ar    1  LIG1        0.0108
     10 C           3.8880   -0.9670    0.0000 C.ar    1  LIG1        0.0423
     11 C           3.8920   -1.9670    0.0000 C.ar    1  LIG1        0.1958
     12 C           3.0290   -2.4750    0.0000 C.ar    1  LIG1        0.0423
     13 C           2.1630   -1.9790    0.0000 C.ar    1  LIG1        0.0108
     14 O           4.7710   -2.4670    0.0000 O.3     1  LIG1       -0.2866
     15 O          -1.3080   -1.0040    0.0000 O.3     1  LIG1       -0.4339
     16 C          -2.1830   -0.5040    0.0000 C.ar    1  LIG1        0.1433
     17 C          -2.1830    0.4960    0.0000 C.ar    1  LIG1        0.0343
     18 C          -1.3210    1.0040    0.0000 C.2     1  LIG1        0.0138
     19 C          -3.0460    0.9880    0.0000 C.ar    1  LIG1        0.0029
     20 C          -3.9130    0.4960    0.0000 C.ar    1  LIG1        0.0002
     21 C          -3.9130   -0.5080    0.0000 C.ar    1  LIG1        0.0031
     22 C          -3.0460   -1.0080    0.0000 C.ar    1  LIG1        0.0371
     23 C          -4.7750    0.9880    0.0000 C.ar    1  LIG1        0.0000
     24 C          -4.7750    1.9750    0.0000 C.ar    1  LIG1        0.0000
     25 C          -3.9170    2.4790    0.0000 C.ar    1  LIG1        0.0000
     26 C          -3.0540    1.9880    0.0000 C.ar    1  LIG1        0.0001
@<TRIPOS>BOND
     1     1     2    1
     2     1     6    1
     3     1    18    2
     4     2     3    1
     5     2    15    1
     6     3     4    2
     7     4     5    1
     8     4     8    1
     9     5     6   am
    10     6     7    2
    11     8     9   ar
    12     8    13   ar
    13     9    10   ar
    14    10    11   ar
    15    11    12   ar
    16    11    14    1
    17    12    13   ar
    18    15    16    1
    19    16    17   ar
    20    16    22   ar
    21    17    18    1
    22    17    19   ar
    23    19    20   ar
    24    19    26   ar
    25    20    21   ar
    26    20    23   ar
    27    21    22   ar
    28    23    24   ar
    29    24    25   ar
    30    25    26   ar
