@<TRIPOS>MOLECULE
36443_ChemDiv_C201-0052
 28 31 0 0 0
SMALL
GASTEIGER
Energy = 0

@<TRIPOS>ATOM
      1 C          -1.3080    0.7380    0.0000 C.2     1  LIG1        0.1518
      2 C          -1.3080   -0.2580    0.0000 C.3     1  LIG1        0.4155
      3 N          -0.4380   -0.7580    0.0000 N.2     1  LIG1       -0.0154
      4 C           0.4330   -0.2540    0.0000 C.2     1  LIG1        0.3711
      5 N           0.4170    0.7540    0.0000 N.am    1  LIG1        0.0361
      6 C          -0.4460    1.2460    0.0000 C.2     1  LIG1        0.3794
      7 O          -0.4630    2.2420    0.0000 O.2     1  LIG1       -0.2378
      8 C           1.2960   -0.7460    0.0000 C.ar    1  LIG1        0.1232
      9 C           2.1580   -0.2420    0.0000 C.ar    1  LIG1        0.1826
     10 C           3.0210   -0.7290    0.0000 C.ar    1  LIG1        0.2063
     11 C           3.0380   -1.7290    0.0000 C.ar    1  LIG1        0.1755
     12 C           2.1750   -2.2380    0.0000 C.ar    1  LIG1        0.0405
     13 C           1.3040   -1.7460    0.0000 C.ar    1  LIG1        0.0139
     14 O           3.9000   -2.2290    0.0000 O.3     1  LIG1       -0.4683
     15 C           4.7630   -1.7130    0.0000 C.3     1  LIG1        0.2526
     16 O           3.8830   -0.2170    0.0000 O.3     1  LIG1       -0.4654
     17 C           3.8710    0.7830    0.0000 C.3     1  LIG1        0.2528
     18 O           2.1420    0.7540    0.0000 O.3     1  LIG1       -0.4680
     19 C           1.2790    1.2460    0.0000 C.3     1  LIG1        0.2526
     20 O          -2.1750   -0.7710    0.0000 O.3     1  LIG1       -0.4342
     21 C          -3.0380   -0.2710    0.0000 C.ar    1  LIG1        0.1392
     22 C          -3.0380    0.7290    0.0000 C.ar    1  LIG1        0.0340
     23 C          -2.1790    1.2380    0.0000 C.2     1  LIG1        0.0138
     24 C          -3.9040    1.2290    0.0000 C.ar    1  LIG1        0.0030
     25 C          -4.7670    0.7290    0.0000 C.ar    1  LIG1       -0.0001
     26 C          -4.7670   -0.2750    0.0000 C.ar    1  LIG1       -0.0013
     27 C          -3.9040   -0.7750    0.0000 C.ar    1  LIG1        0.0123
     28 C          -3.9000   -1.7750    0.0000 C.3     1  LIG1        0.0342
@<TRIPOS>BOND
     1     1     2    1
     2     1     6    1
     3     1    23    2
     4     2     3    1
     5     2    20    1
     6     3     4    2
     7     4     5    1
     8     4     8    1
     9     5     6   am
    10     6     7    2
    11     8     9   ar
    12     8    13   ar
    13     9    10   ar
    14     9    18    1
    15    10    11   ar
    16    10    16    1
    17    11    12   ar
    18    11    14    1
    19    12    13   ar
    20    14    15    1
    21    16    17    1
    22    18    19    1
    23    20    21    1
    24    21    22   ar
    25    21    27   ar
    26    22    23    1
    27    22    24   ar
    28    24    25   ar
    29    25    26   ar
    30    26    27   ar
    31    27    28    1
