@<TRIPOS>MOLECULE
36444_ChemDiv_K917-0402
 32 34 0 0 0
SMALL
GASTEIGER
Energy = 0

@<TRIPOS>ATOM
      1 S           1.2830    0.2460    0.0000 S.O2    1  LIG1        0.0766
      2 N           2.1500    0.7540    0.0000 N.pl3   1  LIG1       -0.1888
      3 C           2.1460    1.7420    0.0000 C.ar    1  LIG1        0.0691
      4 C           1.2790    2.2380    0.0000 C.ar    1  LIG1        0.0192
      5 C           1.2710    3.2460    0.0000 C.ar    1  LIG1        0.0382
      6 C           2.1330    3.7460    0.0000 C.ar    1  LIG1        0.1386
      7 C           3.0000    3.2460    0.0000 C.ar    1  LIG1        0.0382
      8 C           3.0000    2.2540    0.0000 C.ar    1  LIG1        0.0192
      9 O           2.1330    4.7540    0.0000 O.3     1  LIG1       -0.4755
     10 C           3.0000    5.2630    0.0000 C.3     1  LIG1        0.2055
     11 C           2.9960    6.2580    0.0000 C.3     1  LIG1        0.0512
     12 C           3.0170    0.2630    0.0000 C.3     1  LIG1        0.1392
     13 C           0.4330   -0.2630    0.0000 C.ar    1  LIG1        0.1256
     14 C           0.4330   -1.2580    0.0000 C.ar    1  LIG1        0.0249
     15 C          -0.4460   -1.7670    0.0000 C.ar    1  LIG1        0.0581
     16 C          -0.4330   -2.7710    0.0000 C.ar    1  LIG1        0.2030
     17 C          -1.3000   -3.2630    0.0000 C.ar    1  LIG1        0.1130
     18 C          -1.3000   -4.2630    0.0000 C.2     1  LIG1        0.2694
     19 N          -2.1630   -4.7540    0.0000 N.am    1  LIG1       -0.2033
     20 C          -2.1630   -5.7670    0.0000 C.3     1  LIG1        0.0957
     21 C          -1.2830   -6.2580    0.0000 C.3     1  LIG1        0.0217
     22 C          -0.4210   -5.7670    0.0000 C.3     1  LIG1        0.0018
     23 C          -3.0210   -6.2580    0.0000 C.3     1  LIG1        0.0234
     24 O          -0.4380   -4.7540    0.0000 O.2     1  LIG1       -0.2682
     25 C          -2.1790   -2.7710    0.0000 C.ar    1  LIG1        0.1066
     26 N          -2.1790   -1.7670    0.0000 N.ar    1  LIG1       -0.2435
     27 C          -1.3040   -1.2670    0.0000 C.ar    1  LIG1        0.0845
     28 C          -1.3040   -0.2630    0.0000 C.ar    1  LIG1        0.0206
     29 C          -0.4460    0.2380    0.0000 C.ar    1  LIG1        0.0217
     30 O           0.4330   -3.2540    0.0000 O.2     1  LIG1       -0.2863
     31 O           1.8000   -0.6170    0.0000 O.2     1  LIG1       -0.1497
     32 O           0.7790    1.1040    0.0000 O.2     1  LIG1       -0.1497
@<TRIPOS>BOND
     1     1     2    1
     2     1    13    1
     3     1    31    2
     4     1    32    2
     5     2     3    1
     6     2    12    1
     7     3     4   ar
     8     3     8   ar
     9     4     5   ar
    10     5     6   ar
    11     6     7   ar
    12     6     9    1
    13     7     8   ar
    14     9    10    1
    15    10    11    1
    16    13    14   ar
    17    13    29   ar
    18    14    15   ar
    19    15    16   ar
    20    15    27   ar
    21    16    17   ar
    22    16    30    2
    23    17    18    1
    24    17    25   ar
    25    18    19   am
    26    18    24    2
    27    19    20    1
    28    20    21    1
    29    20    23    1
    30    21    22    1
    31    25    26   ar
    32    26    27   ar
    33    27    28   ar
    34    28    29   ar
