@<TRIPOS>MOLECULE
36440_ChemDiv_K828-0565
 25 26 0 0 0
SMALL
GASTEIGER
Energy = 0

@<TRIPOS>ATOM
      1 S           2.1630   -0.0290    0.0000 S.O2    1  LIG1        0.0633
      2 C           1.2750   -0.4960    0.0000 C.ar    1  LIG1        0.1224
      3 C           0.4290    0.0000    0.0000 C.ar    1  LIG1        0.0246
      4 C          -0.4500   -0.4750    0.0000 C.ar    1  LIG1        0.0581
      5 C          -1.3080    0.0420    0.0000 C.ar    1  LIG1        0.2030
      6 C          -2.1880   -0.4460    0.0000 C.ar    1  LIG1        0.1130
      7 C          -3.0540    0.0540    0.0000 C.2     1  LIG1        0.2694
      8 N          -3.9170   -0.4460    0.0000 N.am    1  LIG1       -0.2033
      9 C          -3.9170   -1.4460    0.0000 C.3     1  LIG1        0.0957
     10 C          -3.0500   -1.9420    0.0000 C.3     1  LIG1        0.0234
     11 C          -4.7880   -1.9420    0.0000 C.3     1  LIG1        0.0234
     12 O          -3.0540    1.0420    0.0000 O.2     1  LIG1       -0.2682
     13 C          -2.2040   -1.4330    0.0000 C.ar    1  LIG1        0.1066
     14 N          -1.3460   -1.9540    0.0000 N.ar    1  LIG1       -0.2435
     15 C          -0.4670   -1.4630    0.0000 C.ar    1  LIG1        0.0845
     16 C           0.3830   -1.9750    0.0000 C.ar    1  LIG1        0.0206
     17 C           1.2710   -1.4880    0.0000 C.ar    1  LIG1        0.0215
     18 O          -1.2830    1.0380    0.0000 O.2     1  LIG1       -0.2863
     19 N           3.0540    0.4540    0.0000 N.3     1  LIG1       -0.1555
     20 C           3.9170   -0.0750    0.0000 C.3     1  LIG1        0.0958
     21 C           4.7830    0.4080    0.0000 C.3     1  LIG1        0.0206
     22 C           3.0750    1.4500    0.0000 C.3     1  LIG1        0.0958
     23 C           2.2130    1.9790    0.0000 C.3     1  LIG1        0.0206
     24 O           1.6830    0.8630    0.0000 O.2     1  LIG1       -0.1528
     25 O           2.6500   -0.9040    0.0000 O.2     1  LIG1       -0.1528
@<TRIPOS>BOND
     1     1     2    1
     2     1    19    1
     3     1    24    2
     4     1    25    2
     5     2     3   ar
     6     2    17   ar
     7     3     4   ar
     8     4     5   ar
     9     4    15   ar
    10     5     6   ar
    11     5    18    2
    12     6     7    1
    13     6    13   ar
    14     7     8   am
    15     7    12    2
    16     8     9    1
    17     9    10    1
    18     9    11    1
    19    13    14   ar
    20    14    15   ar
    21    15    16   ar
    22    16    17   ar
    23    19    20    1
    24    19    22    1
    25    20    21    1
    26    22    23    1
