@<TRIPOS>MOLECULE
36448_ChemDiv_K917-1143
 31 34 0 0 0
SMALL
GASTEIGER
Energy = 0

@<TRIPOS>ATOM
      1 S           1.7210    1.0000    0.0000 S.O2    1  LIG1        0.0766
      2 N           2.5880    1.5080    0.0000 N.pl3   1  LIG1       -0.1888
      3 C           2.5880    2.4960    0.0000 C.ar    1  LIG1        0.0689
      4 C           3.4540    3.0080    0.0000 C.ar    1  LIG1        0.0166
      5 C           3.4540    4.0000    0.0000 C.ar    1  LIG1        0.0080
      6 C           2.5880    4.5130    0.0000 C.ar    1  LIG1        0.0346
      7 C           1.7290    4.0040    0.0000 C.ar    1  LIG1        0.0080
      8 C           1.7380    2.9960    0.0000 C.ar    1  LIG1        0.0166
      9 BR          2.5880    5.5130    0.0000 Br      1  LIG1       -0.0490
     10 C           3.4540    1.0170    0.0000 C.3     1  LIG1        0.1392
     11 C           0.8710    0.4880    0.0000 C.ar    1  LIG1        0.1256
     12 C           0.8710   -0.5040    0.0000 C.ar    1  LIG1        0.0249
     13 C          -0.0130   -1.0170    0.0000 C.ar    1  LIG1        0.0581
     14 C           0.0040   -2.0210    0.0000 C.ar    1  LIG1        0.2029
     15 C          -0.8630   -2.5130    0.0000 C.ar    1  LIG1        0.1115
     16 C          -0.8630   -3.5130    0.0000 C.2     1  LIG1        0.2538
     17 N          -1.7290   -4.0040    0.0000 N.am    1  LIG1       -0.2708
     18 C          -1.7290   -5.0080    0.0000 C.3     1  LIG1        0.1258
     19 C          -2.5960   -5.5130    0.0000 C.3     1  LIG1        0.1637
     20 O          -3.4580   -5.0080    0.0000 O.3     1  LIG1       -0.3501
     21 C          -3.4540   -4.0040    0.0000 C.3     1  LIG1        0.1637
     22 C          -2.5880   -3.5130    0.0000 C.3     1  LIG1        0.1258
     23 O           0.0000   -4.0040    0.0000 O.2     1  LIG1       -0.2697
     24 C          -1.7460   -2.0210    0.0000 C.ar    1  LIG1        0.1065
     25 N          -1.7460   -1.0170    0.0000 N.ar    1  LIG1       -0.2435
     26 C          -0.8670   -0.5170    0.0000 C.ar    1  LIG1        0.0845
     27 C          -0.8670    0.4880    0.0000 C.ar    1  LIG1        0.0206
     28 C          -0.0130    0.9920    0.0000 C.ar    1  LIG1        0.0217
     29 O           0.8710   -2.5040    0.0000 O.2     1  LIG1       -0.2863
     30 O           2.2380    0.1330    0.0000 O.2     1  LIG1       -0.1497
     31 O           1.2130    1.8580    0.0000 O.2     1  LIG1       -0.1497
@<TRIPOS>BOND
     1     1     2    1
     2     1    11    1
     3     1    30    2
     4     1    31    2
     5     2     3    1
     6     2    10    1
     7     3     4   ar
     8     3     8   ar
     9     4     5   ar
    10     5     6   ar
    11     6     7   ar
    12     6     9    1
    13     7     8   ar
    14    11    12   ar
    15    11    28   ar
    16    12    13   ar
    17    13    14   ar
    18    13    26   ar
    19    14    15   ar
    20    14    29    2
    21    15    16    1
    22    15    24   ar
    23    16    17   am
    24    16    23    2
    25    17    18    1
    26    17    22    1
    27    18    19    1
    28    19    20    1
    29    20    21    1
    30    21    22    1
    31    24    25   ar
    32    25    26   ar
    33    26    27   ar
    34    27    28   ar
