@<TRIPOS>MOLECULE
36463_ChemDiv_G193-0454
 30 33 0 0 0
SMALL
GASTEIGER
Energy = 0

@<TRIPOS>ATOM
      1 C          -1.1500    0.3040    0.0000 C.ar    1  LIG1        0.1542
      2 C          -0.3380   -0.2790    0.0000 C.ar    1  LIG1        0.1923
      3 N           0.6040    0.0380    0.0000 N.ar    1  LIG1       -0.2005
      4 C           1.2080   -0.7670    0.0000 C.ar    1  LIG1        0.2051
      5 N           2.2040   -0.7500    0.0000 N.am    1  LIG1       -0.1493
      6 C           2.7130   -1.6170    0.0000 C.2     1  LIG1        0.2707
      7 C           3.7130   -1.6130    0.0000 C.ar    1  LIG1        0.0551
      8 C           4.1960   -0.7420    0.0000 C.ar    1  LIG1        0.0000
      9 C           5.1960   -0.7330    0.0000 C.ar    1  LIG1       -0.0256
     10 C           5.7040   -1.6040    0.0000 C.ar    1  LIG1       -0.0258
     11 C           5.2080   -2.4670    0.0000 C.ar    1  LIG1       -0.0044
     12 C           4.2080   -2.4750    0.0000 C.ar    1  LIG1        0.0042
     13 C           6.7040   -1.5880    0.0000 C.3     1  LIG1        0.0307
     14 C           5.6790    0.1380    0.0000 C.3     1  LIG1        0.0307
     15 O           2.2210   -2.4790    0.0000 O.2     1  LIG1       -0.2679
     16 S           0.6210   -1.5710    0.0000 S.2     1  LIG1        0.0514
     17 N          -0.3330   -1.2710    0.0000 N.ar    1  LIG1       -0.1855
     18 N          -1.1670    1.3080    0.0000 N.ar    1  LIG1       -0.1257
     19 N          -2.1250    1.6130    0.0000 N.ar    1  LIG1       -0.0598
     20 N          -2.7080    0.7960    0.0000 N.ar    1  LIG1       -0.2144
     21 C          -2.1040   -0.0130    0.0000 C.ar    1  LIG1        0.0848
     22 C          -2.4080   -0.9670    0.0000 C.3     1  LIG1        0.0540
     23 C          -3.7080    0.7790    0.0000 C.ar    1  LIG1        0.0837
     24 C          -4.2130    1.6380    0.0000 C.ar    1  LIG1        0.0146
     25 C          -5.2130    1.6290    0.0000 C.ar    1  LIG1       -0.0243
     26 C          -5.7080    0.7580    0.0000 C.ar    1  LIG1       -0.0257
     27 C          -5.1920   -0.1040    0.0000 C.ar    1  LIG1       -0.0030
     28 C          -4.1960   -0.0880    0.0000 C.ar    1  LIG1        0.0188
     29 C          -6.7040    0.7460    0.0000 C.3     1  LIG1        0.0307
     30 C          -5.7250    2.4830    0.0000 C.3     1  LIG1        0.0307
@<TRIPOS>BOND
     1     1     2    1
     2     1    18   ar
     3     1    21   ar
     4     2     3   ar
     5     2    17   ar
     6     3     4   ar
     7     4     5    1
     8     4    16   ar
     9     5     6   am
    10     6     7    1
    11     6    15    2
    12     7     8   ar
    13     7    12   ar
    14     8     9   ar
    15     9    10   ar
    16     9    14    1
    17    10    11   ar
    18    10    13    1
    19    11    12   ar
    20    16    17   ar
    21    18    19   ar
    22    19    20   ar
    23    20    21   ar
    24    20    23    1
    25    21    22    1
    26    23    24   ar
    27    23    28   ar
    28    24    25   ar
    29    25    26   ar
    30    25    30    1
    31    26    27   ar
    32    26    29    1
    33    27    28   ar
