@<TRIPOS>MOLECULE
36468_ChemDiv_C214-0549
 33 36 0 0 0
SMALL
GASTEIGER
Energy = 0

@<TRIPOS>ATOM
      1 C           0.8330    0.0500    0.0000 C.ar    1  LIG1        0.0717
      2 C           1.7920    0.3130    0.0000 C.2     1  LIG1        0.1796
      3 C           2.4920   -0.4040    0.0000 C.3     1  LIG1        0.1092
      4 C           2.2380   -1.3630    0.0000 C.3     1  LIG1        0.1436
      5 O           1.2750   -1.6330    0.0000 O.3     1  LIG1       -0.4819
      6 C           0.5670   -0.9330    0.0000 C.ar    1  LIG1        0.1411
      7 C          -0.4080   -1.1880    0.0000 C.ar    1  LIG1        0.0401
      8 C          -1.1040   -0.4790    0.0000 C.ar    1  LIG1        0.0400
      9 C          -0.8170    0.5080    0.0000 C.ar    1  LIG1        0.1396
     10 C           0.1290    0.7670    0.0000 C.ar    1  LIG1        0.0428
     11 O          -1.5040    1.2460    0.0000 O.3     1  LIG1       -0.4656
     12 C          -1.1920    2.1960    0.0000 C.3     1  LIG1        0.2911
     13 C          -1.8750    2.9290    0.0000 C.2     1  LIG1        0.2859
     14 O          -1.5580    3.8710    0.0000 O.2     1  LIG1       -0.2693
     15 N          -2.8420    2.7170    0.0000 N.am    1  LIG1       -0.2019
     16 C          -3.1500    1.7580    0.0000 C.3     1  LIG1        0.1199
     17 C          -4.1130    1.5500    0.0000 C.3     1  LIG1        0.0498
     18 C          -4.4210    0.6000    0.0000 C.ar    1  LIG1       -0.0204
     19 C          -3.7540   -0.1500    0.0000 C.ar    1  LIG1       -0.0033
     20 C          -4.0500   -1.1000    0.0000 C.ar    1  LIG1        0.0111
     21 C          -5.0330   -1.3170    0.0000 C.ar    1  LIG1        0.0577
     22 CL         -5.3210   -2.2710    0.0000 Cl      1  LIG1       -0.0822
     23 C          -5.7040   -0.5790    0.0000 C.ar    1  LIG1        0.0111
     24 C          -5.3920    0.3880    0.0000 C.ar    1  LIG1       -0.0033
     25 C           3.0960   -0.8670    0.0000 C.3     1  LIG1        0.0620
     26 C           3.9670   -1.3750    0.0000 C.3     1  LIG1        0.0970
     27 N           3.9670   -2.3630    0.0000 N.am    1  LIG1       -0.2793
     28 C           4.8330   -2.8630    0.0000 C.2     1  LIG1        0.2261
     29 O           4.8330   -3.8670    0.0000 O.2     1  LIG1       -0.2749
     30 C           5.7000   -2.3670    0.0000 C.3     1  LIG1        0.0948
     31 C           3.0960   -2.8630    0.0000 C.3     1  LIG1        0.0970
     32 C           2.2380   -2.3630    0.0000 C.3     1  LIG1        0.0620
     33 O           2.0460    1.2790    0.0000 O.2     1  LIG1       -0.2911
@<TRIPOS>BOND
     1     1     2    1
     2     1     6   ar
     3     1    10   ar
     4     2     3    1
     5     2    33    2
     6     3     4    1
     7     4     5    1
     8     4    25    1
     9     4    32    1
    10     5     6    1
    11     6     7   ar
    12     7     8   ar
    13     8     9   ar
    14     9    10   ar
    15     9    11    1
    16    11    12    1
    17    12    13    1
    18    13    14    2
    19    13    15   am
    20    15    16    1
    21    16    17    1
    22    17    18    1
    23    18    19   ar
    24    18    24   ar
    25    19    20   ar
    26    20    21   ar
    27    21    22    1
    28    21    23   ar
    29    23    24   ar
    30    25    26    1
    31    26    27    1
    32    27    28   am
    33    27    31    1
    34    28    29    2
    35    28    30    1
    36    31    32    1
