@<TRIPOS>MOLECULE
36479_ChemDiv_E455-0071
 31 34 0 0 0
SMALL
GASTEIGER
Energy = 0

@<TRIPOS>ATOM
      1 C           1.4420   -0.0920    0.0000 C.ar    1  LIG1        0.0581
      2 C           1.0330    0.8210    0.0000 C.ar    1  LIG1        0.1852
      3 N           0.0380    0.9250    0.0000 N.ar    1  LIG1       -0.2250
      4 C          -0.5500    0.1170    0.0000 C.ar    1  LIG1        0.0861
      5 C          -0.1420   -0.7960    0.0000 C.ar    1  LIG1        0.0205
      6 C           0.8500   -0.9000    0.0000 C.ar    1  LIG1        0.0200
      7 C           1.2580   -1.8130    0.0000 C.2     1  LIG1        0.0731
      8 O           0.6710   -2.6210    0.0000 O.co2   1  LIG1       -0.5446
      9 O           2.2540   -1.9170    0.0000 O.co2   1  LIG1       -0.5446
     10 C          -1.5460    0.2210    0.0000 C.ar    1  LIG1        0.0549
     11 C          -2.1330   -0.5880    0.0000 C.ar    1  LIG1        0.1433
     12 C          -3.1250   -0.4830    0.0000 C.ar    1  LIG1        0.0769
     13 C          -3.5330    0.4330    0.0000 C.ar    1  LIG1        0.1754
     14 C          -2.9460    1.2420    0.0000 C.ar    1  LIG1        0.1726
     15 C          -1.9500    1.1380    0.0000 C.ar    1  LIG1        0.0446
     16 O          -3.3500    2.1540    0.0000 O.3     1  LIG1       -0.4684
     17 C          -2.7630    2.9630    0.0000 C.3     1  LIG1        0.2526
     18 O          -4.5290    0.5380    0.0000 O.3     1  LIG1       -0.4683
     19 C          -5.1170   -0.2710    0.0000 C.3     1  LIG1        0.2526
     20 O          -1.7250   -1.5000    0.0000 O.3     1  LIG1       -0.4713
     21 C          -0.7290   -1.6040    0.0000 C.3     1  LIG1        0.2525
     22 N           1.7750    1.4920    0.0000 N.ar    1  LIG1       -0.1284
     23 N           2.6420    0.9920    0.0000 N.ar    1  LIG1       -0.1464
     24 C           2.4330    0.0130    0.0000 C.ar    1  LIG1        0.1059
     25 C           3.1040   -0.7290    0.0000 C.ar    1  LIG1        0.0195
     26 C           4.0830   -0.5210    0.0000 C.ar    1  LIG1        0.0012
     27 C           4.7500   -1.2670    0.0000 C.ar    1  LIG1       -0.0042
     28 C           4.4420   -2.2170    0.0000 C.ar    1  LIG1       -0.0218
     29 C           3.4630   -2.4250    0.0000 C.ar    1  LIG1       -0.0042
     30 C           2.7960   -1.6790    0.0000 C.ar    1  LIG1        0.0012
     31 C           5.1130   -2.9580    0.0000 C.3     1  LIG1        0.0310
@<TRIPOS>BOND
     1     1     2   ar
     2     1     6   ar
     3     1    24   ar
     4     2     3   ar
     5     2    22   ar
     6     3     4   ar
     7     4     5   ar
     8     4    10    1
     9     5     6   ar
    10     6     7    1
    11     7     8   ar
    12     7     9   ar
    13    10    11   ar
    14    10    15   ar
    15    11    12   ar
    16    11    20    1
    17    12    13   ar
    18    13    14   ar
    19    13    18    1
    20    14    15   ar
    21    14    16    1
    22    16    17    1
    23    18    19    1
    24    20    21    1
    25    22    23   ar
    26    23    24   ar
    27    24    25    1
    28    25    26   ar
    29    25    30   ar
    30    26    27   ar
    31    27    28   ar
    32    28    29   ar
    33    28    31    1
    34    29    30   ar
