@<TRIPOS>MOLECULE
36475_ChemDiv_C202-1728
 29 33 0 0 0
SMALL
GASTEIGER
Energy = 0

@<TRIPOS>ATOM
      1 C           0.6500   -0.0920    0.0000 C.ar    1  LIG1        0.0581
      2 C           0.2420    0.8210    0.0000 C.ar    1  LIG1        0.1852
      3 N          -0.7540    0.9250    0.0000 N.ar    1  LIG1       -0.2251
      4 C          -1.3420    0.1170    0.0000 C.ar    1  LIG1        0.0830
      5 C          -0.9330   -0.7960    0.0000 C.ar    1  LIG1        0.0204
      6 C           0.0630   -0.9000    0.0000 C.ar    1  LIG1        0.0200
      7 C           0.4670   -1.8130    0.0000 C.2     1  LIG1        0.0731
      8 O          -0.1210   -2.6210    0.0000 O.co2   1  LIG1       -0.5446
      9 O           1.4630   -1.9170    0.0000 O.co2   1  LIG1       -0.5446
     10 C          -2.3330    0.2210    0.0000 C.ar    1  LIG1        0.0177
     11 C          -2.7420    1.1380    0.0000 C.ar    1  LIG1        0.0014
     12 C          -3.7380    1.2420    0.0000 C.ar    1  LIG1        0.0000
     13 C          -4.3250    0.4330    0.0000 C.ar    1  LIG1        0.0000
     14 C          -3.9170   -0.4830    0.0000 C.ar    1  LIG1        0.0000
     15 C          -2.9210   -0.5880    0.0000 C.ar    1  LIG1        0.0015
     16 C          -4.1420    2.1540    0.0000 C.ar    1  LIG1        0.0000
     17 C          -3.5540    2.9630    0.0000 C.ar    1  LIG1        0.0000
     18 C          -2.5580    2.8580    0.0000 C.ar    1  LIG1        0.0000
     19 C          -2.1540    1.9460    0.0000 C.ar    1  LIG1        0.0000
     20 N           0.9830    1.4920    0.0000 N.ar    1  LIG1       -0.1284
     21 N           1.8500    0.9920    0.0000 N.ar    1  LIG1       -0.1464
     22 C           1.6420    0.0130    0.0000 C.ar    1  LIG1        0.1059
     23 C           2.3130   -0.7290    0.0000 C.ar    1  LIG1        0.0196
     24 C           3.2920   -0.5210    0.0000 C.ar    1  LIG1        0.0039
     25 C           3.9580   -1.2670    0.0000 C.ar    1  LIG1        0.0297
     26 C           3.6500   -2.2170    0.0000 C.ar    1  LIG1        0.1401
     27 C           2.6710   -2.4250    0.0000 C.ar    1  LIG1        0.0297
     28 C           2.0040   -1.6790    0.0000 C.ar    1  LIG1        0.0039
     29 F           4.3210   -2.9580    0.0000 F       1  LIG1       -0.2042
@<TRIPOS>BOND
     1     1     2   ar
     2     1     6   ar
     3     1    22   ar
     4     2     3   ar
     5     2    20   ar
     6     3     4   ar
     7     4     5   ar
     8     4    10    1
     9     5     6   ar
    10     6     7    1
    11     7     8   ar
    12     7     9   ar
    13    10    11   ar
    14    10    15   ar
    15    11    12   ar
    16    11    19   ar
    17    12    13   ar
    18    12    16   ar
    19    13    14   ar
    20    14    15   ar
    21    16    17   ar
    22    17    18   ar
    23    18    19   ar
    24    20    21   ar
    25    21    22   ar
    26    22    23    1
    27    23    24   ar
    28    23    28   ar
    29    24    25   ar
    30    25    26   ar
    31    26    27   ar
    32    26    29    1
    33    27    28   ar
