@<TRIPOS>MOLECULE
36476_ChemDiv_C214-0561
 33 36 0 0 0
SMALL
GASTEIGER
Energy = 0

@<TRIPOS>ATOM
      1 C           1.0040   -0.0040    0.0000 C.ar    1  LIG1        0.0717
      2 C           1.9670    0.2380    0.0000 C.2     1  LIG1        0.1796
      3 C           2.6790   -0.4540    0.0000 C.3     1  LIG1        0.1092
      4 C           2.4250   -1.4210    0.0000 C.3     1  LIG1        0.1436
      5 O           1.4580   -1.6830    0.0000 O.3     1  LIG1       -0.4819
      6 C           0.7580   -0.9710    0.0000 C.ar    1  LIG1        0.1411
      7 C          -0.2170   -1.2380    0.0000 C.ar    1  LIG1        0.0401
      8 C          -0.9330   -0.5330    0.0000 C.ar    1  LIG1        0.0400
      9 C          -0.6500    0.4540    0.0000 C.ar    1  LIG1        0.1396
     10 C           0.3040    0.7040    0.0000 C.ar    1  LIG1        0.0428
     11 O          -1.3250    1.1920    0.0000 O.3     1  LIG1       -0.4656
     12 C          -1.0130    2.1380    0.0000 C.3     1  LIG1        0.2911
     13 C          -1.6880    2.8750    0.0000 C.2     1  LIG1        0.2862
     14 N          -2.6500    2.6630    0.0000 N.am    1  LIG1       -0.1973
     15 C          -2.9580    1.7170    0.0000 C.3     1  LIG1        0.1446
     16 C          -3.9380    1.4880    0.0000 C.ar    1  LIG1        0.0334
     17 C          -4.6040    2.2250    0.0000 C.ar    1  LIG1        0.1364
     18 O          -4.3000    3.1920    0.0000 O.3     1  LIG1       -0.4717
     19 C          -4.9830    3.9250    0.0000 C.3     1  LIG1        0.2525
     20 C          -5.5880    2.0250    0.0000 C.ar    1  LIG1        0.0366
     21 C          -5.8960    1.0750    0.0000 C.ar    1  LIG1        0.0031
     22 C          -5.2170    0.3330    0.0000 C.ar    1  LIG1       -0.0001
     23 C          -4.2420    0.5460    0.0000 C.ar    1  LIG1        0.0005
     24 O          -1.3830    3.8170    0.0000 O.2     1  LIG1       -0.2693
     25 C           3.2920   -0.9170    0.0000 C.3     1  LIG1        0.0620
     26 C           4.1580   -1.4210    0.0000 C.3     1  LIG1        0.0970
     27 N           4.1580   -2.4210    0.0000 N.am    1  LIG1       -0.2793
     28 C           5.0210   -2.9210    0.0000 C.2     1  LIG1        0.2261
     29 O           5.0330   -3.9210    0.0000 O.2     1  LIG1       -0.2749
     30 C           5.8920   -2.4290    0.0000 C.3     1  LIG1        0.0948
     31 C           3.2920   -2.9210    0.0000 C.3     1  LIG1        0.0970
     32 C           2.4250   -2.4210    0.0000 C.3     1  LIG1        0.0620
     33 O           2.2250    1.2170    0.0000 O.2     1  LIG1       -0.2911
@<TRIPOS>BOND
     1     1     2    1
     2     1     6   ar
     3     1    10   ar
     4     2     3    1
     5     2    33    2
     6     3     4    1
     7     4     5    1
     8     4    25    1
     9     4    32    1
    10     5     6    1
    11     6     7   ar
    12     7     8   ar
    13     8     9   ar
    14     9    10   ar
    15     9    11    1
    16    11    12    1
    17    12    13    1
    18    13    14   am
    19    13    24    2
    20    14    15    1
    21    15    16    1
    22    16    17   ar
    23    16    23   ar
    24    17    18    1
    25    17    20   ar
    26    18    19    1
    27    20    21   ar
    28    21    22   ar
    29    22    23   ar
    30    25    26    1
    31    26    27    1
    32    27    28   am
    33    27    31    1
    34    28    29    2
    35    28    30    1
    36    31    32    1
