@<TRIPOS>MOLECULE
36472_ChemDiv_C214-0554
 32 35 0 0 0
SMALL
GASTEIGER
Energy = 0

@<TRIPOS>ATOM
      1 C           1.5130    0.0380    0.0000 C.ar    1  LIG1        0.0717
      2 C           2.4500    0.3040    0.0000 C.2     1  LIG1        0.1796
      3 C           3.1710   -0.3960    0.0000 C.3     1  LIG1        0.1092
      4 C           2.9040   -1.3710    0.0000 C.3     1  LIG1        0.1436
      5 O           1.9460   -1.6290    0.0000 O.3     1  LIG1       -0.4819
      6 C           1.2380   -0.9380    0.0000 C.ar    1  LIG1        0.1411
      7 C           0.2670   -1.1880    0.0000 C.ar    1  LIG1        0.0401
      8 C          -0.4380   -0.4750    0.0000 C.ar    1  LIG1        0.0400
      9 C          -0.1670    0.5130    0.0000 C.ar    1  LIG1        0.1396
     10 C           0.8000    0.7630    0.0000 C.ar    1  LIG1        0.0428
     11 O          -0.8380    1.2460    0.0000 O.3     1  LIG1       -0.4656
     12 C          -0.5250    2.1790    0.0000 C.3     1  LIG1        0.2911
     13 C          -1.1960    2.9250    0.0000 C.2     1  LIG1        0.2862
     14 N          -2.1670    2.7000    0.0000 N.am    1  LIG1       -0.1974
     15 C          -2.4710    1.7580    0.0000 C.3     1  LIG1        0.1416
     16 C          -3.4540    1.5330    0.0000 C.ar    1  LIG1       -0.0006
     17 C          -3.7500    0.6000    0.0000 C.ar    1  LIG1       -0.0029
     18 C          -4.7210    0.3710    0.0000 C.ar    1  LIG1       -0.0045
     19 C          -5.4000    1.1210    0.0000 C.ar    1  LIG1       -0.0219
     20 C          -5.0960    2.0670    0.0000 C.ar    1  LIG1       -0.0045
     21 C          -4.1250    2.2960    0.0000 C.ar    1  LIG1       -0.0029
     22 C          -6.3790    0.8960    0.0000 C.3     1  LIG1        0.0310
     23 O          -0.8830    3.8710    0.0000 O.2     1  LIG1       -0.2693
     24 C           3.7750   -0.8750    0.0000 C.3     1  LIG1        0.0620
     25 C           4.6500   -1.3710    0.0000 C.3     1  LIG1        0.0970
     26 N           4.6500   -2.3710    0.0000 N.am    1  LIG1       -0.2793
     27 C           5.5040   -2.8710    0.0000 C.2     1  LIG1        0.2261
     28 O           5.5040   -3.8670    0.0000 O.2     1  LIG1       -0.2749
     29 C           6.3790   -2.3750    0.0000 C.3     1  LIG1        0.0948
     30 C           3.7750   -2.8710    0.0000 C.3     1  LIG1        0.0970
     31 C           2.9210   -2.3710    0.0000 C.3     1  LIG1        0.0620
     32 O           2.7170    1.2710    0.0000 O.2     1  LIG1       -0.2911
@<TRIPOS>BOND
     1     1     2    1
     2     1     6   ar
     3     1    10   ar
     4     2     3    1
     5     2    32    2
     6     3     4    1
     7     4     5    1
     8     4    24    1
     9     4    31    1
    10     5     6    1
    11     6     7   ar
    12     7     8   ar
    13     8     9   ar
    14     9    10   ar
    15     9    11    1
    16    11    12    1
    17    12    13    1
    18    13    14   am
    19    13    23    2
    20    14    15    1
    21    15    16    1
    22    16    17   ar
    23    16    21   ar
    24    17    18   ar
    25    18    19   ar
    26    19    20   ar
    27    19    22    1
    28    20    21   ar
    29    24    25    1
    30    25    26    1
    31    26    27   am
    32    26    30    1
    33    27    28    2
    34    27    29    1
    35    30    31    1
