@<TRIPOS>MOLECULE
36470_ChemDiv_C214-0552
 30 33 0 0 0
SMALL
GASTEIGER
Energy = 0

@<TRIPOS>ATOM
      1 C           0.8210    0.0500    0.0000 C.ar    1  LIG1        0.0717
      2 C           1.7790    0.3000    0.0000 C.2     1  LIG1        0.1796
      3 C           2.4830   -0.3880    0.0000 C.3     1  LIG1        0.1092
      4 C           2.2380   -1.3630    0.0000 C.3     1  LIG1        0.1436
      5 O           1.2750   -1.6250    0.0000 O.3     1  LIG1       -0.4819
      6 C           0.5580   -0.9330    0.0000 C.ar    1  LIG1        0.1411
      7 C          -0.4080   -1.1710    0.0000 C.ar    1  LIG1        0.0401
      8 C          -1.1170   -0.4710    0.0000 C.ar    1  LIG1        0.0400
      9 C          -0.8290    0.5080    0.0000 C.ar    1  LIG1        0.1396
     10 C           0.1210    0.7710    0.0000 C.ar    1  LIG1        0.0428
     11 O          -1.5080    1.2460    0.0000 O.3     1  LIG1       -0.4656
     12 C          -1.1920    2.1960    0.0000 C.3     1  LIG1        0.2911
     13 C          -1.8750    2.9290    0.0000 C.2     1  LIG1        0.2863
     14 N          -2.8420    2.7170    0.0000 N.am    1  LIG1       -0.1940
     15 C          -3.1500    1.7710    0.0000 C.3     1  LIG1        0.1792
     16 C          -4.1130    1.5540    0.0000 C.ar    1  LIG1        0.1449
     17 O          -4.6080    0.6830    0.0000 O.2     1  LIG1       -0.4529
     18 C          -5.6000    0.8960    0.0000 C.ar    1  LIG1        0.1792
     19 C          -5.7040    1.8710    0.0000 C.ar    1  LIG1        0.0435
     20 C          -4.7880    2.2920    0.0000 C.ar    1  LIG1        0.0380
     21 O          -1.5630    3.8710    0.0000 O.2     1  LIG1       -0.2693
     22 C           3.0960   -0.8580    0.0000 C.3     1  LIG1        0.0620
     23 C           3.9710   -1.3630    0.0000 C.3     1  LIG1        0.0970
     24 N           3.9710   -2.3630    0.0000 N.am    1  LIG1       -0.2793
     25 C           4.8380   -2.8630    0.0000 C.2     1  LIG1        0.2261
     26 O           4.8380   -3.8670    0.0000 O.2     1  LIG1       -0.2749
     27 C           5.7000   -2.3630    0.0000 C.3     1  LIG1        0.0948
     28 C           3.0880   -2.8630    0.0000 C.3     1  LIG1        0.0970
     29 C           2.2380   -2.3630    0.0000 C.3     1  LIG1        0.0620
     30 O           2.0460    1.2790    0.0000 O.2     1  LIG1       -0.2911
@<TRIPOS>BOND
     1     1     2    1
     2     1     6   ar
     3     1    10   ar
     4     2     3    1
     5     2    30    2
     6     3     4    1
     7     4     5    1
     8     4    22    1
     9     4    29    1
    10     5     6    1
    11     6     7   ar
    12     7     8   ar
    13     8     9   ar
    14     9    10   ar
    15     9    11    1
    16    11    12    1
    17    12    13    1
    18    13    14   am
    19    13    21    2
    20    14    15    1
    21    15    16    1
    22    16    17   ar
    23    16    20   ar
    24    17    18   ar
    25    18    19   ar
    26    19    20   ar
    27    22    23    1
    28    23    24    1
    29    24    25   am
    30    24    28    1
    31    25    26    2
    32    25    27    1
    33    28    29    1
