@<TRIPOS>MOLECULE
36474_ChemDiv_C214-0555
 34 38 0 0 0
SMALL
GASTEIGER
Energy = 0

@<TRIPOS>ATOM
      1 C           1.4710    0.0500    0.0000 C.ar    1  LIG1        0.0717
      2 C           2.4130    0.2960    0.0000 C.2     1  LIG1        0.1796
      3 C           3.1290   -0.4170    0.0000 C.3     1  LIG1        0.1092
      4 C           2.8750   -1.3630    0.0000 C.3     1  LIG1        0.1436
      5 O           1.9170   -1.6460    0.0000 O.3     1  LIG1       -0.4819
      6 C           1.2000   -0.9460    0.0000 C.ar    1  LIG1        0.1411
      7 C           0.2210   -1.1920    0.0000 C.ar    1  LIG1        0.0401
      8 C          -0.4750   -0.4790    0.0000 C.ar    1  LIG1        0.0400
      9 C          -0.1920    0.5000    0.0000 C.ar    1  LIG1        0.1396
     10 C           0.7580    0.7580    0.0000 C.ar    1  LIG1        0.0428
     11 O          -0.8710    1.2380    0.0000 O.3     1  LIG1       -0.4656
     12 C          -0.5630    2.1960    0.0000 C.3     1  LIG1        0.2911
     13 C          -1.2380    2.9210    0.0000 C.2     1  LIG1        0.2862
     14 N          -2.2080    2.7080    0.0000 N.am    1  LIG1       -0.1974
     15 C          -2.5170    1.7670    0.0000 C.3     1  LIG1        0.1417
     16 C          -3.4960    1.5460    0.0000 C.ar    1  LIG1        0.0027
     17 C          -3.8040    0.6040    0.0000 C.ar    1  LIG1        0.0376
     18 C          -4.7670    0.3790    0.0000 C.ar    1  LIG1        0.1762
     19 C          -5.4460    1.1250    0.0000 C.ar    1  LIG1        0.1764
     20 O          -6.3420    0.6960    0.0000 O.3     1  LIG1       -0.4346
     21 C          -6.2500   -0.2710    0.0000 C.3     1  LIG1        0.4294
     22 O          -5.2540   -0.4960    0.0000 O.3     1  LIG1       -0.4346
     23 C          -5.1380    2.0750    0.0000 C.ar    1  LIG1        0.0399
     24 C          -4.1710    2.2790    0.0000 C.ar    1  LIG1        0.0008
     25 O          -0.9330    3.8790    0.0000 O.2     1  LIG1       -0.2693
     26 C           2.8750   -2.3710    0.0000 C.3     1  LIG1        0.0620
     27 C           3.7330   -2.8750    0.0000 C.3     1  LIG1        0.0970
     28 N           4.6040   -2.3830    0.0000 N.am    1  LIG1       -0.2793
     29 C           5.4790   -2.8750    0.0000 C.2     1  LIG1        0.2261
     30 O           5.4790   -3.8750    0.0000 O.2     1  LIG1       -0.2749
     31 C           6.3420   -2.3830    0.0000 C.3     1  LIG1        0.0948
     32 C           4.6040   -1.3750    0.0000 C.3     1  LIG1        0.0970
     33 C           3.7460   -0.8670    0.0000 C.3     1  LIG1        0.0620
     34 O           2.6750    1.2790    0.0000 O.2     1  LIG1       -0.2911
@<TRIPOS>BOND
     1     1     2    1
     2     1     6   ar
     3     1    10   ar
     4     2     3    1
     5     2    34    2
     6     3     4    1
     7     4     5    1
     8     4    26    1
     9     4    33    1
    10     5     6    1
    11     6     7   ar
    12     7     8   ar
    13     8     9   ar
    14     9    10   ar
    15     9    11    1
    16    11    12    1
    17    12    13    1
    18    13    14   am
    19    13    25    2
    20    14    15    1
    21    15    16    1
    22    16    17   ar
    23    16    24   ar
    24    17    18   ar
    25    18    19   ar
    26    18    22    1
    27    19    20    1
    28    19    23   ar
    29    20    21    1
    30    21    22    1
    31    23    24   ar
    32    26    27    1
    33    27    28    1
    34    28    29   am
    35    28    32    1
    36    29    30    2
    37    29    31    1
    38    32    33    1
