@<TRIPOS>MOLECULE
36478_ChemDiv_C214-0572
 31 34 0 0 0
SMALL
GASTEIGER
Energy = 0

@<TRIPOS>ATOM
      1 C           1.0040    0.0500    0.0000 C.ar    1  LIG1        0.0717
      2 C           1.9630    0.2960    0.0000 C.2     1  LIG1        0.1796
      3 C           2.6790   -0.4000    0.0000 C.3     1  LIG1        0.1092
      4 C           2.4210   -1.3670    0.0000 C.3     1  LIG1        0.1436
      5 O           1.4580   -1.6380    0.0000 O.3     1  LIG1       -0.4819
      6 C           0.7580   -0.9460    0.0000 C.ar    1  LIG1        0.1411
      7 C          -0.2170   -1.1960    0.0000 C.ar    1  LIG1        0.0401
      8 C          -0.9290   -0.4920    0.0000 C.ar    1  LIG1        0.0400
      9 C          -0.6460    0.5080    0.0000 C.ar    1  LIG1        0.1396
     10 C           0.3040    0.7500    0.0000 C.ar    1  LIG1        0.0428
     11 O          -1.3250    1.2460    0.0000 O.3     1  LIG1       -0.4656
     12 C          -1.0130    2.1880    0.0000 C.3     1  LIG1        0.2911
     13 C          -1.6830    2.9290    0.0000 C.2     1  LIG1        0.2862
     14 N          -2.6460    2.7130    0.0000 N.am    1  LIG1       -0.1974
     15 C          -2.9540    1.7710    0.0000 C.3     1  LIG1        0.1416
     16 C          -3.9330    1.5420    0.0000 C.ar    1  LIG1       -0.0006
     17 C          -4.2380    0.6000    0.0000 C.ar    1  LIG1       -0.0026
     18 C          -5.2130    0.3750    0.0000 C.ar    1  LIG1       -0.0003
     19 C          -5.8880    1.1250    0.0000 C.ar    1  LIG1       -0.0000
     20 C          -5.5790    2.0750    0.0000 C.ar    1  LIG1       -0.0003
     21 C          -4.6000    2.2830    0.0000 C.ar    1  LIG1       -0.0026
     22 O          -1.3790    3.8750    0.0000 O.2     1  LIG1       -0.2693
     23 C           3.2880   -0.8750    0.0000 C.3     1  LIG1        0.0620
     24 C           4.1540   -1.3670    0.0000 C.3     1  LIG1        0.0970
     25 N           4.1540   -2.3750    0.0000 N.am    1  LIG1       -0.2793
     26 C           5.0170   -2.8750    0.0000 C.2     1  LIG1        0.2261
     27 O           5.0290   -3.8710    0.0000 O.2     1  LIG1       -0.2749
     28 C           5.8830   -2.3750    0.0000 C.3     1  LIG1        0.0948
     29 C           3.2880   -2.8750    0.0000 C.3     1  LIG1        0.0970
     30 C           2.4210   -2.3750    0.0000 C.3     1  LIG1        0.0620
     31 O           2.2250    1.2710    0.0000 O.2     1  LIG1       -0.2911
@<TRIPOS>BOND
     1     1     2    1
     2     1     6   ar
     3     1    10   ar
     4     2     3    1
     5     2    31    2
     6     3     4    1
     7     4     5    1
     8     4    23    1
     9     4    30    1
    10     5     6    1
    11     6     7   ar
    12     7     8   ar
    13     8     9   ar
    14     9    10   ar
    15     9    11    1
    16    11    12    1
    17    12    13    1
    18    13    14   am
    19    13    22    2
    20    14    15    1
    21    15    16    1
    22    16    17   ar
    23    16    21   ar
    24    17    18   ar
    25    18    19   ar
    26    19    20   ar
    27    20    21   ar
    28    23    24    1
    29    24    25    1
    30    25    26   am
    31    25    29    1
    32    26    27    2
    33    26    28    1
    34    29    30    1
