@<TRIPOS>MOLECULE
36486_ChemDiv_C250-0514
 24 26 0 0 0
SMALL
GASTEIGER
Energy = 0

@<TRIPOS>ATOM
      1 N          -0.1130    1.4500    0.0000 N.am    1  LIG1       -0.2325
      2 C          -0.4290    0.4960    0.0000 C.2     1  LIG1        0.1091
      3 C          -1.4290    0.5040    0.0000 C.2     1  LIG1        0.0980
      4 N          -1.7330    1.4500    0.0000 N.2     1  LIG1       -0.2534
      5 C          -0.9130    2.0750    0.0000 C.3     1  LIG1        0.1499
      6 C          -1.7630    2.5710    0.0000 C.3     1  LIG1        0.0456
      7 C          -0.1750    2.7290    0.0000 C.3     1  LIG1        0.0456
      8 C          -2.0130   -0.3130    0.0000 C.ar    1  LIG1        0.0191
      9 C          -3.0130   -0.2000    0.0000 C.ar    1  LIG1        0.0020
     10 C          -3.5960   -1.0080    0.0000 C.ar    1  LIG1        0.0067
     11 C          -3.1920   -1.9210    0.0000 C.ar    1  LIG1        0.0346
     12 C          -2.1920   -2.0330    0.0000 C.ar    1  LIG1        0.0067
     13 C          -1.6080   -1.2170    0.0000 C.ar    1  LIG1        0.0020
     14 BR         -3.7920   -2.7250    0.0000 Br      1  LIG1       -0.0490
     15 S           0.1630   -0.3170    0.0000 S.2     1  LIG1       -0.0327
     16 C           0.8420    1.7580    0.0000 C.2     1  LIG1        0.2544
     17 C           1.5750    1.0880    0.0000 C.ar    1  LIG1        0.0539
     18 C           1.3670    0.1170    0.0000 C.ar    1  LIG1        0.0042
     19 C           2.1000   -0.5580    0.0000 C.ar    1  LIG1       -0.0041
     20 C           3.0540   -0.2460    0.0000 C.ar    1  LIG1       -0.0218
     21 C           3.2670    0.7290    0.0000 C.ar    1  LIG1       -0.0041
     22 C           2.5170    1.3920    0.0000 C.ar    1  LIG1        0.0042
     23 C           3.7880   -0.9130    0.0000 C.3     1  LIG1        0.0310
     24 O           1.0460    2.7290    0.0000 O.2     1  LIG1       -0.2695
@<TRIPOS>BOND
     1     1     2    1
     2     1     5    1
     3     1    16   am
     4     2     3    1
     5     2    15    2
     6     3     4    2
     7     3     8    1
     8     4     5    1
     9     5     6    1
    10     5     7    1
    11     8     9   ar
    12     8    13   ar
    13     9    10   ar
    14    10    11   ar
    15    11    12   ar
    16    11    14    1
    17    12    13   ar
    18    16    17    1
    19    16    24    2
    20    17    18   ar
    21    17    22   ar
    22    18    19   ar
    23    19    20   ar
    24    20    21   ar
    25    20    23    1
    26    21    22   ar
