@<TRIPOS>MOLECULE
36480_ChemDiv_C214-0598
 34 37 0 0 0
SMALL
GASTEIGER
Energy = 0

@<TRIPOS>ATOM
      1 C           1.6790    0.0580    0.0000 C.ar    1  LIG1        0.0717
      2 C           2.6380    0.3130    0.0000 C.2     1  LIG1        0.1796
      3 C           3.3380   -0.4040    0.0000 C.3     1  LIG1        0.1092
      4 C           3.0830   -1.3670    0.0000 C.3     1  LIG1        0.1436
      5 O           2.1250   -1.6330    0.0000 O.3     1  LIG1       -0.4819
      6 C           1.3960   -0.9420    0.0000 C.ar    1  LIG1        0.1411
      7 C           0.4380   -1.1880    0.0000 C.ar    1  LIG1        0.0401
      8 C          -0.2540   -0.4830    0.0000 C.ar    1  LIG1        0.0400
      9 C           0.0170    0.5130    0.0000 C.ar    1  LIG1        0.1396
     10 C           0.9750    0.7670    0.0000 C.ar    1  LIG1        0.0428
     11 O          -0.6500    1.2420    0.0000 O.3     1  LIG1       -0.4656
     12 C          -0.3630    2.1880    0.0000 C.3     1  LIG1        0.2896
     13 C          -1.0210    2.9380    0.0000 C.2     1  LIG1        0.2703
     14 N          -2.0080    2.7080    0.0000 N.am    1  LIG1       -0.2730
     15 C          -2.6670    3.4670    0.0000 C.3     1  LIG1        0.1151
     16 C          -3.6420    3.2500    0.0000 C.3     1  LIG1        0.1182
     17 N          -3.9630    2.2920    0.0000 N.am    1  LIG1       -0.2425
     18 C          -4.9290    2.0830    0.0000 C.2     1  LIG1        0.4050
     19 O          -5.6170    2.8250    0.0000 O.2     1  LIG1       -0.2262
     20 O          -5.2500    1.1460    0.0000 O.3     1  LIG1       -0.4345
     21 C          -6.2330    0.9380    0.0000 C.3     1  LIG1        0.2102
     22 C          -6.5380   -0.0380    0.0000 C.3     1  LIG1        0.0513
     23 C          -3.2670    1.5580    0.0000 C.3     1  LIG1        0.1182
     24 C          -2.3130    1.7670    0.0000 C.3     1  LIG1        0.1151
     25 O          -0.7130    3.8750    0.0000 O.2     1  LIG1       -0.2708
     26 C           3.9380   -0.8790    0.0000 C.3     1  LIG1        0.0620
     27 C           4.8080   -1.3670    0.0000 C.3     1  LIG1        0.0970
     28 N           4.8130   -2.3630    0.0000 N.am    1  LIG1       -0.2793
     29 C           5.6750   -2.8750    0.0000 C.2     1  LIG1        0.2261
     30 O           5.6750   -3.8710    0.0000 O.2     1  LIG1       -0.2749
     31 C           6.5380   -2.3710    0.0000 C.3     1  LIG1        0.0948
     32 C           3.9380   -2.8750    0.0000 C.3     1  LIG1        0.0970
     33 C           3.0830   -2.3630    0.0000 C.3     1  LIG1        0.0620
     34 O           2.8750    1.2790    0.0000 O.2     1  LIG1       -0.2911
@<TRIPOS>BOND
     1     1     2    1
     2     1     6   ar
     3     1    10   ar
     4     2     3    1
     5     2    34    2
     6     3     4    1
     7     4     5    1
     8     4    26    1
     9     4    33    1
    10     5     6    1
    11     6     7   ar
    12     7     8   ar
    13     8     9   ar
    14     9    10   ar
    15     9    11    1
    16    11    12    1
    17    12    13    1
    18    13    14   am
    19    13    25    2
    20    14    15    1
    21    14    24    1
    22    15    16    1
    23    16    17    1
    24    17    18   am
    25    17    23    1
    26    18    19    2
    27    18    20    1
    28    20    21    1
    29    21    22    1
    30    23    24    1
    31    26    27    1
    32    27    28    1
    33    28    29   am
    34    28    32    1
    35    29    30    2
    36    29    31    1
    37    32    33    1
