@<TRIPOS>MOLECULE
36487_ChemDiv_G193-0469
 30 33 0 0 0
SMALL
GASTEIGER
Energy = 0

@<TRIPOS>ATOM
      1 C          -1.6500   -0.1330    0.0000 C.ar    1  LIG1        0.1542
      2 C          -0.8420   -0.7250    0.0000 C.ar    1  LIG1        0.1923
      3 N           0.1130   -0.4080    0.0000 N.ar    1  LIG1       -0.2005
      4 C           0.7040   -1.2080    0.0000 C.ar    1  LIG1        0.2051
      5 N           1.7040   -1.1960    0.0000 N.am    1  LIG1       -0.1493
      6 C           2.2130   -2.0580    0.0000 C.2     1  LIG1        0.2707
      7 C           3.2130   -2.0580    0.0000 C.ar    1  LIG1        0.0551
      8 C           3.6960   -1.1920    0.0000 C.ar    1  LIG1        0.0000
      9 C           4.6880   -1.1790    0.0000 C.ar    1  LIG1       -0.0256
     10 C           5.2040   -2.0420    0.0000 C.ar    1  LIG1       -0.0258
     11 C           4.7130   -2.9080    0.0000 C.ar    1  LIG1       -0.0044
     12 C           3.7130   -2.9210    0.0000 C.ar    1  LIG1        0.0042
     13 C           6.2040   -2.0380    0.0000 C.3     1  LIG1        0.0307
     14 C           5.1880   -0.3000    0.0000 C.3     1  LIG1        0.0307
     15 O           1.7170   -2.9210    0.0000 O.2     1  LIG1       -0.2679
     16 S           0.1250   -2.0130    0.0000 S.2     1  LIG1        0.0514
     17 N          -0.8290   -1.7080    0.0000 N.ar    1  LIG1       -0.1855
     18 C          -2.6040   -0.4540    0.0000 C.ar    1  LIG1        0.0848
     19 N          -3.2080    0.3500    0.0000 N.ar    1  LIG1       -0.2147
     20 N          -2.6290    1.1710    0.0000 N.ar    1  LIG1       -0.0598
     21 N          -1.6630    0.8670    0.0000 N.ar    1  LIG1       -0.1257
     22 C          -4.2080    0.3380    0.0000 C.ar    1  LIG1        0.0801
     23 C          -4.7210    1.2000    0.0000 C.ar    1  LIG1       -0.0045
     24 C          -4.2290    2.0670    0.0000 C.3     1  LIG1        0.0279
     25 C          -4.7380    2.9250    0.0000 C.3     1  LIG1        0.0051
     26 C          -5.7210    1.1830    0.0000 C.ar    1  LIG1       -0.0028
     27 C          -6.2040    0.3080    0.0000 C.ar    1  LIG1       -0.0002
     28 C          -5.6920   -0.5540    0.0000 C.ar    1  LIG1        0.0015
     29 C          -4.6920   -0.5290    0.0000 C.ar    1  LIG1        0.0189
     30 C          -2.9080   -1.4080    0.0000 C.3     1  LIG1        0.0540
@<TRIPOS>BOND
     1     1     2    1
     2     1    18   ar
     3     1    21   ar
     4     2     3   ar
     5     2    17   ar
     6     3     4   ar
     7     4     5    1
     8     4    16   ar
     9     5     6   am
    10     6     7    1
    11     6    15    2
    12     7     8   ar
    13     7    12   ar
    14     8     9   ar
    15     9    10   ar
    16     9    14    1
    17    10    11   ar
    18    10    13    1
    19    11    12   ar
    20    16    17   ar
    21    18    19   ar
    22    18    30    1
    23    19    20   ar
    24    19    22    1
    25    20    21   ar
    26    22    23   ar
    27    22    29   ar
    28    23    24    1
    29    23    26   ar
    30    24    25    1
    31    26    27   ar
    32    27    28   ar
    33    28    29   ar
