@<TRIPOS>MOLECULE
36482_ChemDiv_C250-0256
 25 28 0 0 0
SMALL
GASTEIGER
Energy = 0

@<TRIPOS>ATOM
      1 N          -0.2080    0.6540    0.0000 N.am    1  LIG1       -0.2325
      2 C          -0.5210   -0.3040    0.0000 C.2     1  LIG1        0.1091
      3 C          -1.5250   -0.2960    0.0000 C.2     1  LIG1        0.0980
      4 N          -1.8380    0.6540    0.0000 N.2     1  LIG1       -0.2534
      5 C          -1.0210    1.2540    0.0000 C.3     1  LIG1        0.1497
      6 C          -1.7630    1.9210    0.0000 C.3     1  LIG1        0.0419
      7 C          -1.3580    2.8290    0.0000 C.3     1  LIG1        0.0038
      8 C          -0.3710    2.7330    0.0000 C.3     1  LIG1        0.0038
      9 C          -0.1580    1.7580    0.0000 C.3     1  LIG1        0.0419
     10 C          -2.1130   -1.1040    0.0000 C.ar    1  LIG1        0.0190
     11 C          -3.1130   -0.9960    0.0000 C.ar    1  LIG1        0.0015
     12 C          -3.7000   -1.8000    0.0000 C.ar    1  LIG1        0.0000
     13 C          -3.3000   -2.7210    0.0000 C.ar    1  LIG1        0.0000
     14 C          -2.2960   -2.8250    0.0000 C.ar    1  LIG1        0.0000
     15 C          -1.7040   -2.0080    0.0000 C.ar    1  LIG1        0.0015
     16 S           0.0670   -1.1130    0.0000 S.2     1  LIG1       -0.0327
     17 C           0.7420    0.9670    0.0000 C.2     1  LIG1        0.2544
     18 C           1.4830    0.2920    0.0000 C.ar    1  LIG1        0.0541
     19 C           1.2630   -0.6790    0.0000 C.ar    1  LIG1        0.0068
     20 C           2.0040   -1.3460    0.0000 C.ar    1  LIG1        0.0298
     21 C           2.9540   -1.0420    0.0000 C.ar    1  LIG1        0.1401
     22 C           3.1670   -0.0630    0.0000 C.ar    1  LIG1        0.0298
     23 C           2.4210    0.6040    0.0000 C.ar    1  LIG1        0.0068
     24 F           3.6960   -1.7080    0.0000 F       1  LIG1       -0.2042
     25 O           0.9460    1.9330    0.0000 O.2     1  LIG1       -0.2695
@<TRIPOS>BOND
     1     1     2    1
     2     1     5    1
     3     1    17   am
     4     2     3    1
     5     2    16    2
     6     3     4    2
     7     3    10    1
     8     4     5    1
     9     5     6    1
    10     5     9    1
    11     6     7    1
    12     7     8    1
    13     8     9    1
    14    10    11   ar
    15    10    15   ar
    16    11    12   ar
    17    12    13   ar
    18    13    14   ar
    19    14    15   ar
    20    17    18    1
    21    17    25    2
    22    18    19   ar
    23    18    23   ar
    24    19    20   ar
    25    20    21   ar
    26    21    22   ar
    27    21    24    1
    28    22    23   ar
