@<TRIPOS>MOLECULE
36488_ChemDiv_C250-0525
 23 25 0 0 0
SMALL
GASTEIGER
Energy = 0

@<TRIPOS>ATOM
      1 N          -0.2130    1.1040    0.0000 N.am    1  LIG1       -0.2325
      2 C          -0.5250    0.1460    0.0000 C.2     1  LIG1        0.1091
      3 C          -1.5250    0.1580    0.0000 C.2     1  LIG1        0.0980
      4 N          -1.8290    1.1040    0.0000 N.2     1  LIG1       -0.2534
      5 C          -1.0040    1.7250    0.0000 C.3     1  LIG1        0.1499
      6 C          -1.8710    2.2080    0.0000 C.3     1  LIG1        0.0456
      7 C          -0.1500    2.2250    0.0000 C.3     1  LIG1        0.0456
      8 C          -2.1080   -0.6580    0.0000 C.ar    1  LIG1        0.0190
      9 C          -1.7040   -1.5630    0.0000 C.ar    1  LIG1        0.0015
     10 C          -2.2880   -2.3790    0.0000 C.ar    1  LIG1        0.0000
     11 C          -3.2920   -2.2670    0.0000 C.ar    1  LIG1        0.0000
     12 C          -3.6960   -1.3540    0.0000 C.ar    1  LIG1        0.0000
     13 C          -3.1130   -0.5460    0.0000 C.ar    1  LIG1        0.0015
     14 S           0.0670   -0.6670    0.0000 S.2     1  LIG1       -0.0327
     15 C           0.7460    1.4130    0.0000 C.2     1  LIG1        0.2544
     16 C           1.4790    0.7420    0.0000 C.ar    1  LIG1        0.0539
     17 C           1.2710   -0.2330    0.0000 C.ar    1  LIG1        0.0042
     18 C           2.0000   -0.9040    0.0000 C.ar    1  LIG1       -0.0041
     19 C           2.9580   -0.5920    0.0000 C.ar    1  LIG1       -0.0218
     20 C           3.1670    0.3830    0.0000 C.ar    1  LIG1       -0.0041
     21 C           2.4210    1.0460    0.0000 C.ar    1  LIG1        0.0042
     22 C           3.6920   -1.2580    0.0000 C.3     1  LIG1        0.0310
     23 O           0.9500    2.3830    0.0000 O.2     1  LIG1       -0.2695
@<TRIPOS>BOND
     1     1     2    1
     2     1     5    1
     3     1    15   am
     4     2     3    1
     5     2    14    2
     6     3     4    2
     7     3     8    1
     8     4     5    1
     9     5     6    1
    10     5     7    1
    11     8     9   ar
    12     8    13   ar
    13     9    10   ar
    14    10    11   ar
    15    11    12   ar
    16    12    13   ar
    17    15    16    1
    18    15    23    2
    19    16    17   ar
    20    16    21   ar
    21    17    18   ar
    22    18    19   ar
    23    19    20   ar
    24    19    22    1
    25    20    21   ar
