@<TRIPOS>MOLECULE
36484_ChemDiv_C250-0264
 28 30 0 0 0
SMALL
GASTEIGER
Energy = 0

@<TRIPOS>ATOM
      1 N          -0.6830    1.1880    0.0000 N.am    1  LIG1       -0.2325
      2 C          -0.9960    0.2290    0.0000 C.2     1  LIG1        0.1091
      3 C          -2.0000    0.2330    0.0000 C.2     1  LIG1        0.0980
      4 N          -2.3130    1.1880    0.0000 N.2     1  LIG1       -0.2534
      5 C          -1.4960    1.7830    0.0000 C.3     1  LIG1        0.1499
      6 C          -0.6330    2.2880    0.0000 C.3     1  LIG1        0.0456
      7 C          -2.3630    2.2750    0.0000 C.3     1  LIG1        0.0456
      8 C          -2.5920   -0.5710    0.0000 C.ar    1  LIG1        0.0190
      9 C          -3.5880   -0.4670    0.0000 C.ar    1  LIG1        0.0015
     10 C          -4.1790   -1.2670    0.0000 C.ar    1  LIG1        0.0000
     11 C          -3.7790   -2.1880    0.0000 C.ar    1  LIG1        0.0000
     12 C          -2.7710   -2.2960    0.0000 C.ar    1  LIG1        0.0000
     13 C          -2.1830   -1.4790    0.0000 C.ar    1  LIG1        0.0015
     14 S          -0.4080   -0.5830    0.0000 S.2     1  LIG1       -0.0327
     15 C           0.2670    1.5000    0.0000 C.2     1  LIG1        0.2546
     16 C           1.0080    0.8210    0.0000 C.ar    1  LIG1        0.0602
     17 C           0.7880   -0.1500    0.0000 C.ar    1  LIG1        0.0448
     18 C           1.5290   -0.8130    0.0000 C.ar    1  LIG1        0.1756
     19 C           2.4790   -0.5130    0.0000 C.ar    1  LIG1        0.2061
     20 C           2.6920    0.4710    0.0000 C.ar    1  LIG1        0.1756
     21 C           1.9460    1.1330    0.0000 C.ar    1  LIG1        0.0448
     22 O           3.6290    0.7790    0.0000 O.3     1  LIG1       -0.4683
     23 C           3.8380    1.7540    0.0000 C.3     1  LIG1        0.2526
     24 O           3.2210   -1.1750    0.0000 O.3     1  LIG1       -0.4654
     25 C           4.1750   -0.8710    0.0000 C.3     1  LIG1        0.2528
     26 O           1.3170   -1.7920    0.0000 O.3     1  LIG1       -0.4683
     27 C           2.0540   -2.4630    0.0000 C.3     1  LIG1        0.2526
     28 O           0.4710    2.4670    0.0000 O.2     1  LIG1       -0.2695
@<TRIPOS>BOND
     1     1     2    1
     2     1     5    1
     3     1    15   am
     4     2     3    1
     5     2    14    2
     6     3     4    2
     7     3     8    1
     8     4     5    1
     9     5     6    1
    10     5     7    1
    11     8     9   ar
    12     8    13   ar
    13     9    10   ar
    14    10    11   ar
    15    11    12   ar
    16    12    13   ar
    17    15    16    1
    18    15    28    2
    19    16    17   ar
    20    16    21   ar
    21    17    18   ar
    22    18    19   ar
    23    18    26    1
    24    19    20   ar
    25    19    24    1
    26    20    21   ar
    27    20    22    1
    28    22    23    1
    29    24    25    1
    30    26    27    1
