@<TRIPOS>MOLECULE
36494_ChemDiv_C250-0555
 22 24 0 0 0
SMALL
GASTEIGER
Energy = 0

@<TRIPOS>ATOM
      1 N           0.0540    1.1000    0.0000 N.am    1  LIG1       -0.2325
      2 C          -0.2670    0.1500    0.0000 C.2     1  LIG1        0.1091
      3 C          -1.2630    0.1500    0.0000 C.2     1  LIG1        0.0980
      4 N          -1.5670    1.1000    0.0000 N.2     1  LIG1       -0.2534
      5 C          -0.7460    1.7380    0.0000 C.3     1  LIG1        0.1499
      6 C          -1.6130    2.2250    0.0000 C.3     1  LIG1        0.0456
      7 C           0.1130    2.2380    0.0000 C.3     1  LIG1        0.0456
      8 C          -1.8500   -0.6580    0.0000 C.ar    1  LIG1        0.0190
      9 C          -2.8460   -0.5540    0.0000 C.ar    1  LIG1        0.0015
     10 C          -3.4330   -1.3540    0.0000 C.ar    1  LIG1        0.0000
     11 C          -3.0250   -2.2630    0.0000 C.ar    1  LIG1        0.0000
     12 C          -2.0290   -2.3710    0.0000 C.ar    1  LIG1        0.0000
     13 C          -1.4420   -1.5710    0.0000 C.ar    1  LIG1        0.0015
     14 S           0.3250   -0.6670    0.0000 S.2     1  LIG1       -0.0327
     15 C           1.0040    1.4040    0.0000 C.2     1  LIG1        0.2544
     16 O           1.2080    2.3750    0.0000 O.2     1  LIG1       -0.2695
     17 C           1.7420    0.7380    0.0000 C.ar    1  LIG1        0.0540
     18 C           1.5330   -0.2380    0.0000 C.ar    1  LIG1        0.0045
     19 C           2.2670   -0.9080    0.0000 C.ar    1  LIG1        0.0001
     20 C           3.2170   -0.6000    0.0000 C.ar    1  LIG1        0.0000
     21 C           3.4290    0.3790    0.0000 C.ar    1  LIG1        0.0001
     22 C           2.6790    1.0420    0.0000 C.ar    1  LIG1        0.0045
@<TRIPOS>BOND
     1     1     2    1
     2     1     5    1
     3     1    15   am
     4     2     3    1
     5     2    14    2
     6     3     4    2
     7     3     8    1
     8     4     5    1
     9     5     6    1
    10     5     7    1
    11     8     9   ar
    12     8    13   ar
    13     9    10   ar
    14    10    11   ar
    15    11    12   ar
    16    12    13   ar
    17    15    16    2
    18    15    17    1
    19    17    18   ar
    20    17    22   ar
    21    18    19   ar
    22    19    20   ar
    23    20    21   ar
    24    21    22   ar
