@<TRIPOS>MOLECULE
36493_ChemDiv_G193-0479
 29 32 0 0 0
SMALL
GASTEIGER
Energy = 0

@<TRIPOS>ATOM
      1 C          -1.6500    0.2920    0.0000 C.ar    1  LIG1        0.1542
      2 C          -0.8420   -0.2960    0.0000 C.ar    1  LIG1        0.1923
      3 N           0.1130    0.0210    0.0000 N.ar    1  LIG1       -0.2005
      4 C           0.7040   -0.7790    0.0000 C.ar    1  LIG1        0.2051
      5 N           1.7000   -0.7670    0.0000 N.am    1  LIG1       -0.1493
      6 C           2.2130   -1.6330    0.0000 C.2     1  LIG1        0.2707
      7 C           3.2080   -1.6290    0.0000 C.ar    1  LIG1        0.0551
      8 C           3.6960   -0.7540    0.0000 C.ar    1  LIG1        0.0000
      9 C           4.6830   -0.7500    0.0000 C.ar    1  LIG1       -0.0256
     10 C           5.2000   -1.6170    0.0000 C.ar    1  LIG1       -0.0258
     11 C           4.7080   -2.4790    0.0000 C.ar    1  LIG1       -0.0044
     12 C           3.7080   -2.4920    0.0000 C.ar    1  LIG1        0.0042
     13 C           6.1960   -1.6040    0.0000 C.3     1  LIG1        0.0307
     14 C           5.1830    0.1250    0.0000 C.3     1  LIG1        0.0307
     15 O           1.7170   -2.4960    0.0000 O.2     1  LIG1       -0.2679
     16 S           0.1250   -1.5880    0.0000 S.2     1  LIG1        0.0514
     17 N          -0.8250   -1.2830    0.0000 N.ar    1  LIG1       -0.1855
     18 C          -2.6040   -0.0290    0.0000 C.ar    1  LIG1        0.0848
     19 N          -3.2040    0.7790    0.0000 N.ar    1  LIG1       -0.2139
     20 N          -2.6290    1.5960    0.0000 N.ar    1  LIG1       -0.0598
     21 N          -1.6580    1.2960    0.0000 N.ar    1  LIG1       -0.1257
     22 C          -4.2040    0.7630    0.0000 C.ar    1  LIG1        0.0902
     23 C          -4.7170    1.6210    0.0000 C.ar    1  LIG1        0.0523
     24 BR         -4.2170    2.5000    0.0000 Br      1  LIG1       -0.0474
     25 C          -5.7170    1.6130    0.0000 C.ar    1  LIG1        0.0082
     26 C          -6.1960    0.7460    0.0000 C.ar    1  LIG1        0.0006
     27 C          -5.6880   -0.1170    0.0000 C.ar    1  LIG1        0.0016
     28 C          -4.6880   -0.1040    0.0000 C.ar    1  LIG1        0.0197
     29 C          -2.9040   -0.9830    0.0000 C.3     1  LIG1        0.0540
@<TRIPOS>BOND
     1     1     2    1
     2     1    18   ar
     3     1    21   ar
     4     2     3   ar
     5     2    17   ar
     6     3     4   ar
     7     4     5    1
     8     4    16   ar
     9     5     6   am
    10     6     7    1
    11     6    15    2
    12     7     8   ar
    13     7    12   ar
    14     8     9   ar
    15     9    10   ar
    16     9    14    1
    17    10    11   ar
    18    10    13    1
    19    11    12   ar
    20    16    17   ar
    21    18    19   ar
    22    18    29    1
    23    19    20   ar
    24    19    22    1
    25    20    21   ar
    26    22    23   ar
    27    22    28   ar
    28    23    24    1
    29    23    25   ar
    30    25    26   ar
    31    26    27   ar
    32    27    28   ar
