@<TRIPOS>MOLECULE
36499_ChemDiv_E455-0267
 27 30 0 0 0
SMALL
GASTEIGER
Energy = 0

@<TRIPOS>ATOM
      1 C           1.3250   -0.2580    0.0000 C.ar    1  LIG1        0.0581
      2 C           0.9210    0.6540    0.0000 C.ar    1  LIG1        0.1852
      3 N          -0.0750    0.7580    0.0000 N.ar    1  LIG1       -0.2251
      4 C          -0.6630   -0.0500    0.0000 C.ar    1  LIG1        0.0831
      5 C          -0.2580   -0.9630    0.0000 C.ar    1  LIG1        0.0204
      6 C           0.7380   -1.0670    0.0000 C.ar    1  LIG1        0.0200
      7 C           1.1460   -1.9830    0.0000 C.2     1  LIG1        0.0731
      8 O           0.5580   -2.7920    0.0000 O.co2   1  LIG1       -0.5446
      9 O           2.1380   -2.0880    0.0000 O.co2   1  LIG1       -0.5446
     10 C          -1.6580    0.0540    0.0000 C.ar    1  LIG1        0.0209
     11 C          -2.0630    0.9670    0.0000 C.ar    1  LIG1        0.0417
     12 C          -3.0580    1.0710    0.0000 C.ar    1  LIG1        0.1774
     13 C          -3.6460    0.2630    0.0000 C.ar    1  LIG1        0.2293
     14 C          -3.2420   -0.6500    0.0000 C.ar    1  LIG1        0.0453
     15 C          -2.2460   -0.7540    0.0000 C.ar    1  LIG1        0.0050
     16 O          -4.6420    0.3670    0.0000 O.3     1  LIG1       -0.2833
     17 O          -3.4670    1.9880    0.0000 O.3     1  LIG1       -0.4682
     18 C          -2.8790    2.7960    0.0000 C.3     1  LIG1        0.2526
     19 N           1.6630    1.3250    0.0000 N.ar    1  LIG1       -0.1284
     20 N           2.5290    0.8250    0.0000 N.ar    1  LIG1       -0.1464
     21 C           2.3210   -0.1540    0.0000 C.ar    1  LIG1        0.1059
     22 C           2.9880   -0.8960    0.0000 C.ar    1  LIG1        0.0195
     23 C           3.9670   -0.6920    0.0000 C.ar    1  LIG1        0.0016
     24 C           4.6380   -1.4330    0.0000 C.ar    1  LIG1        0.0000
     25 C           4.3290   -2.3830    0.0000 C.ar    1  LIG1        0.0000
     26 C           3.3500   -2.5920    0.0000 C.ar    1  LIG1        0.0000
     27 C           2.6790   -1.8500    0.0000 C.ar    1  LIG1        0.0016
@<TRIPOS>BOND
     1     1     2   ar
     2     1     6   ar
     3     1    21   ar
     4     2     3   ar
     5     2    19   ar
     6     3     4   ar
     7     4     5   ar
     8     4    10    1
     9     5     6   ar
    10     6     7    1
    11     7     8   ar
    12     7     9   ar
    13    10    11   ar
    14    10    15   ar
    15    11    12   ar
    16    12    13   ar
    17    12    17    1
    18    13    14   ar
    19    13    16    1
    20    14    15   ar
    21    17    18    1
    22    19    20   ar
    23    20    21   ar
    24    21    22    1
    25    22    23   ar
    26    22    27   ar
    27    23    24   ar
    28    24    25   ar
    29    25    26   ar
    30    26    27   ar
