@<TRIPOS>MOLECULE
36492_ChemDiv_C250-0538
 24 27 0 0 0
SMALL
GASTEIGER
Energy = 0

@<TRIPOS>ATOM
      1 N           0.0500    0.6540    0.0000 N.am    1  LIG1       -0.2325
      2 C          -0.2630   -0.3000    0.0000 C.2     1  LIG1        0.1091
      3 C          -1.2670   -0.2920    0.0000 C.2     1  LIG1        0.0980
      4 N          -1.5710    0.6540    0.0000 N.2     1  LIG1       -0.2534
      5 C          -0.7420    1.2920    0.0000 C.3     1  LIG1        0.1497
      6 C          -1.5500    1.8630    0.0000 C.3     1  LIG1        0.0419
      7 C          -1.2670    2.8040    0.0000 C.3     1  LIG1        0.0038
      8 C          -0.2790    2.8330    0.0000 C.3     1  LIG1        0.0038
      9 C           0.0500    1.8920    0.0000 C.3     1  LIG1        0.0419
     10 C          -1.8500   -1.1080    0.0000 C.ar    1  LIG1        0.0190
     11 C          -2.8500   -0.9960    0.0000 C.ar    1  LIG1        0.0015
     12 C          -3.4330   -1.8040    0.0000 C.ar    1  LIG1        0.0000
     13 C          -3.0290   -2.7130    0.0000 C.ar    1  LIG1        0.0000
     14 C          -2.0290   -2.8290    0.0000 C.ar    1  LIG1        0.0000
     15 C          -1.4460   -2.0130    0.0000 C.ar    1  LIG1        0.0015
     16 S           0.3290   -1.1130    0.0000 S.2     1  LIG1       -0.0327
     17 C           1.0080    0.9670    0.0000 C.2     1  LIG1        0.2544
     18 O           1.2130    1.9380    0.0000 O.2     1  LIG1       -0.2695
     19 C           1.7420    0.2920    0.0000 C.ar    1  LIG1        0.0540
     20 C           1.5290   -0.6790    0.0000 C.ar    1  LIG1        0.0045
     21 C           2.2630   -1.3540    0.0000 C.ar    1  LIG1        0.0001
     22 C           3.2210   -1.0380    0.0000 C.ar    1  LIG1        0.0000
     23 C           3.4290   -0.0670    0.0000 C.ar    1  LIG1        0.0001
     24 C           2.6830    0.5960    0.0000 C.ar    1  LIG1        0.0045
@<TRIPOS>BOND
     1     1     2    1
     2     1     5    1
     3     1    17   am
     4     2     3    1
     5     2    16    2
     6     3     4    2
     7     3    10    1
     8     4     5    1
     9     5     6    1
    10     5     9    1
    11     6     7    1
    12     7     8    1
    13     8     9    1
    14    10    11   ar
    15    10    15   ar
    16    11    12   ar
    17    12    13   ar
    18    13    14   ar
    19    14    15   ar
    20    17    18    2
    21    17    19    1
    22    19    20   ar
    23    19    24   ar
    24    20    21   ar
    25    21    22   ar
    26    22    23   ar
    27    23    24   ar
