@<TRIPOS>MOLECULE
36490_ChemDiv_C250-0526
 23 25 0 0 0
SMALL
GASTEIGER
Energy = 0

@<TRIPOS>ATOM
      1 N           0.1380    1.4460    0.0000 N.am    1  LIG1       -0.2325
      2 C          -0.1750    0.4880    0.0000 C.2     1  LIG1        0.1091
      3 C          -1.1750    0.4960    0.0000 C.2     1  LIG1        0.0980
      4 N          -1.4790    1.4460    0.0000 N.2     1  LIG1       -0.2534
      5 C          -0.6540    2.0670    0.0000 C.3     1  LIG1        0.1499
      6 C          -1.5210    2.5500    0.0000 C.3     1  LIG1        0.0456
      7 C           0.2000    2.5670    0.0000 C.3     1  LIG1        0.0456
      8 C          -1.7580   -0.3210    0.0000 C.ar    1  LIG1        0.0191
      9 C          -2.7630   -0.2040    0.0000 C.ar    1  LIG1        0.0020
     10 C          -3.3460   -1.0130    0.0000 C.ar    1  LIG1        0.0067
     11 C          -2.9420   -1.9250    0.0000 C.ar    1  LIG1        0.0346
     12 C          -1.9380   -2.0420    0.0000 C.ar    1  LIG1        0.0067
     13 C          -1.3540   -1.2250    0.0000 C.ar    1  LIG1        0.0020
     14 BR         -3.5250   -2.7210    0.0000 Br      1  LIG1       -0.0490
     15 S           0.4170   -0.3250    0.0000 S.2     1  LIG1       -0.0327
     16 C           1.0960    1.7540    0.0000 C.2     1  LIG1        0.2544
     17 O           1.3000    2.7250    0.0000 O.2     1  LIG1       -0.2695
     18 C           1.8290    1.0790    0.0000 C.ar    1  LIG1        0.0540
     19 C           2.7710    1.3830    0.0000 C.ar    1  LIG1        0.0045
     20 C           3.5210    0.7210    0.0000 C.ar    1  LIG1        0.0001
     21 C           3.3080   -0.2500    0.0000 C.ar    1  LIG1        0.0000
     22 C           2.3540   -0.5670    0.0000 C.ar    1  LIG1        0.0001
     23 C           1.6210    0.1080    0.0000 C.ar    1  LIG1        0.0045
@<TRIPOS>BOND
     1     1     2    1
     2     1     5    1
     3     1    16   am
     4     2     3    1
     5     2    15    2
     6     3     4    2
     7     3     8    1
     8     4     5    1
     9     5     6    1
    10     5     7    1
    11     8     9   ar
    12     8    13   ar
    13     9    10   ar
    14    10    11   ar
    15    11    12   ar
    16    11    14    1
    17    12    13   ar
    18    16    17    2
    19    16    18    1
    20    18    19   ar
    21    18    23   ar
    22    19    20   ar
    23    20    21   ar
    24    21    22   ar
    25    22    23   ar
