@<TRIPOS>MOLECULE
36496_ChemDiv_C250-0564
 27 29 0 0 0
SMALL
GASTEIGER
Energy = 0

@<TRIPOS>ATOM
      1 N          -0.5920    1.4580    0.0000 N.am    1  LIG1       -0.2325
      2 C          -0.9000    0.4960    0.0000 C.2     1  LIG1        0.1091
      3 C          -1.9040    0.5040    0.0000 C.2     1  LIG1        0.0980
      4 N          -2.2040    1.4580    0.0000 N.2     1  LIG1       -0.2534
      5 C          -1.3790    2.0920    0.0000 C.3     1  LIG1        0.1499
      6 C          -0.5830    2.6960    0.0000 C.3     1  LIG1        0.0456
      7 C          -2.1960    2.6670    0.0000 C.3     1  LIG1        0.0456
      8 C          -2.4920   -0.3080    0.0000 C.ar    1  LIG1        0.0191
      9 C          -2.0830   -1.2130    0.0000 C.ar    1  LIG1        0.0020
     10 C          -2.6630   -2.0290    0.0000 C.ar    1  LIG1        0.0067
     11 C          -3.6710   -1.9170    0.0000 C.ar    1  LIG1        0.0346
     12 C          -4.0750   -1.0000    0.0000 C.ar    1  LIG1        0.0067
     13 C          -3.4880   -0.2040    0.0000 C.ar    1  LIG1        0.0020
     14 BR         -4.2580   -2.7210    0.0000 Br      1  LIG1       -0.0490
     15 S          -0.3130   -0.3080    0.0000 S.2     1  LIG1       -0.0327
     16 C           0.3710    1.7630    0.0000 C.2     1  LIG1        0.2545
     17 C           1.0960    1.0960    0.0000 C.ar    1  LIG1        0.0572
     18 C           0.8880    0.1170    0.0000 C.ar    1  LIG1        0.0446
     19 C           1.6250   -0.5500    0.0000 C.ar    1  LIG1        0.1725
     20 C           2.5790   -0.2500    0.0000 C.ar    1  LIG1        0.1724
     21 C           2.7880    0.7330    0.0000 C.ar    1  LIG1        0.0402
     22 C           2.0330    1.3960    0.0000 C.ar    1  LIG1        0.0078
     23 O           3.3040   -0.9130    0.0000 O.3     1  LIG1       -0.4684
     24 C           4.2540   -0.6080    0.0000 C.3     1  LIG1        0.2526
     25 O           1.4170   -1.5250    0.0000 O.3     1  LIG1       -0.4684
     26 C           2.1500   -2.1960    0.0000 C.3     1  LIG1        0.2526
     27 O           0.5710    2.7250    0.0000 O.2     1  LIG1       -0.2695
@<TRIPOS>BOND
     1     1     2    1
     2     1     5    1
     3     1    16   am
     4     2     3    1
     5     2    15    2
     6     3     4    2
     7     3     8    1
     8     4     5    1
     9     5     6    1
    10     5     7    1
    11     8     9   ar
    12     8    13   ar
    13     9    10   ar
    14    10    11   ar
    15    11    12   ar
    16    11    14    1
    17    12    13   ar
    18    16    17    1
    19    16    27    2
    20    17    18   ar
    21    17    22   ar
    22    18    19   ar
    23    19    20   ar
    24    19    25    1
    25    20    21   ar
    26    20    23    1
    27    21    22   ar
    28    23    24    1
    29    25    26    1
