@<TRIPOS>MOLECULE
36506_ChemDiv_C214-0607
 28 31 0 0 0
SMALL
GASTEIGER
Energy = 0

@<TRIPOS>ATOM
      1 C           0.3080    0.0250    0.0000 C.ar    1  LIG1        0.0717
      2 C           1.1790    0.5460    0.0000 C.2     1  LIG1        0.1796
      3 C           2.0540    0.0540    0.0000 C.3     1  LIG1        0.1092
      4 C           2.0750   -0.9290    0.0000 C.3     1  LIG1        0.1436
      5 O           1.2210   -1.4420    0.0000 O.3     1  LIG1       -0.4819
      6 C           0.3460   -0.9710    0.0000 C.ar    1  LIG1        0.1411
      7 C          -0.4960   -1.4790    0.0000 C.ar    1  LIG1        0.0401
      8 C          -1.3880   -1.0040    0.0000 C.ar    1  LIG1        0.0400
      9 C          -1.4040   -0.0170    0.0000 C.ar    1  LIG1        0.1396
     10 C          -0.5670    0.5170    0.0000 C.ar    1  LIG1        0.0428
     11 O          -2.3000    0.4580    0.0000 O.3     1  LIG1       -0.4656
     12 C          -2.3330    1.4710    0.0000 C.3     1  LIG1        0.2896
     13 C          -3.2170    1.9290    0.0000 C.2     1  LIG1        0.2702
     14 N          -4.0630    1.4040    0.0000 N.am    1  LIG1       -0.2765
     15 C          -4.2460    0.4330    0.0000 C.3     1  LIG1        0.0936
     16 C          -5.2420    0.2960    0.0000 C.3     1  LIG1        0.0233
     17 C          -5.6750    1.2040    0.0000 C.3     1  LIG1        0.0233
     18 C          -4.9420    1.8960    0.0000 C.3     1  LIG1        0.0936
     19 O          -3.2420    2.9330    0.0000 O.2     1  LIG1       -0.2708
     20 C           2.2540   -1.9130    0.0000 C.3     1  LIG1        0.0620
     21 C           3.1790   -2.2580    0.0000 C.3     1  LIG1        0.0970
     22 N           3.9580   -1.6170    0.0000 N.am    1  LIG1       -0.2793
     23 C           4.9040   -1.9460    0.0000 C.2     1  LIG1        0.2261
     24 O           5.0960   -2.9290    0.0000 O.2     1  LIG1       -0.2749
     25 C           5.6710   -1.2960    0.0000 C.3     1  LIG1        0.0948
     26 C           3.7830   -0.6330    0.0000 C.3     1  LIG1        0.0970
     27 C           2.8380   -0.2920    0.0000 C.3     1  LIG1        0.0620
     28 O           1.1670    1.5420    0.0000 O.2     1  LIG1       -0.2911
@<TRIPOS>BOND
     1     1     2    1
     2     1     6   ar
     3     1    10   ar
     4     2     3    1
     5     2    28    2
     6     3     4    1
     7     4     5    1
     8     4    20    1
     9     4    27    1
    10     5     6    1
    11     6     7   ar
    12     7     8   ar
    13     8     9   ar
    14     9    10   ar
    15     9    11    1
    16    11    12    1
    17    12    13    1
    18    13    14   am
    19    13    19    2
    20    14    15    1
    21    14    18    1
    22    15    16    1
    23    16    17    1
    24    17    18    1
    25    20    21    1
    26    21    22    1
    27    22    23   am
    28    22    26    1
    29    23    24    2
    30    23    25    1
    31    26    27    1
