@<TRIPOS>MOLECULE
36504_ChemDiv_C214-0606
 29 32 0 0 0
SMALL
GASTEIGER
Energy = 0

@<TRIPOS>ATOM
      1 C           0.3710    0.0500    0.0000 C.ar    1  LIG1        0.0717
      2 C           1.3290    0.2960    0.0000 C.2     1  LIG1        0.1796
      3 C           2.0380   -0.4000    0.0000 C.3     1  LIG1        0.1092
      4 C           1.7790   -1.3540    0.0000 C.3     1  LIG1        0.1436
      5 O           0.8170   -1.6420    0.0000 O.3     1  LIG1       -0.4819
      6 C           0.1170   -0.9290    0.0000 C.ar    1  LIG1        0.1411
      7 C          -0.8670   -1.1830    0.0000 C.ar    1  LIG1        0.0401
      8 C          -1.5750   -0.4790    0.0000 C.ar    1  LIG1        0.0400
      9 C          -1.2880    0.5080    0.0000 C.ar    1  LIG1        0.1396
     10 C          -0.3420    0.7630    0.0000 C.ar    1  LIG1        0.0428
     11 O          -1.9580    1.2420    0.0000 O.3     1  LIG1       -0.4656
     12 C          -1.6500    2.1880    0.0000 C.3     1  LIG1        0.2896
     13 C          -2.3250    2.9250    0.0000 C.2     1  LIG1        0.2703
     14 N          -3.3000    2.7080    0.0000 N.am    1  LIG1       -0.2714
     15 C          -3.6000    1.7670    0.0000 C.3     1  LIG1        0.1256
     16 C          -4.5580    1.5540    0.0000 C.3     1  LIG1        0.1636
     17 O          -5.2500    2.2960    0.0000 O.3     1  LIG1       -0.3501
     18 C          -4.9330    3.2460    0.0000 C.3     1  LIG1        0.1636
     19 C          -3.9580    3.4500    0.0000 C.3     1  LIG1        0.1256
     20 O          -2.0250    3.8710    0.0000 O.2     1  LIG1       -0.2708
     21 C           1.7790   -2.3750    0.0000 C.3     1  LIG1        0.0620
     22 C           2.6380   -2.8670    0.0000 C.3     1  LIG1        0.0970
     23 N           3.5170   -2.3750    0.0000 N.am    1  LIG1       -0.2793
     24 C           4.3790   -2.8670    0.0000 C.2     1  LIG1        0.2261
     25 O           4.3790   -3.8670    0.0000 O.2     1  LIG1       -0.2749
     26 C           5.2460   -2.3750    0.0000 C.3     1  LIG1        0.0948
     27 C           3.5170   -1.3540    0.0000 C.3     1  LIG1        0.0970
     28 C           2.6380   -0.8630    0.0000 C.3     1  LIG1        0.0620
     29 O           1.5830    1.2750    0.0000 O.2     1  LIG1       -0.2911
@<TRIPOS>BOND
     1     1     2    1
     2     1     6   ar
     3     1    10   ar
     4     2     3    1
     5     2    29    2
     6     3     4    1
     7     4     5    1
     8     4    21    1
     9     4    28    1
    10     5     6    1
    11     6     7   ar
    12     7     8   ar
    13     8     9   ar
    14     9    10   ar
    15     9    11    1
    16    11    12    1
    17    12    13    1
    18    13    14   am
    19    13    20    2
    20    14    15    1
    21    14    19    1
    22    15    16    1
    23    16    17    1
    24    17    18    1
    25    18    19    1
    26    21    22    1
    27    22    23    1
    28    23    24   am
    29    23    27    1
    30    24    25    2
    31    24    26    1
    32    27    28    1
