@<TRIPOS>MOLECULE
36502_ChemDiv_C214-0605
 28 30 0 0 0
SMALL
GASTEIGER
Energy = 0

@<TRIPOS>ATOM
      1 C          -0.0380    0.0330    0.0000 C.ar    1  LIG1        0.0717
      2 C           0.8290    0.5540    0.0000 C.2     1  LIG1        0.1796
      3 C           1.7040    0.0670    0.0000 C.3     1  LIG1        0.1092
      4 C           1.7250   -0.9330    0.0000 C.3     1  LIG1        0.1436
      5 O           0.8750   -1.4540    0.0000 O.3     1  LIG1       -0.4819
      6 C           0.0000   -0.9630    0.0000 C.ar    1  LIG1        0.1411
      7 C          -0.8540   -1.4830    0.0000 C.ar    1  LIG1        0.0401
      8 C          -1.7330   -1.0040    0.0000 C.ar    1  LIG1        0.0400
      9 C          -1.7500   -0.0040    0.0000 C.ar    1  LIG1        0.1396
     10 C          -0.9040    0.5210    0.0000 C.ar    1  LIG1        0.0428
     11 O          -2.6460    0.4670    0.0000 O.3     1  LIG1       -0.4656
     12 C          -2.6830    1.4670    0.0000 C.3     1  LIG1        0.2896
     13 C          -3.5630    1.9420    0.0000 C.2     1  LIG1        0.2702
     14 N          -4.4170    1.4130    0.0000 N.am    1  LIG1       -0.2765
     15 C          -4.3960    0.4170    0.0000 C.3     1  LIG1        0.0936
     16 C          -5.2290   -0.0960    0.0000 C.3     1  LIG1        0.0233
     17 C          -5.2920    1.9040    0.0000 C.3     1  LIG1        0.0936
     18 C          -5.3170    2.9000    0.0000 C.3     1  LIG1        0.0233
     19 O          -3.5880    2.9420    0.0000 O.2     1  LIG1       -0.2708
     20 C           1.8830   -1.9080    0.0000 C.3     1  LIG1        0.0620
     21 C           2.8170   -2.2630    0.0000 C.3     1  LIG1        0.0970
     22 N           3.5960   -1.6080    0.0000 N.am    1  LIG1       -0.2793
     23 C           4.5460   -1.9500    0.0000 C.2     1  LIG1        0.2261
     24 O           4.7420   -2.9380    0.0000 O.2     1  LIG1       -0.2749
     25 C           5.3130   -1.2960    0.0000 C.3     1  LIG1        0.0948
     26 C           3.4170   -0.6250    0.0000 C.3     1  LIG1        0.0970
     27 C           2.4710   -0.2880    0.0000 C.3     1  LIG1        0.0620
     28 O           0.8210    1.5500    0.0000 O.2     1  LIG1       -0.2911
@<TRIPOS>BOND
     1     1     2    1
     2     1     6   ar
     3     1    10   ar
     4     2     3    1
     5     2    28    2
     6     3     4    1
     7     4     5    1
     8     4    20    1
     9     4    27    1
    10     5     6    1
    11     6     7   ar
    12     7     8   ar
    13     8     9   ar
    14     9    10   ar
    15     9    11    1
    16    11    12    1
    17    12    13    1
    18    13    14   am
    19    13    19    2
    20    14    15    1
    21    14    17    1
    22    15    16    1
    23    17    18    1
    24    20    21    1
    25    21    22    1
    26    22    23   am
    27    22    26    1
    28    23    24    2
    29    23    25    1
    30    26    27    1
