@<TRIPOS>MOLECULE
36505_ChemDiv_C202-1719
 17 18 0 0 0
SMALL
GASTEIGER
Energy = 0

@<TRIPOS>ATOM
      1 N           0.0000   -3.2540    0.0000 N.am    1  LIG1        0.0023
      2 C          -0.8670   -2.7540    0.0000 C.2     1  LIG1        0.4801
      3 N          -0.8670   -1.7540    0.0000 N.2     1  LIG1       -0.0918
      4 C           0.0000   -1.2540    0.0000 C.3     1  LIG1        0.2136
      5 C           0.8630   -1.7540    0.0000 C.3     1  LIG1        0.1540
      6 C           0.8630   -2.7540    0.0000 C.2     1  LIG1        0.3226
      7 O           1.7250   -3.2540    0.0000 O.2     1  LIG1       -0.2533
      8 C          -0.0080   -0.2540    0.0000 C.ar    1  LIG1        0.0176
      9 C          -0.8790    0.2330    0.0000 C.ar    1  LIG1        0.0003
     10 C          -0.8960    1.2290    0.0000 C.ar    1  LIG1        0.0143
     11 C          -0.0330    1.7460    0.0000 C.ar    1  LIG1        0.0479
     12 N          -0.0330    2.7460    0.0000 N.pl3   1  LIG1       -0.3041
     13 C           0.8290    3.2580    0.0000 C.3     1  LIG1        0.1122
     14 C          -0.9000    3.2460    0.0000 C.3     1  LIG1        0.1122
     15 C           0.8460    1.2500    0.0000 C.ar    1  LIG1        0.0143
     16 C           0.8580    0.2580    0.0000 C.ar    1  LIG1        0.0003
     17 N          -1.7290   -3.2540    0.0000 N.pl3   1  LIG1        0.1472
@<TRIPOS>BOND
     1     1     2    1
     2     1     6   am
     3     2     3    2
     4     2    17    1
     5     3     4    1
     6     4     5    1
     7     4     8    1
     8     5     6    1
     9     6     7    2
    10     8     9   ar
    11     8    16   ar
    12     9    10   ar
    13    10    11   ar
    14    11    12    1
    15    11    15   ar
    16    12    13    1
    17    12    14    1
    18    15    16   ar
