@<TRIPOS>MOLECULE
36508_ChemDiv_C798-0128
 22 24 0 0 0
SMALL
GASTEIGER
Energy = 0

@<TRIPOS>ATOM
      1 C          -1.3000    1.7460    0.0000 C.ar    1  LIG1        0.0719
      2 C          -0.4290    2.2580    0.0000 C.2     1  LIG1        0.1796
      3 C           0.4420    1.7460    0.0000 C.3     1  LIG1        0.1092
      4 C           0.4420    0.7420    0.0000 C.3     1  LIG1        0.1436
      5 O          -0.4380    0.2460    0.0000 O.3     1  LIG1       -0.4819
      6 C          -1.3080    0.7420    0.0000 C.ar    1  LIG1        0.1411
      7 C          -2.1710    0.2460    0.0000 C.ar    1  LIG1        0.0403
      8 C          -3.0330    0.7420    0.0000 C.ar    1  LIG1        0.0451
      9 C          -3.0330    1.7460    0.0000 C.ar    1  LIG1        0.1960
     10 C          -2.1710    2.2460    0.0000 C.ar    1  LIG1        0.0479
     11 O          -3.8960    2.2420    0.0000 O.3     1  LIG1       -0.2866
     12 C           0.4420   -0.2540    0.0000 C.3     1  LIG1        0.0621
     13 C           1.2960   -0.7540    0.0000 C.3     1  LIG1        0.1003
     14 N           2.1580   -0.2540    0.0000 N.am    1  LIG1       -0.2458
     15 C           3.0290   -0.7540    0.0000 C.2     1  LIG1        0.4049
     16 O           3.8920   -0.2540    0.0000 O.2     1  LIG1       -0.2262
     17 O           3.0210   -1.7540    0.0000 O.3     1  LIG1       -0.4345
     18 C           3.8920   -2.2540    0.0000 C.3     1  LIG1        0.2102
     19 C           3.8830   -3.2500    0.0000 C.3     1  LIG1        0.0513
     20 C           2.1580    0.7420    0.0000 C.3     1  LIG1        0.1003
     21 C           1.2960    1.2420    0.0000 C.3     1  LIG1        0.0621
     22 O          -0.4380    3.2540    0.0000 O.2     1  LIG1       -0.2911
@<TRIPOS>BOND
     1     1     2    1
     2     1     6   ar
     3     1    10   ar
     4     2     3    1
     5     2    22    2
     6     3     4    1
     7     4     5    1
     8     4    12    1
     9     4    21    1
    10     5     6    1
    11     6     7   ar
    12     7     8   ar
    13     8     9   ar
    14     9    10   ar
    15     9    11    1
    16    12    13    1
    17    13    14    1
    18    14    15   am
    19    14    20    1
    20    15    16    2
    21    15    17    1
    22    17    18    1
    23    18    19    1
    24    20    21    1
