@<TRIPOS>MOLECULE
36500_ChemDiv_C214-0604
 31 34 0 0 0
SMALL
GASTEIGER
Energy = 0

@<TRIPOS>ATOM
      1 C           1.0290    0.0540    0.0000 C.ar    1  LIG1        0.0717
      2 C           1.9790    0.3000    0.0000 C.2     1  LIG1        0.1796
      3 C           2.6880   -0.4040    0.0000 C.3     1  LIG1        0.1092
      4 C           2.4330   -1.3630    0.0000 C.3     1  LIG1        0.1436
      5 O           1.4750   -1.6330    0.0000 O.3     1  LIG1       -0.4819
      6 C           0.7670   -0.9290    0.0000 C.ar    1  LIG1        0.1411
      7 C          -0.2170   -1.1880    0.0000 C.ar    1  LIG1        0.0401
      8 C          -0.9080   -0.4670    0.0000 C.ar    1  LIG1        0.0400
      9 C          -0.6330    0.5130    0.0000 C.ar    1  LIG1        0.1396
     10 C           0.3080    0.7630    0.0000 C.ar    1  LIG1        0.0428
     11 O          -1.3080    1.2460    0.0000 O.3     1  LIG1       -0.4656
     12 C          -0.9920    2.1880    0.0000 C.3     1  LIG1        0.2896
     13 C          -1.6830    2.9330    0.0000 C.2     1  LIG1        0.2705
     14 N          -2.6500    2.7080    0.0000 N.am    1  LIG1       -0.2650
     15 C          -3.3250    3.4580    0.0000 C.3     1  LIG1        0.1565
     16 C          -4.2920    3.2420    0.0000 C.3     1  LIG1        0.1605
     17 N          -4.6170    2.2830    0.0000 N.4     1  LIG1        0.3799
     18 C          -3.9210    1.5540    0.0000 C.3     1  LIG1        0.1605
     19 C          -2.9500    1.7630    0.0000 C.3     1  LIG1        0.1565
     20 C          -5.5920    2.0880    0.0000 C.3     1  LIG1        0.1389
     21 C          -5.9040    1.1330    0.0000 C.3     1  LIG1        0.0688
     22 O          -1.3670    3.8750    0.0000 O.2     1  LIG1       -0.2708
     23 C           3.3000   -0.8670    0.0000 C.3     1  LIG1        0.0620
     24 C           4.1670   -1.3630    0.0000 C.3     1  LIG1        0.0970
     25 N           4.1670   -2.3670    0.0000 N.am    1  LIG1       -0.2793
     26 C           5.0380   -2.8710    0.0000 C.2     1  LIG1        0.2261
     27 O           5.0380   -3.8710    0.0000 O.2     1  LIG1       -0.2749
     28 C           5.9000   -2.3710    0.0000 C.3     1  LIG1        0.0948
     29 C           3.3000   -2.8710    0.0000 C.3     1  LIG1        0.0970
     30 C           2.4420   -2.3670    0.0000 C.3     1  LIG1        0.0620
     31 O           2.2250    1.2670    0.0000 O.2     1  LIG1       -0.2911
@<TRIPOS>BOND
     1     1     2    1
     2     1     6   ar
     3     1    10   ar
     4     2     3    1
     5     2    31    2
     6     3     4    1
     7     4     5    1
     8     4    23    1
     9     4    30    1
    10     5     6    1
    11     6     7   ar
    12     7     8   ar
    13     8     9   ar
    14     9    10   ar
    15     9    11    1
    16    11    12    1
    17    12    13    1
    18    13    14   am
    19    13    22    2
    20    14    15    1
    21    14    19    1
    22    15    16    1
    23    16    17    1
    24    17    18    1
    25    17    20    1
    26    18    19    1
    27    20    21    1
    28    23    24    1
    29    24    25    1
    30    25    26   am
    31    25    29    1
    32    26    27    2
    33    26    28    1
    34    29    30    1
