@<TRIPOS>MOLECULE
36510_ChemDiv_K783-4468
 20 22 0 0 0
SMALL
GASTEIGER
Energy = 0

@<TRIPOS>ATOM
      1 C          -1.3000    1.0040    0.0000 C.ar    1  LIG1        0.0719
      2 C          -0.4380    1.5130    0.0000 C.2     1  LIG1        0.1796
      3 C           0.4250    1.0130    0.0000 C.3     1  LIG1        0.1092
      4 C           0.4380    0.0080    0.0000 C.3     1  LIG1        0.1436
      5 O          -0.4380   -0.4920    0.0000 O.3     1  LIG1       -0.4819
      6 C          -1.3000    0.0080    0.0000 C.ar    1  LIG1        0.1411
      7 C          -2.1670   -0.5040    0.0000 C.ar    1  LIG1        0.0403
      8 C          -3.0290   -0.0040    0.0000 C.ar    1  LIG1        0.0451
      9 C          -3.0290    0.9960    0.0000 C.ar    1  LIG1        0.1960
     10 C          -2.1670    1.5040    0.0000 C.ar    1  LIG1        0.0479
     11 O          -3.8920    1.4960    0.0000 O.3     1  LIG1       -0.2866
     12 C           1.3000    0.5080    0.0000 C.3     1  LIG1        0.0620
     13 C           2.1630    0.0080    0.0000 C.3     1  LIG1        0.0970
     14 N           2.1540   -0.9920    0.0000 N.am    1  LIG1       -0.2793
     15 C           3.0170   -1.5080    0.0000 C.2     1  LIG1        0.2261
     16 O           3.8880   -1.0080    0.0000 O.2     1  LIG1       -0.2749
     17 C           3.0170   -2.5040    0.0000 C.3     1  LIG1        0.0948
     18 C           1.2920   -1.4920    0.0000 C.3     1  LIG1        0.0970
     19 C           0.4250   -0.9920    0.0000 C.3     1  LIG1        0.0620
     20 O          -0.4500    2.5080    0.0000 O.2     1  LIG1       -0.2911
@<TRIPOS>BOND
     1     1     2    1
     2     1     6   ar
     3     1    10   ar
     4     2     3    1
     5     2    20    2
     6     3     4    1
     7     4     5    1
     8     4    12    1
     9     4    19    1
    10     5     6    1
    11     6     7   ar
    12     7     8   ar
    13     8     9   ar
    14     9    10   ar
    15     9    11    1
    16    12    13    1
    17    13    14    1
    18    14    15   am
    19    14    18    1
    20    15    16    2
    21    15    17    1
    22    18    19    1
