@<TRIPOS>MOLECULE
36514_ChemDiv_C250-0568
 32 35 0 0 0
SMALL
GASTEIGER
Energy = 0

@<TRIPOS>ATOM
      1 N           0.1040    1.1630    0.0000 N.am    1  LIG1       -0.2325
      2 C          -0.2040    0.2040    0.0000 C.2     1  LIG1        0.1091
      3 C          -1.2080    0.2130    0.0000 C.2     1  LIG1        0.0982
      4 N          -1.5130    1.1630    0.0000 N.2     1  LIG1       -0.2534
      5 C          -0.6880    1.8000    0.0000 C.3     1  LIG1        0.1497
      6 C          -1.4960    2.3880    0.0000 C.3     1  LIG1        0.0419
      7 C          -1.1790    3.3380    0.0000 C.3     1  LIG1        0.0038
      8 C          -0.1830    3.3380    0.0000 C.3     1  LIG1        0.0038
      9 C           0.1170    2.3880    0.0000 C.3     1  LIG1        0.0419
     10 C          -1.8000   -0.6000    0.0000 C.ar    1  LIG1        0.0251
     11 C          -1.3920   -1.5080    0.0000 C.ar    1  LIG1        0.0386
     12 C          -1.9710   -2.3250    0.0000 C.ar    1  LIG1        0.1418
     13 C          -2.9790   -2.2130    0.0000 C.ar    1  LIG1        0.0737
     14 C          -3.3830   -1.2960    0.0000 C.ar    1  LIG1        0.1418
     15 C          -2.7960   -0.4960    0.0000 C.ar    1  LIG1        0.0386
     16 O          -4.3670   -1.1920    0.0000 O.3     1  LIG1       -0.4713
     17 C          -4.9580   -2.0040    0.0000 C.3     1  LIG1        0.2525
     18 O          -1.5750   -3.2290    0.0000 O.3     1  LIG1       -0.4713
     19 C          -0.5830   -3.3330    0.0000 C.3     1  LIG1        0.2525
     20 S           0.3830   -0.6000    0.0000 S.2     1  LIG1       -0.0327
     21 C           1.0630    1.4670    0.0000 C.2     1  LIG1        0.2545
     22 C           1.7960    0.8040    0.0000 C.ar    1  LIG1        0.0572
     23 C           1.5830   -0.1790    0.0000 C.ar    1  LIG1        0.0446
     24 C           2.3210   -0.8420    0.0000 C.ar    1  LIG1        0.1725
     25 C           3.2750   -0.5420    0.0000 C.ar    1  LIG1        0.1724
     26 C           3.4880    0.4380    0.0000 C.ar    1  LIG1        0.0402
     27 C           2.7290    1.1040    0.0000 C.ar    1  LIG1        0.0078
     28 O           4.0000   -1.2080    0.0000 O.3     1  LIG1       -0.4684
     29 C           4.9540   -0.9040    0.0000 C.3     1  LIG1        0.2526
     30 O           2.1130   -1.8210    0.0000 O.3     1  LIG1       -0.4684
     31 C           2.8460   -2.4920    0.0000 C.3     1  LIG1        0.2526
     32 O           1.2670    2.4330    0.0000 O.2     1  LIG1       -0.2695
@<TRIPOS>BOND
     1     1     2    1
     2     1     5    1
     3     1    21   am
     4     2     3    1
     5     2    20    2
     6     3     4    2
     7     3    10    1
     8     4     5    1
     9     5     6    1
    10     5     9    1
    11     6     7    1
    12     7     8    1
    13     8     9    1
    14    10    11   ar
    15    10    15   ar
    16    11    12   ar
    17    12    13   ar
    18    12    18    1
    19    13    14   ar
    20    14    15   ar
    21    14    16    1
    22    16    17    1
    23    18    19    1
    24    21    22    1
    25    21    32    2
    26    22    23   ar
    27    22    27   ar
    28    23    24   ar
    29    24    25   ar
    30    24    30    1
    31    25    26   ar
    32    25    28    1
    33    26    27   ar
    34    28    29    1
    35    30    31    1
