@<TRIPOS>MOLECULE
36519_ChemDiv_G233-0007
 33 37 0 0 0
SMALL
GASTEIGER
Energy = 0

@<TRIPOS>ATOM
      1 S           1.1880    4.6000    0.0000 S.O2    1  LIG1        0.0298
      2 C           0.3290    4.0920    0.0000 C.ar    1  LIG1        0.1239
      3 C           0.3210    3.0920    0.0000 C.ar    1  LIG1        0.0697
      4 N           1.1830    2.5960    0.0000 N.pl3   1  LIG1       -0.2763
      5 C           2.0500    3.0830    0.0000 C.ar    1  LIG1        0.0697
      6 C           2.0500    4.0880    0.0000 C.ar    1  LIG1        0.1239
      7 C           2.9290    4.5920    0.0000 C.ar    1  LIG1        0.0200
      8 C           3.8000    4.0750    0.0000 C.ar    1  LIG1        0.0014
      9 C           3.7880    3.0790    0.0000 C.ar    1  LIG1        0.0014
     10 C           2.9130    2.5830    0.0000 C.ar    1  LIG1        0.0162
     11 C           1.1750    1.5960    0.0000 C.3     1  LIG1        0.1833
     12 C           0.3080    1.1000    0.0000 C.2     1  LIG1        0.2661
     13 N           0.3080    0.0920    0.0000 N.am    1  LIG1       -0.1778
     14 C           0.0130   -0.8630    0.0000 C.ar    1  LIG1        0.0736
     15 C           0.6880   -1.5920    0.0000 C.ar    1  LIG1        0.0197
     16 C           0.3880   -2.5540    0.0000 C.ar    1  LIG1        0.0388
     17 C          -0.5960   -2.7670    0.0000 C.ar    1  LIG1        0.1454
     18 O          -0.8960   -3.7170    0.0000 O.3     1  LIG1       -0.4535
     19 C          -1.8630   -3.9330    0.0000 C.ar    1  LIG1        0.1453
     20 C          -2.1540   -4.8830    0.0000 C.ar    1  LIG1        0.0375
     21 C          -3.1330   -5.1000    0.0000 C.ar    1  LIG1        0.0031
     22 C          -3.8040   -4.3580    0.0000 C.ar    1  LIG1        0.0002
     23 C          -3.5000   -3.4040    0.0000 C.ar    1  LIG1        0.0031
     24 C          -2.5330   -3.1960    0.0000 C.ar    1  LIG1        0.0375
     25 C          -1.2630   -2.0290    0.0000 C.ar    1  LIG1        0.0388
     26 C          -0.9630   -1.0790    0.0000 C.ar    1  LIG1        0.0197
     27 O          -0.5630    1.6130    0.0000 O.2     1  LIG1       -0.2711
     28 C          -0.5380    2.6000    0.0000 C.ar    1  LIG1        0.0162
     29 C          -1.4000    3.0920    0.0000 C.ar    1  LIG1        0.0014
     30 C          -1.4000    4.0920    0.0000 C.ar    1  LIG1        0.0014
     31 C          -0.5380    4.6000    0.0000 C.ar    1  LIG1        0.0200
     32 O           0.3210    5.1000    0.0000 O.2     1  LIG1       -0.1642
     33 O           2.0500    5.1000    0.0000 O.2     1  LIG1       -0.1642
@<TRIPOS>BOND
     1     1     2    1
     2     1     6    1
     3     1    32    2
     4     1    33    2
     5     2     3   ar
     6     2    31   ar
     7     3     4    1
     8     3    28   ar
     9     4     5    1
    10     4    11    1
    11     5     6   ar
    12     5    10   ar
    13     6     7   ar
    14     7     8   ar
    15     8     9   ar
    16     9    10   ar
    17    11    12    1
    18    12    13   am
    19    12    27    2
    20    13    14    1
    21    14    15   ar
    22    14    26   ar
    23    15    16   ar
    24    16    17   ar
    25    17    18    1
    26    17    25   ar
    27    18    19    1
    28    19    20   ar
    29    19    24   ar
    30    20    21   ar
    31    21    22   ar
    32    22    23   ar
    33    23    24   ar
    34    25    26   ar
    35    28    29   ar
    36    29    30   ar
    37    30    31   ar
