@<TRIPOS>MOLECULE
36517_ChemDiv_C200-4559
 26 29 0 0 0
SMALL
GASTEIGER
Energy = 0

@<TRIPOS>ATOM
      1 S           0.4290    3.0040    0.0000 S.O2    1  LIG1        0.0298
      2 C          -0.4330    2.5040    0.0000 C.ar    1  LIG1        0.1239
      3 C          -0.4330    1.5040    0.0000 C.ar    1  LIG1        0.0697
      4 N           0.4290    1.0080    0.0000 N.pl3   1  LIG1       -0.2763
      5 C           1.2920    1.5040    0.0000 C.ar    1  LIG1        0.0697
      6 C           1.2920    2.5040    0.0000 C.ar    1  LIG1        0.1239
      7 C           2.1500    3.0000    0.0000 C.ar    1  LIG1        0.0200
      8 C           3.0210    2.5170    0.0000 C.ar    1  LIG1        0.0014
      9 C           3.0250    1.5040    0.0000 C.ar    1  LIG1        0.0014
     10 C           2.1630    1.0080    0.0000 C.ar    1  LIG1        0.0162
     11 C           0.4290    0.0000    0.0000 C.3     1  LIG1        0.1833
     12 C          -0.4330   -0.5040    0.0000 C.2     1  LIG1        0.2662
     13 N          -0.4330   -1.5000    0.0000 N.am    1  LIG1       -0.1762
     14 C          -1.3000   -2.0000    0.0000 C.ar    1  LIG1        0.0925
     15 C          -2.1710   -1.5000    0.0000 C.ar    1  LIG1        0.1154
     16 N          -3.0290   -2.0000    0.0000 N.ar    1  LIG1       -0.2410
     17 C          -3.0290   -3.0080    0.0000 C.ar    1  LIG1        0.0990
     18 C          -2.1540   -3.5130    0.0000 C.ar    1  LIG1        0.0220
     19 C          -1.2960   -2.9960    0.0000 C.ar    1  LIG1        0.0198
     20 O          -1.3000    0.0000    0.0000 O.2     1  LIG1       -0.2711
     21 C          -1.2960    1.0080    0.0000 C.ar    1  LIG1        0.0162
     22 C          -2.1540    1.5040    0.0000 C.ar    1  LIG1        0.0014
     23 C          -2.1580    2.5170    0.0000 C.ar    1  LIG1        0.0014
     24 C          -1.2960    3.0000    0.0000 C.ar    1  LIG1        0.0200
     25 O           1.2920    3.5170    0.0000 O.2     1  LIG1       -0.1642
     26 O          -0.4380    3.5170    0.0000 O.2     1  LIG1       -0.1642
@<TRIPOS>BOND
     1     1     2    1
     2     1     6    1
     3     1    25    2
     4     1    26    2
     5     2     3   ar
     6     2    24   ar
     7     3     4    1
     8     3    21   ar
     9     4     5    1
    10     4    11    1
    11     5     6   ar
    12     5    10   ar
    13     6     7   ar
    14     7     8   ar
    15     8     9   ar
    16     9    10   ar
    17    11    12    1
    18    12    13   am
    19    12    20    2
    20    13    14    1
    21    14    15   ar
    22    14    19   ar
    23    15    16   ar
    24    16    17   ar
    25    17    18   ar
    26    18    19   ar
    27    21    22   ar
    28    22    23   ar
    29    23    24   ar
