@<TRIPOS>MOLECULE
36513_ChemDiv_G193-0683
 28 31 0 0 0
SMALL
GASTEIGER
Energy = 0

@<TRIPOS>ATOM
      1 C          -0.6500    0.7250    0.0000 C.ar    1  LIG1        0.1542
      2 C           0.1500    0.1500    0.0000 C.ar    1  LIG1        0.1923
      3 N           1.1040    0.4670    0.0000 N.ar    1  LIG1       -0.2005
      4 C           1.6920   -0.3330    0.0000 C.ar    1  LIG1        0.2051
      5 N           2.6920   -0.3170    0.0000 N.am    1  LIG1       -0.1493
      6 C           3.2040   -1.1920    0.0000 C.2     1  LIG1        0.2707
      7 C           4.2040   -1.1790    0.0000 C.ar    1  LIG1        0.0551
      8 C           4.6880   -0.3170    0.0000 C.ar    1  LIG1        0.0003
      9 C           5.6830   -0.3040    0.0000 C.ar    1  LIG1       -0.0217
     10 C           6.1920   -1.1750    0.0000 C.ar    1  LIG1       -0.0043
     11 C           5.7000   -2.0420    0.0000 C.ar    1  LIG1       -0.0002
     12 C           4.7000   -2.0420    0.0000 C.ar    1  LIG1        0.0046
     13 C           6.1670    0.5630    0.0000 C.3     1  LIG1        0.0310
     14 O           2.7080   -2.0540    0.0000 O.2     1  LIG1       -0.2679
     15 S           1.1210   -1.1500    0.0000 S.2     1  LIG1        0.0514
     16 N           0.1670   -0.8460    0.0000 N.ar    1  LIG1       -0.1855
     17 N          -0.6630    1.7380    0.0000 N.ar    1  LIG1       -0.1257
     18 N          -1.6330    2.0420    0.0000 N.ar    1  LIG1       -0.0598
     19 N          -2.2080    1.2250    0.0000 N.ar    1  LIG1       -0.2144
     20 C          -1.6080    0.4080    0.0000 C.ar    1  LIG1        0.0848
     21 C          -1.9080   -0.5460    0.0000 C.3     1  LIG1        0.0540
     22 C          -3.2040    1.2080    0.0000 C.ar    1  LIG1        0.0841
     23 C          -3.7080    2.0580    0.0000 C.ar    1  LIG1        0.0197
     24 C          -4.7040    2.0540    0.0000 C.ar    1  LIG1        0.0082
     25 C          -5.2000    1.1790    0.0000 C.ar    1  LIG1        0.0347
     26 C          -4.6880    0.3170    0.0000 C.ar    1  LIG1        0.0082
     27 C          -3.6880    0.3380    0.0000 C.ar    1  LIG1        0.0197
     28 BR         -6.1920    1.1710    0.0000 Br      1  LIG1       -0.0490
@<TRIPOS>BOND
     1     1     2    1
     2     1    17   ar
     3     1    20   ar
     4     2     3   ar
     5     2    16   ar
     6     3     4   ar
     7     4     5    1
     8     4    15   ar
     9     5     6   am
    10     6     7    1
    11     6    14    2
    12     7     8   ar
    13     7    12   ar
    14     8     9   ar
    15     9    10   ar
    16     9    13    1
    17    10    11   ar
    18    11    12   ar
    19    15    16   ar
    20    17    18   ar
    21    18    19   ar
    22    19    20   ar
    23    19    22    1
    24    20    21    1
    25    22    23   ar
    26    22    27   ar
    27    23    24   ar
    28    24    25   ar
    29    25    26   ar
    30    25    28    1
    31    26    27   ar
