@<TRIPOS>MOLECULE
36512_ChemDiv_K783-4470
 26 28 0 0 0
SMALL
GASTEIGER
Energy = 0

@<TRIPOS>ATOM
      1 C           0.8630    1.0080    0.0000 C.ar    1  LIG1        0.0717
      2 C           1.7330    1.5170    0.0000 C.2     1  LIG1        0.1796
      3 C           2.6040    1.0080    0.0000 C.3     1  LIG1        0.1092
      4 C           2.6040    0.0000    0.0000 C.3     1  LIG1        0.1436
      5 O           1.7250   -0.4960    0.0000 O.3     1  LIG1       -0.4819
      6 C           0.8630    0.0000    0.0000 C.ar    1  LIG1        0.1411
      7 C          -0.0040   -0.4960    0.0000 C.ar    1  LIG1        0.0401
      8 C          -0.8670    0.0000    0.0000 C.ar    1  LIG1        0.0400
      9 C          -0.8670    1.0080    0.0000 C.ar    1  LIG1        0.1397
     10 C          -0.0040    1.5080    0.0000 C.ar    1  LIG1        0.0428
     11 O          -1.7290    1.5000    0.0000 O.3     1  LIG1       -0.4638
     12 C          -2.5920    1.0080    0.0000 C.3     1  LIG1        0.3141
     13 C          -3.4540    1.5000    0.0000 C.2     1  LIG1        0.3620
     14 O          -3.4710    2.5000    0.0000 O.2     1  LIG1       -0.2459
     15 O          -4.3210    1.0000    0.0000 O.3     1  LIG1       -0.4459
     16 C          -5.1880    0.5000    0.0000 C.3     1  LIG1        0.2087
     17 C          -6.0580    0.9920    0.0000 C.3     1  LIG1        0.0513
     18 C           2.6040   -0.9960    0.0000 C.3     1  LIG1        0.0620
     19 C           3.4630   -1.4960    0.0000 C.3     1  LIG1        0.0970
     20 N           4.3290   -1.0080    0.0000 N.am    1  LIG1       -0.2793
     21 C           5.1920   -1.5130    0.0000 C.2     1  LIG1        0.2261
     22 O           6.0580   -1.0210    0.0000 O.2     1  LIG1       -0.2749
     23 C           5.1880   -2.5130    0.0000 C.3     1  LIG1        0.0948
     24 C           4.3290   -0.0080    0.0000 C.3     1  LIG1        0.0970
     25 C           3.4670    0.5000    0.0000 C.3     1  LIG1        0.0620
     26 O           1.7330    2.5170    0.0000 O.2     1  LIG1       -0.2911
@<TRIPOS>BOND
     1     1     2    1
     2     1     6   ar
     3     1    10   ar
     4     2     3    1
     5     2    26    2
     6     3     4    1
     7     4     5    1
     8     4    18    1
     9     4    25    1
    10     5     6    1
    11     6     7   ar
    12     7     8   ar
    13     8     9   ar
    14     9    10   ar
    15     9    11    1
    16    11    12    1
    17    12    13    1
    18    13    14    2
    19    13    15    1
    20    15    16    1
    21    16    17    1
    22    18    19    1
    23    19    20    1
    24    20    21   am
    25    20    24    1
    26    21    22    2
    27    21    23    1
    28    24    25    1
