@<TRIPOS>MOLECULE
36516_ChemDiv_C250-0579
 28 31 0 0 0
SMALL
GASTEIGER
Energy = 0

@<TRIPOS>ATOM
      1 N          -0.6830    0.7330    0.0000 N.am    1  LIG1       -0.2325
      2 C          -0.9880   -0.2250    0.0000 C.2     1  LIG1        0.1091
      3 C          -1.9920   -0.2170    0.0000 C.2     1  LIG1        0.0980
      4 N          -2.2960    0.7330    0.0000 N.2     1  LIG1       -0.2534
      5 C          -1.4710    1.3830    0.0000 C.3     1  LIG1        0.1497
      6 C          -0.6710    1.9790    0.0000 C.3     1  LIG1        0.0419
      7 C          -0.9880    2.9210    0.0000 C.3     1  LIG1        0.0038
      8 C          -1.9920    2.9080    0.0000 C.3     1  LIG1        0.0038
      9 C          -2.2880    1.9540    0.0000 C.3     1  LIG1        0.0419
     10 C          -2.5830   -1.0290    0.0000 C.ar    1  LIG1        0.0190
     11 C          -2.1750   -1.9380    0.0000 C.ar    1  LIG1        0.0015
     12 C          -2.7500   -2.7500    0.0000 C.ar    1  LIG1        0.0000
     13 C          -3.7580   -2.6420    0.0000 C.ar    1  LIG1        0.0000
     14 C          -4.1670   -1.7250    0.0000 C.ar    1  LIG1        0.0000
     15 C          -3.5790   -0.9250    0.0000 C.ar    1  LIG1        0.0015
     16 S          -0.4000   -1.0290    0.0000 S.2     1  LIG1       -0.0327
     17 C           0.2790    1.0380    0.0000 C.2     1  LIG1        0.2545
     18 C           1.0080    0.3710    0.0000 C.ar    1  LIG1        0.0572
     19 C           0.7960   -0.6080    0.0000 C.ar    1  LIG1        0.0446
     20 C           1.5330   -1.2710    0.0000 C.ar    1  LIG1        0.1725
     21 C           2.4880   -0.9710    0.0000 C.ar    1  LIG1        0.1724
     22 C           2.6960    0.0080    0.0000 C.ar    1  LIG1        0.0402
     23 C           1.9420    0.6750    0.0000 C.ar    1  LIG1        0.0078
     24 O           3.2130   -1.6330    0.0000 O.3     1  LIG1       -0.4684
     25 C           4.1630   -1.3330    0.0000 C.3     1  LIG1        0.2526
     26 O           1.3250   -2.2460    0.0000 O.3     1  LIG1       -0.4684
     27 C           2.0580   -2.9170    0.0000 C.3     1  LIG1        0.2526
     28 O           0.4790    2.0000    0.0000 O.2     1  LIG1       -0.2695
@<TRIPOS>BOND
     1     1     2    1
     2     1     5    1
     3     1    17   am
     4     2     3    1
     5     2    16    2
     6     3     4    2
     7     3    10    1
     8     4     5    1
     9     5     6    1
    10     5     9    1
    11     6     7    1
    12     7     8    1
    13     8     9    1
    14    10    11   ar
    15    10    15   ar
    16    11    12   ar
    17    12    13   ar
    18    13    14   ar
    19    14    15   ar
    20    17    18    1
    21    17    28    2
    22    18    19   ar
    23    18    23   ar
    24    19    20   ar
    25    20    21   ar
    26    20    26    1
    27    21    22   ar
    28    21    24    1
    29    22    23   ar
    30    24    25    1
    31    26    27    1
