@<TRIPOS>MOLECULE
36518_ChemDiv_C250-0626
 35 38 0 0 0
SMALL
GASTEIGER
Energy = 0

@<TRIPOS>ATOM
      1 N           0.1040    0.9330    0.0000 N.am    1  LIG1       -0.2325
      2 C          -0.2130   -0.0290    0.0000 C.2     1  LIG1        0.1091
      3 C          -1.2130   -0.0170    0.0000 C.2     1  LIG1        0.0982
      4 N          -1.5130    0.9330    0.0000 N.2     1  LIG1       -0.2534
      5 C          -0.6830    1.5830    0.0000 C.3     1  LIG1        0.1497
      6 C          -1.5580    2.0710    0.0000 C.3     1  LIG1        0.0419
      7 C          -1.5580    3.0750    0.0000 C.3     1  LIG1        0.0037
      8 C          -0.7000    3.5750    0.0000 C.3     1  LIG1        0.0002
      9 C           0.1670    3.0750    0.0000 C.3     1  LIG1        0.0037
     10 C           0.1790    2.0880    0.0000 C.3     1  LIG1        0.0419
     11 C          -1.8000   -0.8330    0.0000 C.ar    1  LIG1        0.0251
     12 C          -2.7960   -0.7290    0.0000 C.ar    1  LIG1        0.0386
     13 C          -3.3880   -1.5290    0.0000 C.ar    1  LIG1        0.1418
     14 C          -2.9790   -2.4460    0.0000 C.ar    1  LIG1        0.0737
     15 C          -1.9710   -2.5540    0.0000 C.ar    1  LIG1        0.1418
     16 C          -1.3920   -1.7420    0.0000 C.ar    1  LIG1        0.0386
     17 O          -1.5750   -3.4630    0.0000 O.3     1  LIG1       -0.4713
     18 C          -0.5830   -3.5710    0.0000 C.3     1  LIG1        0.2525
     19 O          -4.3750   -1.4210    0.0000 O.3     1  LIG1       -0.4713
     20 C          -4.9580   -2.2330    0.0000 C.3     1  LIG1        0.2525
     21 S           0.3830   -0.8330    0.0000 S.2     1  LIG1       -0.0327
     22 C           1.0630    1.2330    0.0000 C.2     1  LIG1        0.2546
     23 C           1.7960    0.5710    0.0000 C.ar    1  LIG1        0.0602
     24 C           1.5830   -0.4130    0.0000 C.ar    1  LIG1        0.0448
     25 C           2.3250   -1.0750    0.0000 C.ar    1  LIG1        0.1756
     26 C           3.2750   -0.7750    0.0000 C.ar    1  LIG1        0.2061
     27 C           3.4880    0.2080    0.0000 C.ar    1  LIG1        0.1756
     28 C           2.7290    0.8750    0.0000 C.ar    1  LIG1        0.0448
     29 O           4.4250    0.5170    0.0000 O.3     1  LIG1       -0.4683
     30 C           4.6380    1.4920    0.0000 C.3     1  LIG1        0.2526
     31 O           4.0000   -1.4380    0.0000 O.3     1  LIG1       -0.4654
     32 C           4.9540   -1.1330    0.0000 C.3     1  LIG1        0.2528
     33 O           2.1130   -2.0540    0.0000 O.3     1  LIG1       -0.4683
     34 C           2.8460   -2.7210    0.0000 C.3     1  LIG1        0.2526
     35 O           1.2670    2.2000    0.0000 O.2     1  LIG1       -0.2695
@<TRIPOS>BOND
     1     1     2    1
     2     1     5    1
     3     1    22   am
     4     2     3    1
     5     2    21    2
     6     3     4    2
     7     3    11    1
     8     4     5    1
     9     5     6    1
    10     5    10    1
    11     6     7    1
    12     7     8    1
    13     8     9    1
    14     9    10    1
    15    11    12   ar
    16    11    16   ar
    17    12    13   ar
    18    13    14   ar
    19    13    19    1
    20    14    15   ar
    21    15    16   ar
    22    15    17    1
    23    17    18    1
    24    19    20    1
    25    22    23    1
    26    22    35    2
    27    23    24   ar
    28    23    28   ar
    29    24    25   ar
    30    25    26   ar
    31    25    33    1
    32    26    27   ar
    33    26    31    1
    34    27    28   ar
    35    27    29    1
    36    29    30    1
    37    31    32    1
    38    33    34    1
