@<TRIPOS>MOLECULE
36522_ChemDiv_C250-0632
 31 34 0 0 0
SMALL
GASTEIGER
Energy = 0

@<TRIPOS>ATOM
      1 N          -0.6830    0.5080    0.0000 N.am    1  LIG1       -0.2325
      2 C          -1.0000   -0.4500    0.0000 C.2     1  LIG1        0.1091
      3 C          -1.9960   -0.4420    0.0000 C.2     1  LIG1        0.0980
      4 N          -2.2960    0.5080    0.0000 N.2     1  LIG1       -0.2534
      5 C          -1.4670    1.1580    0.0000 C.3     1  LIG1        0.1497
      6 C          -0.6040    1.6630    0.0000 C.3     1  LIG1        0.0419
      7 C          -0.6210    2.6500    0.0000 C.3     1  LIG1        0.0037
      8 C          -1.4830    3.1500    0.0000 C.3     1  LIG1        0.0002
      9 C          -2.3420    2.6500    0.0000 C.3     1  LIG1        0.0037
     10 C          -2.3420    1.6460    0.0000 C.3     1  LIG1        0.0419
     11 C          -2.5830   -1.2580    0.0000 C.ar    1  LIG1        0.0190
     12 C          -2.1750   -2.1630    0.0000 C.ar    1  LIG1        0.0015
     13 C          -2.7540   -2.9790    0.0000 C.ar    1  LIG1        0.0000
     14 C          -3.7630   -2.8670    0.0000 C.ar    1  LIG1        0.0000
     15 C          -4.1710   -1.9500    0.0000 C.ar    1  LIG1        0.0000
     16 C          -3.5790   -1.1500    0.0000 C.ar    1  LIG1        0.0015
     17 S          -0.4000   -1.2580    0.0000 S.2     1  LIG1       -0.0327
     18 C           0.2790    0.8130    0.0000 C.2     1  LIG1        0.2546
     19 C           1.0080    0.1460    0.0000 C.ar    1  LIG1        0.0602
     20 C           1.9460    0.4500    0.0000 C.ar    1  LIG1        0.0448
     21 C           2.7000   -0.2170    0.0000 C.ar    1  LIG1        0.1756
     22 C           2.4880   -1.1960    0.0000 C.ar    1  LIG1        0.2061
     23 C           1.5380   -1.5000    0.0000 C.ar    1  LIG1        0.1756
     24 C           0.7960   -0.8330    0.0000 C.ar    1  LIG1        0.0448
     25 O           1.3250   -2.4750    0.0000 O.3     1  LIG1       -0.4683
     26 C           2.0580   -3.1460    0.0000 C.3     1  LIG1        0.2526
     27 O           3.2130   -1.8630    0.0000 O.3     1  LIG1       -0.4654
     28 C           4.1670   -1.5580    0.0000 C.3     1  LIG1        0.2528
     29 O           3.6380    0.0920    0.0000 O.3     1  LIG1       -0.4683
     30 C           3.8460    1.0670    0.0000 C.3     1  LIG1        0.2526
     31 O           0.4790    1.7790    0.0000 O.2     1  LIG1       -0.2695
@<TRIPOS>BOND
     1     1     2    1
     2     1     5    1
     3     1    18   am
     4     2     3    1
     5     2    17    2
     6     3     4    2
     7     3    11    1
     8     4     5    1
     9     5     6    1
    10     5    10    1
    11     6     7    1
    12     7     8    1
    13     8     9    1
    14     9    10    1
    15    11    12   ar
    16    11    16   ar
    17    12    13   ar
    18    13    14   ar
    19    14    15   ar
    20    15    16   ar
    21    18    19    1
    22    18    31    2
    23    19    20   ar
    24    19    24   ar
    25    20    21   ar
    26    21    22   ar
    27    21    29    1
    28    22    23   ar
    29    22    27    1
    30    23    24   ar
    31    23    25    1
    32    25    26    1
    33    27    28    1
    34    29    30    1
