@<TRIPOS>MOLECULE
36524_ChemDiv_C250-0659
 26 28 0 0 0
SMALL
GASTEIGER
Energy = 0

@<TRIPOS>ATOM
      1 N          -0.5880    1.4540    0.0000 N.am    1  LIG1       -0.2325
      2 C          -0.9040    0.4960    0.0000 C.2     1  LIG1        0.1091
      3 C          -1.9000    0.5080    0.0000 C.2     1  LIG1        0.0988
      4 N          -2.2000    1.4540    0.0000 N.2     1  LIG1       -0.2534
      5 C          -1.3580    2.1080    0.0000 C.3     1  LIG1        0.1499
      6 C          -0.5000    2.6170    0.0000 C.3     1  LIG1        0.0456
      7 C          -2.2330    2.6040    0.0000 C.3     1  LIG1        0.0456
      8 C          -2.4880   -0.3080    0.0000 C.ar    1  LIG1        0.0297
      9 C          -3.4830   -0.2000    0.0000 C.ar    1  LIG1        0.0600
     10 C          -4.0710   -1.0000    0.0000 C.ar    1  LIG1        0.0228
     11 C          -3.6630   -1.9130    0.0000 C.ar    1  LIG1        0.0585
     12 C          -2.6580   -2.0250    0.0000 C.ar    1  LIG1        0.0115
     13 C          -2.0830   -1.2080    0.0000 C.ar    1  LIG1        0.0033
     14 CL         -4.2500   -2.7170    0.0000 Cl      1  LIG1       -0.0822
     15 CL         -3.8790    0.7170    0.0000 Cl      1  LIG1       -0.0822
     16 S          -0.3080   -0.3080    0.0000 S.2     1  LIG1       -0.0327
     17 C           0.3670    1.7580    0.0000 C.2     1  LIG1        0.2544
     18 C           1.0960    1.0960    0.0000 C.ar    1  LIG1        0.0542
     19 C           0.8880    0.1170    0.0000 C.ar    1  LIG1        0.0076
     20 C           1.6250   -0.5500    0.0000 C.ar    1  LIG1        0.0370
     21 C           2.5750   -0.2460    0.0000 C.ar    1  LIG1        0.1387
     22 C           2.7880    0.7330    0.0000 C.ar    1  LIG1        0.0370
     23 C           2.0290    1.3960    0.0000 C.ar    1  LIG1        0.0076
     24 O           3.2960   -0.9080    0.0000 O.3     1  LIG1       -0.4714
     25 C           4.2460   -0.6080    0.0000 C.3     1  LIG1        0.2525
     26 O           0.5710    2.7210    0.0000 O.2     1  LIG1       -0.2695
@<TRIPOS>BOND
     1     1     2    1
     2     1     5    1
     3     1    17   am
     4     2     3    1
     5     2    16    2
     6     3     4    2
     7     3     8    1
     8     4     5    1
     9     5     6    1
    10     5     7    1
    11     8     9   ar
    12     8    13   ar
    13     9    10   ar
    14     9    15    1
    15    10    11   ar
    16    11    12   ar
    17    11    14    1
    18    12    13   ar
    19    17    18    1
    20    17    26    2
    21    18    19   ar
    22    18    23   ar
    23    19    20   ar
    24    20    21   ar
    25    21    22   ar
    26    21    24    1
    27    22    23   ar
    28    24    25    1
