@<TRIPOS>MOLECULE
36521_ChemDiv_G233-0012
 32 36 0 0 0
SMALL
GASTEIGER
Energy = 0

@<TRIPOS>ATOM
      1 S           1.1920    3.5130    0.0000 S.O2    1  LIG1        0.0298
      2 C           0.3330    3.0040    0.0000 C.ar    1  LIG1        0.1239
      3 C           0.3290    2.0000    0.0000 C.ar    1  LIG1        0.0697
      4 N           1.1880    1.5000    0.0000 N.pl3   1  LIG1       -0.2763
      5 C           2.0540    1.9920    0.0000 C.ar    1  LIG1        0.0697
      6 C           2.0540    2.9960    0.0000 C.ar    1  LIG1        0.1239
      7 C           2.9290    3.5000    0.0000 C.ar    1  LIG1        0.0200
      8 C           3.8000    2.9880    0.0000 C.ar    1  LIG1        0.0014
      9 C           3.7920    1.9830    0.0000 C.ar    1  LIG1        0.0014
     10 C           2.9170    1.4920    0.0000 C.ar    1  LIG1        0.0162
     11 C           1.1790    0.5040    0.0000 C.3     1  LIG1        0.1833
     12 C           0.3130    0.0080    0.0000 C.2     1  LIG1        0.2661
     13 N           0.3130   -1.0040    0.0000 N.am    1  LIG1       -0.1776
     14 C          -0.5500   -1.5040    0.0000 C.ar    1  LIG1        0.0794
     15 C          -0.5500   -2.5080    0.0000 C.ar    1  LIG1        0.0532
     16 C          -1.4210   -3.0080    0.0000 C.ar    1  LIG1        0.0443
     17 C          -2.2790   -2.5080    0.0000 C.ar    1  LIG1        0.1766
     18 C          -2.2790   -1.5130    0.0000 C.ar    1  LIG1        0.1777
     19 C          -1.4210   -1.0040    0.0000 C.ar    1  LIG1        0.0569
     20 O          -3.2290   -1.2000    0.0000 O.3     1  LIG1       -0.4346
     21 C          -3.8040   -2.0130    0.0000 C.3     1  LIG1        0.4294
     22 O          -3.2290   -2.8170    0.0000 O.3     1  LIG1       -0.4346
     23 C           0.3170   -3.0080    0.0000 C.2     1  LIG1        0.1748
     24 O           0.3170   -4.0040    0.0000 O.2     1  LIG1       -0.2913
     25 C           1.1790   -2.5000    0.0000 C.3     1  LIG1        0.0773
     26 O          -0.5580    0.5210    0.0000 O.2     1  LIG1       -0.2711
     27 C          -0.5330    1.5080    0.0000 C.ar    1  LIG1        0.0162
     28 C          -1.3960    2.0000    0.0000 C.ar    1  LIG1        0.0014
     29 C          -1.3960    3.0040    0.0000 C.ar    1  LIG1        0.0014
     30 C          -0.5330    3.5130    0.0000 C.ar    1  LIG1        0.0200
     31 O           2.0540    4.0040    0.0000 O.2     1  LIG1       -0.1642
     32 O           0.3290    4.0040    0.0000 O.2     1  LIG1       -0.1642
@<TRIPOS>BOND
     1     1     2    1
     2     1     6    1
     3     1    31    2
     4     1    32    2
     5     2     3   ar
     6     2    30   ar
     7     3     4    1
     8     3    27   ar
     9     4     5    1
    10     4    11    1
    11     5     6   ar
    12     5    10   ar
    13     6     7   ar
    14     7     8   ar
    15     8     9   ar
    16     9    10   ar
    17    11    12    1
    18    12    13   am
    19    12    26    2
    20    13    14    1
    21    14    15   ar
    22    14    19   ar
    23    15    16   ar
    24    15    23    1
    25    16    17   ar
    26    17    18   ar
    27    17    22    1
    28    18    19   ar
    29    18    20    1
    30    20    21    1
    31    21    22    1
    32    23    24    2
    33    23    25    1
    34    27    28   ar
    35    28    29   ar
    36    29    30   ar
