@<TRIPOS>MOLECULE
36525_ChemDiv_G233-0103
 28 31 0 0 0
SMALL
GASTEIGER
Energy = 0

@<TRIPOS>ATOM
      1 S           0.8710    3.4920    0.0000 S.O2    1  LIG1        0.0298
      2 C           0.0080    2.9920    0.0000 C.ar    1  LIG1        0.1239
      3 C           0.0040    1.9830    0.0000 C.ar    1  LIG1        0.0697
      4 N           0.8630    1.4830    0.0000 N.pl3   1  LIG1       -0.2763
      5 C           1.7290    1.9790    0.0000 C.ar    1  LIG1        0.0697
      6 C           1.7290    2.9830    0.0000 C.ar    1  LIG1        0.1239
      7 C           2.6080    3.4920    0.0000 C.ar    1  LIG1        0.0200
      8 C           3.4790    2.9750    0.0000 C.ar    1  LIG1        0.0014
      9 C           3.4670    1.9710    0.0000 C.ar    1  LIG1        0.0014
     10 C           2.5920    1.4790    0.0000 C.ar    1  LIG1        0.0162
     11 C           0.8540    0.4830    0.0000 C.3     1  LIG1        0.1833
     12 C          -0.0130   -0.0130    0.0000 C.2     1  LIG1        0.2661
     13 N          -0.0210   -1.0130    0.0000 N.am    1  LIG1       -0.1778
     14 C          -0.8830   -1.5130    0.0000 C.ar    1  LIG1        0.0731
     15 C          -0.8830   -2.5040    0.0000 C.ar    1  LIG1        0.0120
     16 C          -1.7460   -2.9920    0.0000 C.ar    1  LIG1       -0.0245
     17 C          -2.6130   -2.4960    0.0000 C.ar    1  LIG1       -0.0257
     18 C          -2.6040   -1.4960    0.0000 C.ar    1  LIG1       -0.0032
     19 C          -1.7460   -0.9960    0.0000 C.ar    1  LIG1        0.0163
     20 C          -3.4830   -2.9920    0.0000 C.3     1  LIG1        0.0307
     21 C          -1.7460   -3.9920    0.0000 C.3     1  LIG1        0.0307
     22 O          -0.8830    0.5000    0.0000 O.2     1  LIG1       -0.2711
     23 C          -0.8580    1.4960    0.0000 C.ar    1  LIG1        0.0162
     24 C          -1.7210    1.9830    0.0000 C.ar    1  LIG1        0.0014
     25 C          -1.7210    2.9920    0.0000 C.ar    1  LIG1        0.0014
     26 C          -0.8580    3.4960    0.0000 C.ar    1  LIG1        0.0200
     27 O           1.7290    3.9960    0.0000 O.2     1  LIG1       -0.1642
     28 O           0.0040    3.9880    0.0000 O.2     1  LIG1       -0.1642
@<TRIPOS>BOND
     1     1     2    1
     2     1     6    1
     3     1    27    2
     4     1    28    2
     5     2     3   ar
     6     2    26   ar
     7     3     4    1
     8     3    23   ar
     9     4     5    1
    10     4    11    1
    11     5     6   ar
    12     5    10   ar
    13     6     7   ar
    14     7     8   ar
    15     8     9   ar
    16     9    10   ar
    17    11    12    1
    18    12    13   am
    19    12    22    2
    20    13    14    1
    21    14    15   ar
    22    14    19   ar
    23    15    16   ar
    24    16    17   ar
    25    16    21    1
    26    17    18   ar
    27    17    20    1
    28    18    19   ar
    29    23    24   ar
    30    24    25   ar
    31    25    26   ar
