@<TRIPOS>MOLECULE
36520_ChemDiv_C250-0627
 30 32 0 0 0
SMALL
GASTEIGER
Energy = 0

@<TRIPOS>ATOM
      1 N          -0.5920    1.4580    0.0000 N.am    1  LIG1       -0.2325
      2 C          -0.9080    0.4960    0.0000 C.2     1  LIG1        0.1091
      3 C          -1.9040    0.5080    0.0000 C.2     1  LIG1        0.0988
      4 N          -2.2040    1.4580    0.0000 N.2     1  LIG1       -0.2534
      5 C          -1.3750    2.1080    0.0000 C.3     1  LIG1        0.1499
      6 C          -2.2500    2.5960    0.0000 C.3     1  LIG1        0.0456
      7 C          -0.5170    2.6080    0.0000 C.3     1  LIG1        0.0456
      8 C          -2.4920   -0.3080    0.0000 C.ar    1  LIG1        0.0297
      9 C          -3.4880   -0.2000    0.0000 C.ar    1  LIG1        0.0600
     10 C          -4.0750   -1.0000    0.0000 C.ar    1  LIG1        0.0228
     11 C          -3.6670   -1.9170    0.0000 C.ar    1  LIG1        0.0585
     12 C          -2.6630   -2.0250    0.0000 C.ar    1  LIG1        0.0115
     13 C          -2.0830   -1.2130    0.0000 C.ar    1  LIG1        0.0033
     14 CL         -4.2580   -2.7210    0.0000 Cl      1  LIG1       -0.0822
     15 CL         -3.8830    0.7210    0.0000 Cl      1  LIG1       -0.0822
     16 S          -0.3080   -0.3080    0.0000 S.2     1  LIG1       -0.0327
     17 C           0.3710    1.7580    0.0000 C.2     1  LIG1        0.2546
     18 C           1.1000    1.0960    0.0000 C.ar    1  LIG1        0.0602
     19 C           0.8880    0.1170    0.0000 C.ar    1  LIG1        0.0448
     20 C           1.6250   -0.5500    0.0000 C.ar    1  LIG1        0.1756
     21 C           2.5790   -0.2460    0.0000 C.ar    1  LIG1        0.2061
     22 C           2.7880    0.7330    0.0000 C.ar    1  LIG1        0.1756
     23 C           2.0330    1.4000    0.0000 C.ar    1  LIG1        0.0448
     24 O           3.7250    1.0420    0.0000 O.3     1  LIG1       -0.4683
     25 C           3.9380    2.0170    0.0000 C.3     1  LIG1        0.2526
     26 O           3.3000   -0.9130    0.0000 O.3     1  LIG1       -0.4654
     27 C           4.2540   -0.6080    0.0000 C.3     1  LIG1        0.2528
     28 O           1.4170   -1.5250    0.0000 O.3     1  LIG1       -0.4683
     29 C           2.1500   -2.1920    0.0000 C.3     1  LIG1        0.2526
     30 O           0.5710    2.7250    0.0000 O.2     1  LIG1       -0.2695
@<TRIPOS>BOND
     1     1     2    1
     2     1     5    1
     3     1    17   am
     4     2     3    1
     5     2    16    2
     6     3     4    2
     7     3     8    1
     8     4     5    1
     9     5     6    1
    10     5     7    1
    11     8     9   ar
    12     8    13   ar
    13     9    10   ar
    14     9    15    1
    15    10    11   ar
    16    11    12   ar
    17    11    14    1
    18    12    13   ar
    19    17    18    1
    20    17    30    2
    21    18    19   ar
    22    18    23   ar
    23    19    20   ar
    24    20    21   ar
    25    20    28    1
    26    21    22   ar
    27    21    26    1
    28    22    23   ar
    29    22    24    1
    30    24    25    1
    31    26    27    1
    32    28    29    1
