@<TRIPOS>MOLECULE
36526_ChemDiv_C250-0663
 24 26 0 0 0
SMALL
GASTEIGER
Energy = 0

@<TRIPOS>ATOM
      1 N          -0.6790    1.1080    0.0000 N.am    1  LIG1       -0.2325
      2 C          -0.9960    0.1500    0.0000 C.2     1  LIG1        0.1091
      3 C          -1.9920    0.1580    0.0000 C.2     1  LIG1        0.0980
      4 N          -2.2920    1.1080    0.0000 N.2     1  LIG1       -0.2534
      5 C          -1.4500    1.7630    0.0000 C.3     1  LIG1        0.1499
      6 C          -2.3210    2.2540    0.0000 C.3     1  LIG1        0.0456
      7 C          -0.5920    2.2710    0.0000 C.3     1  LIG1        0.0456
      8 C          -2.5790   -0.6540    0.0000 C.ar    1  LIG1        0.0190
      9 C          -3.5710   -0.5500    0.0000 C.ar    1  LIG1        0.0015
     10 C          -4.1630   -1.3460    0.0000 C.ar    1  LIG1        0.0000
     11 C          -3.7540   -2.2630    0.0000 C.ar    1  LIG1        0.0000
     12 C          -2.7500   -2.3710    0.0000 C.ar    1  LIG1        0.0000
     13 C          -2.1710   -1.5580    0.0000 C.ar    1  LIG1        0.0015
     14 S          -0.4000   -0.6540    0.0000 S.2     1  LIG1       -0.0327
     15 C           0.2790    1.4130    0.0000 C.2     1  LIG1        0.2544
     16 C           1.0080    0.7460    0.0000 C.ar    1  LIG1        0.0542
     17 C           0.7960   -0.2290    0.0000 C.ar    1  LIG1        0.0076
     18 C           1.5330   -0.8960    0.0000 C.ar    1  LIG1        0.0370
     19 C           2.4830   -0.5920    0.0000 C.ar    1  LIG1        0.1387
     20 C           2.6960    0.3880    0.0000 C.ar    1  LIG1        0.0370
     21 C           1.9420    1.0500    0.0000 C.ar    1  LIG1        0.0076
     22 O           3.2080   -1.2580    0.0000 O.3     1  LIG1       -0.4714
     23 C           4.1580   -0.9540    0.0000 C.3     1  LIG1        0.2525
     24 O           0.4790    2.3750    0.0000 O.2     1  LIG1       -0.2695
@<TRIPOS>BOND
     1     1     2    1
     2     1     5    1
     3     1    15   am
     4     2     3    1
     5     2    14    2
     6     3     4    2
     7     3     8    1
     8     4     5    1
     9     5     6    1
    10     5     7    1
    11     8     9   ar
    12     8    13   ar
    13     9    10   ar
    14    10    11   ar
    15    11    12   ar
    16    12    13   ar
    17    15    16    1
    18    15    24    2
    19    16    17   ar
    20    16    21   ar
    21    17    18   ar
    22    18    19   ar
    23    19    20   ar
    24    19    22    1
    25    20    21   ar
    26    22    23    1
