@<TRIPOS>MOLECULE
36538_ChemDiv_K786-3825
 25 27 0 0 0
SMALL
GASTEIGER
Energy = 0

@<TRIPOS>ATOM
      1 N           2.2040    0.9960    0.0000 N.am    1  LIG1       -0.2765
      2 C           1.3380    1.4960    0.0000 C.2     1  LIG1        0.2702
      3 C           0.4630    0.9830    0.0000 C.3     1  LIG1        0.2896
      4 O           0.4750   -0.0170    0.0000 O.3     1  LIG1       -0.4656
      5 C          -0.3880   -0.5210    0.0000 C.ar    1  LIG1        0.1396
      6 C          -1.2500   -0.0250    0.0000 C.ar    1  LIG1        0.0428
      7 C          -2.1170   -0.5250    0.0000 C.ar    1  LIG1        0.0717
      8 C          -2.9830   -0.0170    0.0000 C.2     1  LIG1        0.1796
      9 C          -3.8380   -0.5250    0.0000 C.3     1  LIG1        0.1091
     10 C          -3.8380   -1.5250    0.0000 C.3     1  LIG1        0.1406
     11 O          -2.9830   -2.0210    0.0000 O.3     1  LIG1       -0.4820
     12 C          -2.1170   -1.5210    0.0000 C.ar    1  LIG1        0.1411
     13 C          -1.2500   -2.0210    0.0000 C.ar    1  LIG1        0.0401
     14 C          -0.3880   -1.5210    0.0000 C.ar    1  LIG1        0.0400
     15 C          -4.0960   -2.4920    0.0000 C.3     1  LIG1        0.0441
     16 C          -4.8040   -1.2670    0.0000 C.3     1  LIG1        0.0441
     17 O          -2.9830    0.9830    0.0000 O.2     1  LIG1       -0.2911
     18 O           1.3290    2.4960    0.0000 O.2     1  LIG1       -0.2708
     19 C           3.0710    1.5000    0.0000 C.3     1  LIG1        0.0935
     20 C           3.9420    1.0130    0.0000 C.3     1  LIG1        0.0199
     21 C           3.9420    0.0130    0.0000 C.3     1  LIG1        0.0034
     22 C           3.0750   -0.4960    0.0000 C.3     1  LIG1        0.0199
     23 C           2.2080   -0.0040    0.0000 C.3     1  LIG1        0.0935
     24 C           3.0920   -1.4960    0.0000 C.3     1  LIG1        0.0018
     25 C           4.8000    1.5250    0.0000 C.3     1  LIG1        0.0018
@<TRIPOS>BOND
     1     1     2   am
     2     1    19    1
     3     1    23    1
     4     2     3    1
     5     2    18    2
     6     3     4    1
     7     4     5    1
     8     5     6   ar
     9     5    14   ar
    10     6     7   ar
    11     7     8    1
    12     7    12   ar
    13     8     9    1
    14     8    17    2
    15     9    10    1
    16    10    11    1
    17    10    15    1
    18    10    16    1
    19    11    12    1
    20    12    13   ar
    21    13    14   ar
    22    19    20    1
    23    20    21    1
    24    20    25    1
    25    21    22    1
    26    22    23    1
    27    22    24    1
