@<TRIPOS>MOLECULE
36532_ChemDiv_C214-1030
 26 27 0 0 0
SMALL
GASTEIGER
Energy = 0

@<TRIPOS>ATOM
      1 C           3.8460    0.1670    0.0000 C.ar    1  LIG1        0.0717
      2 C           4.7170    0.6750    0.0000 C.2     1  LIG1        0.1796
      3 C           5.5670    0.1790    0.0000 C.3     1  LIG1        0.1091
      4 C           5.5670   -0.8290    0.0000 C.3     1  LIG1        0.1406
      5 O           4.7170   -1.3210    0.0000 O.3     1  LIG1       -0.4820
      6 C           3.8460   -0.8290    0.0000 C.ar    1  LIG1        0.1411
      7 C           3.0130   -1.3210    0.0000 C.ar    1  LIG1        0.0401
      8 C           2.1250   -0.8290    0.0000 C.ar    1  LIG1        0.0400
      9 C           2.1250    0.1670    0.0000 C.ar    1  LIG1        0.1396
     10 C           2.9830    0.6750    0.0000 C.ar    1  LIG1        0.0428
     11 O           1.2500    0.6750    0.0000 O.3     1  LIG1       -0.4656
     12 C           0.4000    0.1790    0.0000 C.3     1  LIG1        0.2911
     13 C          -0.4710    0.6920    0.0000 C.2     1  LIG1        0.2859
     14 O          -0.4710    1.6880    0.0000 O.2     1  LIG1       -0.2693
     15 N          -1.3380    0.1790    0.0000 N.am    1  LIG1       -0.2021
     16 C          -2.1920    0.6920    0.0000 C.3     1  LIG1        0.1214
     17 C          -3.0580    0.1790    0.0000 C.3     1  LIG1        0.0861
     18 C          -3.9330    0.6920    0.0000 C.3     1  LIG1        0.1404
     19 N          -4.7880    0.1790    0.0000 N.4     1  LIG1        0.3773
     20 C          -4.8040   -0.8130    0.0000 C.3     1  LIG1        0.1388
     21 C          -3.9330   -1.3210    0.0000 C.3     1  LIG1        0.0688
     22 C          -5.6750    0.6920    0.0000 C.3     1  LIG1        0.1388
     23 C          -6.5210    0.1790    0.0000 C.3     1  LIG1        0.0688
     24 C           6.5210   -0.5210    0.0000 C.3     1  LIG1        0.0441
     25 C           6.0750   -1.6830    0.0000 C.3     1  LIG1        0.0441
     26 O           4.7170    1.6880    0.0000 O.2     1  LIG1       -0.2911
@<TRIPOS>BOND
     1     1     2    1
     2     1     6   ar
     3     1    10   ar
     4     2     3    1
     5     2    26    2
     6     3     4    1
     7     4     5    1
     8     4    24    1
     9     4    25    1
    10     5     6    1
    11     6     7   ar
    12     7     8   ar
    13     8     9   ar
    14     9    10   ar
    15     9    11    1
    16    11    12    1
    17    12    13    1
    18    13    14    2
    19    13    15   am
    20    15    16    1
    21    16    17    1
    22    17    18    1
    23    18    19    1
    24    19    20    1
    25    19    22    1
    26    20    21    1
    27    22    23    1
