@<TRIPOS>MOLECULE
36536_ChemDiv_C214-1106
 22 24 0 0 0
SMALL
GASTEIGER
Energy = 0

@<TRIPOS>ATOM
      1 C           2.0540    0.1710    0.0000 C.ar    1  LIG1        0.0717
      2 C           2.9040    0.6880    0.0000 C.2     1  LIG1        0.1796
      3 C           3.7790    0.1790    0.0000 C.3     1  LIG1        0.1091
      4 C           3.7790   -0.8250    0.0000 C.3     1  LIG1        0.1406
      5 O           2.9170   -1.3290    0.0000 O.3     1  LIG1       -0.4820
      6 C           2.0630   -0.8250    0.0000 C.ar    1  LIG1        0.1411
      7 C           1.2000   -1.3290    0.0000 C.ar    1  LIG1        0.0401
      8 C           0.3290   -0.8250    0.0000 C.ar    1  LIG1        0.0400
      9 C           0.3290    0.1790    0.0000 C.ar    1  LIG1        0.1396
     10 C           1.1960    0.6880    0.0000 C.ar    1  LIG1        0.0428
     11 O          -0.5540    0.6880    0.0000 O.3     1  LIG1       -0.4656
     12 C          -1.4040    0.1790    0.0000 C.3     1  LIG1        0.2896
     13 C          -2.2630    0.6920    0.0000 C.2     1  LIG1        0.2702
     14 N          -3.1250    0.1790    0.0000 N.am    1  LIG1       -0.2765
     15 C          -3.3460   -0.7960    0.0000 C.3     1  LIG1        0.0936
     16 C          -4.3290   -0.9000    0.0000 C.3     1  LIG1        0.0233
     17 C          -4.7420    0.0130    0.0000 C.3     1  LIG1        0.0233
     18 C          -4.0000    0.6880    0.0000 C.3     1  LIG1        0.0936
     19 O          -2.2630    1.6830    0.0000 O.2     1  LIG1       -0.2708
     20 C           4.7380   -0.5210    0.0000 C.3     1  LIG1        0.0441
     21 C           4.2790   -1.6790    0.0000 C.3     1  LIG1        0.0441
     22 O           2.9040    1.6790    0.0000 O.2     1  LIG1       -0.2911
@<TRIPOS>BOND
     1     1     2    1
     2     1     6   ar
     3     1    10   ar
     4     2     3    1
     5     2    22    2
     6     3     4    1
     7     4     5    1
     8     4    20    1
     9     4    21    1
    10     5     6    1
    11     6     7   ar
    12     7     8   ar
    13     8     9   ar
    14     9    10   ar
    15     9    11    1
    16    11    12    1
    17    12    13    1
    18    13    14   am
    19    13    19    2
    20    14    15    1
    21    14    18    1
    22    15    16    1
    23    16    17    1
    24    17    18    1
