@<TRIPOS>MOLECULE
36530_ChemDiv_K783-4473
 24 26 0 0 0
SMALL
GASTEIGER
Energy = 0

@<TRIPOS>ATOM
      1 C           0.0580    0.9210    0.0000 C.ar    1  LIG1        0.0717
      2 C           0.9130    1.4330    0.0000 C.2     1  LIG1        0.1796
      3 C           1.7830    0.9210    0.0000 C.3     1  LIG1        0.1092
      4 C           1.7830   -0.0790    0.0000 C.3     1  LIG1        0.1436
      5 O           0.9130   -0.5750    0.0000 O.3     1  LIG1       -0.4819
      6 C           0.0540   -0.0790    0.0000 C.ar    1  LIG1        0.1411
      7 C          -0.8040   -0.5630    0.0000 C.ar    1  LIG1        0.0401
      8 C          -1.6580   -0.0670    0.0000 C.ar    1  LIG1        0.0400
      9 C          -1.6580    0.9210    0.0000 C.ar    1  LIG1        0.1394
     10 C          -0.8040    1.4170    0.0000 C.ar    1  LIG1        0.0428
     11 O          -2.5130    1.4170    0.0000 O.3     1  LIG1       -0.4694
     12 C          -3.3670    0.9210    0.0000 C.3     1  LIG1        0.2469
     13 C          -4.2500    1.5210    0.0000 C.2     1  LIG1        0.0940
     14 O          -5.2080    1.0580    0.0000 O.co2   1  LIG1       -0.5454
     15 O          -4.1750    2.5710    0.0000 O.co2   1  LIG1       -0.5454
     16 C           1.7790   -1.0670    0.0000 C.3     1  LIG1        0.0620
     17 C           2.6250   -1.5630    0.0000 C.3     1  LIG1        0.0970
     18 N           3.4880   -1.0750    0.0000 N.am    1  LIG1       -0.2793
     19 C           4.3460   -1.5790    0.0000 C.2     1  LIG1        0.2261
     20 O           5.2040   -1.0880    0.0000 O.2     1  LIG1       -0.2749
     21 C           4.3330   -2.5670    0.0000 C.3     1  LIG1        0.0948
     22 C           3.4960   -0.0830    0.0000 C.3     1  LIG1        0.0970
     23 C           2.6380    0.4170    0.0000 C.3     1  LIG1        0.0620
     24 O           0.9130    2.4210    0.0000 O.2     1  LIG1       -0.2911
@<TRIPOS>BOND
     1     1     2    1
     2     1     6   ar
     3     1    10   ar
     4     2     3    1
     5     2    24    2
     6     3     4    1
     7     4     5    1
     8     4    16    1
     9     4    23    1
    10     5     6    1
    11     6     7   ar
    12     7     8   ar
    13     8     9   ar
    14     9    10   ar
    15     9    11    1
    16    11    12    1
    17    12    13    1
    18    13    14   ar
    19    13    15   ar
    20    16    17    1
    21    17    18    1
    22    18    19   am
    23    18    22    1
    24    19    20    2
    25    19    21    1
    26    22    23    1
