@<TRIPOS>MOLECULE
36531_ChemDiv_C202-1777
 15 16 0 0 0
SMALL
GASTEIGER
Energy = 0

@<TRIPOS>ATOM
      1 N          -0.4250   -2.5000    0.0000 N.am    1  LIG1        0.0023
      2 C          -1.2880   -2.0130    0.0000 C.2     1  LIG1        0.4798
      3 N          -1.2880   -1.0000    0.0000 N.2     1  LIG1       -0.0961
      4 C          -0.4250   -0.4960    0.0000 C.3     1  LIG1        0.1957
      5 C           0.4380   -1.0000    0.0000 C.3     1  LIG1        0.1497
      6 C           0.4380   -2.0130    0.0000 C.2     1  LIG1        0.3223
      7 O           1.3130   -2.5080    0.0000 O.2     1  LIG1       -0.2533
      8 C          -0.4290    0.5130    0.0000 C.3     1  LIG1        0.0701
      9 C           0.4330    1.0130    0.0000 C.ar    1  LIG1       -0.0187
     10 C           1.3000    0.5170    0.0000 C.ar    1  LIG1       -0.0042
     11 C           2.1580    1.0250    0.0000 C.ar    1  LIG1       -0.0003
     12 C           2.1500    2.0250    0.0000 C.ar    1  LIG1       -0.0000
     13 C           1.2830    2.5130    0.0000 C.ar    1  LIG1       -0.0003
     14 C           0.4250    2.0080    0.0000 C.ar    1  LIG1       -0.0042
     15 N          -2.1630   -2.5000    0.0000 N.pl3   1  LIG1        0.1472
@<TRIPOS>BOND
     1     1     2    1
     2     1     6   am
     3     2     3    2
     4     2    15    1
     5     3     4    1
     6     4     5    1
     7     4     8    1
     8     5     6    1
     9     6     7    2
    10     8     9    1
    11     9    10   ar
    12     9    14   ar
    13    10    11   ar
    14    11    12   ar
    15    12    13   ar
    16    13    14   ar
