@<TRIPOS>MOLECULE
36534_ChemDiv_C214-1095
 28 30 0 0 0
SMALL
GASTEIGER
Energy = 0

@<TRIPOS>ATOM
      1 C           2.9960    1.2420    0.0000 C.ar    1  LIG1        0.0717
      2 C           3.8630    1.7500    0.0000 C.2     1  LIG1        0.1796
      3 C           4.7250    1.2420    0.0000 C.3     1  LIG1        0.1091
      4 C           4.7250    0.2500    0.0000 C.3     1  LIG1        0.1406
      5 O           3.8630   -0.2420    0.0000 O.3     1  LIG1       -0.4820
      6 C           2.9960    0.2500    0.0000 C.ar    1  LIG1        0.1411
      7 C           2.1420   -0.2420    0.0000 C.ar    1  LIG1        0.0401
      8 C           1.2630    0.2500    0.0000 C.ar    1  LIG1        0.0400
      9 C           1.2630    1.2420    0.0000 C.ar    1  LIG1        0.1396
     10 C           2.1330    1.7580    0.0000 C.ar    1  LIG1        0.0428
     11 O           0.4000    1.7580    0.0000 O.3     1  LIG1       -0.4656
     12 C          -0.4750    1.2580    0.0000 C.3     1  LIG1        0.2896
     13 C          -1.3420    1.7580    0.0000 C.2     1  LIG1        0.2702
     14 N          -2.1960    1.2580    0.0000 N.am    1  LIG1       -0.2765
     15 C          -3.0630    1.7580    0.0000 C.3     1  LIG1        0.0941
     16 C          -3.9380    1.2420    0.0000 C.3     1  LIG1        0.0326
     17 C          -3.9380    0.2500    0.0000 C.3     1  LIG1        0.1025
     18 C          -4.8170   -0.2380    0.0000 C.2     1  LIG1        0.3165
     19 O          -5.6790    0.2540    0.0000 O.2     1  LIG1       -0.2501
     20 O          -4.8290   -1.2460    0.0000 O.3     1  LIG1       -0.4485
     21 C          -3.9540   -1.7420    0.0000 C.3     1  LIG1        0.2086
     22 C          -3.9540   -2.7460    0.0000 C.3     1  LIG1        0.0513
     23 C          -3.0630   -0.2380    0.0000 C.3     1  LIG1        0.0326
     24 C          -2.1960    0.2540    0.0000 C.3     1  LIG1        0.0941
     25 O          -1.3290    2.7500    0.0000 O.2     1  LIG1       -0.2708
     26 C           5.6750    0.5540    0.0000 C.3     1  LIG1        0.0441
     27 C           5.2330   -0.6080    0.0000 C.3     1  LIG1        0.0441
     28 O           3.8630    2.7420    0.0000 O.2     1  LIG1       -0.2911
@<TRIPOS>BOND
     1     1     2    1
     2     1     6   ar
     3     1    10   ar
     4     2     3    1
     5     2    28    2
     6     3     4    1
     7     4     5    1
     8     4    26    1
     9     4    27    1
    10     5     6    1
    11     6     7   ar
    12     7     8   ar
    13     8     9   ar
    14     9    10   ar
    15     9    11    1
    16    11    12    1
    17    12    13    1
    18    13    14   am
    19    13    25    2
    20    14    15    1
    21    14    24    1
    22    15    16    1
    23    16    17    1
    24    17    18    1
    25    17    23    1
    26    18    19    2
    27    18    20    1
    28    20    21    1
    29    21    22    1
    30    23    24    1
