@<TRIPOS>MOLECULE
36547_ChemDiv_C915-0001
 26 29 0 0 0
SMALL
GASTEIGER
Energy = 0

@<TRIPOS>ATOM
      1 N          -0.0630    0.0460    0.0000 N.am    1  LIG1       -0.2321
      2 C           0.7540   -0.5420    0.0000 C.3     1  LIG1        0.1612
      3 N           1.5540    0.0460    0.0000 N.2     1  LIG1       -0.2530
      4 C           1.2540    1.0000    0.0000 C.2     1  LIG1        0.0980
      5 C           0.2540    1.0040    0.0000 C.2     1  LIG1        0.1091
      6 S          -0.3330    1.8170    0.0000 S.2     1  LIG1       -0.0327
      7 C           1.8420    1.8080    0.0000 C.ar    1  LIG1        0.0190
      8 C           2.8500    1.7000    0.0000 C.ar    1  LIG1        0.0015
      9 C           3.4330    2.5130    0.0000 C.ar    1  LIG1        0.0000
     10 C           3.0330    3.4250    0.0000 C.ar    1  LIG1        0.0000
     11 C           2.0330    3.5420    0.0000 C.ar    1  LIG1        0.0000
     12 C           1.4330    2.7290    0.0000 C.ar    1  LIG1        0.0015
     13 C           1.6130   -1.0420    0.0000 C.3     1  LIG1        0.1047
     14 C           1.5880   -2.0500    0.0000 C.3     1  LIG1        0.1426
     15 N           0.7210   -2.5380    0.0000 N.4     1  LIG1        0.3822
     16 C          -0.1290   -2.0210    0.0000 C.3     1  LIG1        0.1426
     17 C          -0.1130   -1.0250    0.0000 C.3     1  LIG1        0.1047
     18 C           0.7040   -3.5380    0.0000 C.3     1  LIG1        0.2022
     19 C          -1.0000   -0.2540    0.0000 C.2     1  LIG1        0.2544
     20 O          -1.2130   -1.2380    0.0000 O.2     1  LIG1       -0.2695
     21 C          -1.7420    0.4130    0.0000 C.ar    1  LIG1        0.0540
     22 C          -1.5290    1.3790    0.0000 C.ar    1  LIG1        0.0045
     23 C          -2.2710    2.0500    0.0000 C.ar    1  LIG1        0.0001
     24 C          -3.2250    1.7460    0.0000 C.ar    1  LIG1        0.0000
     25 C          -3.4380    0.7630    0.0000 C.ar    1  LIG1        0.0001
     26 C          -2.6960    0.1000    0.0000 C.ar    1  LIG1        0.0045
@<TRIPOS>BOND
     1     1     2    1
     2     1     5    1
     3     1    19   am
     4     2     3    1
     5     2    13    1
     6     2    17    1
     7     3     4    2
     8     4     5    1
     9     4     7    1
    10     5     6    2
    11     7     8   ar
    12     7    12   ar
    13     8     9   ar
    14     9    10   ar
    15    10    11   ar
    16    11    12   ar
    17    13    14    1
    18    14    15    1
    19    15    16    1
    20    15    18    1
    21    16    17    1
    22    19    20    2
    23    19    21    1
    24    21    22   ar
    25    21    26   ar
    26    22    23   ar
    27    23    24   ar
    28    24    25   ar
    29    25    26   ar
