@<TRIPOS>MOLECULE
36549_ChemDiv_C915-0221
 27 30 0 0 0
SMALL
GASTEIGER
Energy = 0

@<TRIPOS>ATOM
      1 N           0.4130    0.0500    0.0000 N.am    1  LIG1       -0.2321
      2 C           1.2210   -0.5420    0.0000 C.3     1  LIG1        0.1612
      3 N           2.0330    0.0500    0.0000 N.2     1  LIG1       -0.2530
      4 C           1.7290    1.0040    0.0000 C.2     1  LIG1        0.0980
      5 C           0.7210    1.0130    0.0000 C.2     1  LIG1        0.1091
      6 S           0.1330    1.8210    0.0000 S.2     1  LIG1       -0.0327
      7 C           2.3080    1.8130    0.0000 C.ar    1  LIG1        0.0190
      8 C           1.9130    2.7380    0.0000 C.ar    1  LIG1        0.0015
      9 C           2.5040    3.5420    0.0000 C.ar    1  LIG1        0.0000
     10 C           3.5040    3.4330    0.0000 C.ar    1  LIG1        0.0000
     11 C           3.9080    2.5170    0.0000 C.ar    1  LIG1        0.0000
     12 C           3.3210    1.7080    0.0000 C.ar    1  LIG1        0.0015
     13 C           2.0830   -1.0420    0.0000 C.3     1  LIG1        0.1047
     14 C           2.0630   -2.0420    0.0000 C.3     1  LIG1        0.1426
     15 N           1.1920   -2.5380    0.0000 N.4     1  LIG1        0.3822
     16 C           0.3420   -2.0130    0.0000 C.3     1  LIG1        0.1426
     17 C           0.3580   -1.0250    0.0000 C.3     1  LIG1        0.1047
     18 C           1.1750   -3.5380    0.0000 C.3     1  LIG1        0.2022
     19 C          -0.5330   -0.2580    0.0000 C.2     1  LIG1        0.2544
     20 C          -1.2750    0.4130    0.0000 C.ar    1  LIG1        0.0548
     21 C          -2.2170    0.1040    0.0000 C.ar    1  LIG1        0.0159
     22 C          -2.9580    0.7710    0.0000 C.ar    1  LIG1        0.0578
     23 CL         -3.9130    0.4670    0.0000 Cl      1  LIG1       -0.0822
     24 C          -2.7580    1.7540    0.0000 C.ar    1  LIG1        0.0114
     25 C          -1.8040    2.0540    0.0000 C.ar    1  LIG1        0.0010
     26 C          -1.0630    1.3790    0.0000 C.ar    1  LIG1        0.0046
     27 O          -0.7460   -1.2380    0.0000 O.2     1  LIG1       -0.2695
@<TRIPOS>BOND
     1     1     2    1
     2     1     5    1
     3     1    19   am
     4     2     3    1
     5     2    13    1
     6     2    17    1
     7     3     4    2
     8     4     5    1
     9     4     7    1
    10     5     6    2
    11     7     8   ar
    12     7    12   ar
    13     8     9   ar
    14     9    10   ar
    15    10    11   ar
    16    11    12   ar
    17    13    14    1
    18    14    15    1
    19    15    16    1
    20    15    18    1
    21    16    17    1
    22    19    20    1
    23    19    27    2
    24    20    21   ar
    25    20    26   ar
    26    21    22   ar
    27    22    23    1
    28    22    24   ar
    29    24    25   ar
    30    25    26   ar
