@<TRIPOS>MOLECULE
36540_ChemDiv_K786-3827
 25 26 0 0 0
SMALL
GASTEIGER
Energy = 0

@<TRIPOS>ATOM
      1 C          -3.8500   -0.5250    0.0000 C.ar    1  LIG1        0.0717
      2 C          -4.7170   -0.0170    0.0000 C.2     1  LIG1        0.1796
      3 C          -5.5750   -0.5250    0.0000 C.3     1  LIG1        0.1091
      4 C          -5.5750   -1.5250    0.0000 C.3     1  LIG1        0.1406
      5 O          -4.7170   -2.0210    0.0000 O.3     1  LIG1       -0.4820
      6 C          -3.8500   -1.5210    0.0000 C.ar    1  LIG1        0.1411
      7 C          -2.9880   -2.0210    0.0000 C.ar    1  LIG1        0.0401
      8 C          -2.1210   -1.5210    0.0000 C.ar    1  LIG1        0.0400
      9 C          -2.1210   -0.5210    0.0000 C.ar    1  LIG1        0.1396
     10 C          -2.9880   -0.0250    0.0000 C.ar    1  LIG1        0.0428
     11 O          -1.2580   -0.0170    0.0000 O.3     1  LIG1       -0.4656
     12 C          -1.2710    0.9830    0.0000 C.3     1  LIG1        0.2911
     13 C          -0.3960    1.4960    0.0000 C.2     1  LIG1        0.2859
     14 O          -0.4040    2.4960    0.0000 O.2     1  LIG1       -0.2693
     15 N           0.4750    0.9960    0.0000 N.am    1  LIG1       -0.2023
     16 C           1.3380    1.5000    0.0000 C.3     1  LIG1        0.1153
     17 C           2.2080    1.0080    0.0000 C.3     1  LIG1        0.0234
     18 C           3.0710    1.5080    0.0000 C.3     1  LIG1        0.0018
     19 C           3.9380    1.0130    0.0000 C.3     1  LIG1        0.0001
     20 C           4.8040    1.5170    0.0000 C.3     1  LIG1        0.0000
     21 C           5.6710    1.0250    0.0000 C.3     1  LIG1        0.0000
     22 C           6.5380    1.5250    0.0000 C.3     1  LIG1        0.0000
     23 C          -6.5330   -1.2670    0.0000 C.3     1  LIG1        0.0441
     24 C          -5.8290   -2.4920    0.0000 C.3     1  LIG1        0.0441
     25 O          -4.7170    0.9830    0.0000 O.2     1  LIG1       -0.2911
@<TRIPOS>BOND
     1     1     2    1
     2     1     6   ar
     3     1    10   ar
     4     2     3    1
     5     2    25    2
     6     3     4    1
     7     4     5    1
     8     4    23    1
     9     4    24    1
    10     5     6    1
    11     6     7   ar
    12     7     8   ar
    13     8     9   ar
    14     9    10   ar
    15     9    11    1
    16    11    12    1
    17    12    13    1
    18    13    14    2
    19    13    15   am
    20    15    16    1
    21    16    17    1
    22    17    18    1
    23    18    19    1
    24    19    20    1
    25    20    21    1
    26    21    22    1
