@<TRIPOS>MOLECULE
36546_ChemDiv_C301-5541
 15 17 0 0 0
SMALL
GASTEIGER
Energy = 0

@<TRIPOS>ATOM
      1 N          -0.6790    1.3670    0.0000 N.ar    1  LIG1       -0.1059
      2 C          -1.1880    0.4880    0.0000 C.ar    1  LIG1        0.2080
      3 N          -2.1670    0.6920    0.0000 N.ar    1  LIG1       -0.1060
      4 N          -2.2790    1.6960    0.0000 N.ar    1  LIG1       -0.0210
      5 N          -1.3580    2.1080    0.0000 N.ar    1  LIG1       -0.0209
      6 C          -0.6710   -0.3830    0.0000 C.ar    1  LIG1        0.0439
      7 C           0.3420   -0.3750    0.0000 C.ar    1  LIG1        0.0578
      8 C           0.8330    0.5040    0.0000 C.ar    1  LIG1        0.2440
      9 N           0.3250    1.3670    0.0000 N.ar    1  LIG1       -0.1074
     10 O           1.7920    0.5040    0.0000 O.3     1  LIG1       -0.4552
     11 C           2.2750    1.3500    0.0000 C.3     1  LIG1        0.2543
     12 C           0.8380   -1.2330    0.0000 C.ar    1  LIG1        0.0048
     13 C           0.3420   -2.1040    0.0000 C.ar    1  LIG1        0.0002
     14 C          -0.6580   -2.1040    0.0000 C.ar    1  LIG1        0.0001
     15 C          -1.1630   -1.2500    0.0000 C.ar    1  LIG1        0.0033
@<TRIPOS>BOND
     1     1     2   ar
     2     1     5   ar
     3     1     9   ar
     4     2     3   ar
     5     2     6   ar
     6     3     4   ar
     7     4     5   ar
     8     6     7   ar
     9     6    15   ar
    10     7     8   ar
    11     7    12   ar
    12     8     9   ar
    13     8    10    1
    14    10    11    1
    15    12    13   ar
    16    13    14   ar
    17    14    15   ar
