@<TRIPOS>MOLECULE
36548_ChemDiv_G006-0097
 22 26 0 0 0
SMALL
GASTEIGER
Energy = 0

@<TRIPOS>ATOM
      1 N           1.1290    1.7130    0.0000 N.ar    1  LIG1       -0.1075
      2 N           1.1080    0.7130    0.0000 N.ar    1  LIG1       -0.1298
      3 C           0.2290    0.2460    0.0000 C.ar    1  LIG1        0.1572
      4 N           0.2040   -0.7540    0.0000 N.pl3   1  LIG1       -0.2709
      5 C           0.8460   -1.5170    0.0000 C.ar    1  LIG1        0.0488
      6 C           0.3330   -2.3750    0.0000 C.ar    1  LIG1       -0.0068
      7 C          -0.6500   -2.1420    0.0000 C.3     1  LIG1        0.0494
      8 C          -0.7330   -1.1420    0.0000 C.3     1  LIG1        0.1017
      9 C           0.8080   -3.2540    0.0000 C.ar    1  LIG1       -0.0030
     10 C           1.8080   -3.2790    0.0000 C.ar    1  LIG1       -0.0002
     11 C           2.3330   -2.4170    0.0000 C.ar    1  LIG1        0.0013
     12 C           1.8580   -1.5380    0.0000 C.ar    1  LIG1        0.0145
     13 C          -0.6250    0.7580    0.0000 C.ar    1  LIG1        0.0367
     14 C          -0.5960    1.7580    0.0000 C.ar    1  LIG1        0.0422
     15 C           0.2790    2.2380    0.0000 C.ar    1  LIG1        0.2079
     16 N           0.5080    3.2080    0.0000 N.ar    1  LIG1       -0.1060
     17 N           1.5080    3.2830    0.0000 N.ar    1  LIG1       -0.0210
     18 N           1.8920    2.3580    0.0000 N.ar    1  LIG1       -0.0210
     19 C          -1.4500    2.2750    0.0000 C.ar    1  LIG1        0.0033
     20 C          -2.3250    1.7960    0.0000 C.ar    1  LIG1        0.0001
     21 C          -2.3380    0.7960    0.0000 C.ar    1  LIG1        0.0001
     22 C          -1.4960    0.2830    0.0000 C.ar    1  LIG1        0.0029
@<TRIPOS>BOND
     1     1     2   ar
     2     1    15   ar
     3     1    18   ar
     4     2     3   ar
     5     3     4    1
     6     3    13   ar
     7     4     5    1
     8     4     8    1
     9     5     6   ar
    10     5    12   ar
    11     6     7    1
    12     6     9   ar
    13     7     8    1
    14     9    10   ar
    15    10    11   ar
    16    11    12   ar
    17    13    14   ar
    18    13    22   ar
    19    14    15   ar
    20    14    19   ar
    21    15    16   ar
    22    16    17   ar
    23    17    18   ar
    24    19    20   ar
    25    20    21   ar
    26    21    22   ar
