@<TRIPOS>MOLECULE
36544_ChemDiv_K786-4550
 26 28 0 0 0
SMALL
GASTEIGER
Energy = 0

@<TRIPOS>ATOM
      1 C           1.2380   -1.2540    0.0000 C.ar    1  LIG1        0.0717
      2 C           2.1080   -0.7500    0.0000 C.2     1  LIG1        0.1796
      3 C           2.9750   -1.2540    0.0000 C.3     1  LIG1        0.1091
      4 C           2.9750   -2.2670    0.0000 C.3     1  LIG1        0.1406
      5 O           2.1000   -2.7670    0.0000 O.3     1  LIG1       -0.4820
      6 C           1.2380   -2.2670    0.0000 C.ar    1  LIG1        0.1411
      7 C           0.3750   -2.7630    0.0000 C.ar    1  LIG1        0.0401
      8 C          -0.4880   -2.2630    0.0000 C.ar    1  LIG1        0.0400
      9 C          -0.4880   -1.2670    0.0000 C.ar    1  LIG1        0.1394
     10 O          -1.3500   -0.7540    0.0000 O.3     1  LIG1       -0.4699
     11 C          -2.2250   -1.2540    0.0000 C.3     1  LIG1        0.2412
     12 C          -3.0830   -0.7540    0.0000 C.2     1  LIG1        0.2658
     13 N          -3.0750    0.2420    0.0000 N.am    1  LIG1       -0.2766
     14 C          -3.9460    0.7420    0.0000 C.3     1  LIG1        0.0935
     15 C          -3.9460    1.7380    0.0000 C.3     1  LIG1        0.0216
     16 C          -3.0750    2.2380    0.0000 C.3     1  LIG1        0.0034
     17 C          -2.2080    1.7380    0.0000 C.3     1  LIG1        0.0216
     18 C          -2.2130    0.7290    0.0000 C.3     1  LIG1        0.0935
     19 C          -3.0750    3.2330    0.0000 C.3     1  LIG1        0.0001
     20 O          -3.9460   -1.2540    0.0000 O.2     1  LIG1       -0.2710
     21 C          -2.2250   -2.2500    0.0000 C.3     1  LIG1        0.0532
     22 C          -3.0830   -2.7460    0.0000 C.3     1  LIG1        0.0044
     23 C           0.3750   -0.7540    0.0000 C.ar    1  LIG1        0.0428
     24 C           3.9420   -2.0040    0.0000 C.3     1  LIG1        0.0441
     25 C           3.2330   -3.2290    0.0000 C.3     1  LIG1        0.0441
     26 O           2.1000    0.2460    0.0000 O.2     1  LIG1       -0.2911
@<TRIPOS>BOND
     1     1     2    1
     2     1     6   ar
     3     1    23   ar
     4     2     3    1
     5     2    26    2
     6     3     4    1
     7     4     5    1
     8     4    24    1
     9     4    25    1
    10     5     6    1
    11     6     7   ar
    12     7     8   ar
    13     8     9   ar
    14     9    10    1
    15     9    23   ar
    16    10    11    1
    17    11    12    1
    18    11    21    1
    19    12    13   am
    20    12    20    2
    21    13    14    1
    22    13    18    1
    23    14    15    1
    24    15    16    1
    25    16    17    1
    26    16    19    1
    27    17    18    1
    28    21    22    1
