@<TRIPOS>MOLECULE
36542_ChemDiv_K786-4164
 24 26 0 0 0
SMALL
GASTEIGER
Energy = 0

@<TRIPOS>ATOM
      1 C          -2.1170   -0.5290    0.0000 C.ar    1  LIG1        0.0717
      2 C          -2.9830   -0.0170    0.0000 C.2     1  LIG1        0.1796
      3 C          -3.8420   -0.5290    0.0000 C.3     1  LIG1        0.1091
      4 C          -3.8420   -1.5330    0.0000 C.3     1  LIG1        0.1406
      5 O          -2.9830   -2.0250    0.0000 O.3     1  LIG1       -0.4820
      6 C          -2.1170   -1.5250    0.0000 C.ar    1  LIG1        0.1411
      7 C          -1.2460   -2.0250    0.0000 C.ar    1  LIG1        0.0401
      8 C          -0.3790   -1.5250    0.0000 C.ar    1  LIG1        0.0400
      9 C          -0.3790   -0.5170    0.0000 C.ar    1  LIG1        0.1396
     10 C          -1.2460   -0.0250    0.0000 C.ar    1  LIG1        0.0428
     11 O           0.4830   -0.0170    0.0000 O.3     1  LIG1       -0.4656
     12 C           0.4710    0.9880    0.0000 C.3     1  LIG1        0.2896
     13 C           1.3500    1.4920    0.0000 C.2     1  LIG1        0.2702
     14 N           2.2170    0.9880    0.0000 N.am    1  LIG1       -0.2765
     15 C           2.2250    0.0000    0.0000 C.3     1  LIG1        0.0935
     16 C           3.0750   -0.4960    0.0000 C.3     1  LIG1        0.0216
     17 C           3.9380    0.0000    0.0000 C.3     1  LIG1        0.0034
     18 C           3.9380    0.9880    0.0000 C.3     1  LIG1        0.0216
     19 C           3.0750    1.4920    0.0000 C.3     1  LIG1        0.0935
     20 C           4.8040   -0.5040    0.0000 C.3     1  LIG1        0.0001
     21 O           1.3420    2.5000    0.0000 O.2     1  LIG1       -0.2708
     22 C          -4.8080   -1.2750    0.0000 C.3     1  LIG1        0.0441
     23 C          -4.1080   -2.4960    0.0000 C.3     1  LIG1        0.0441
     24 O          -2.9830    0.9880    0.0000 O.2     1  LIG1       -0.2911
@<TRIPOS>BOND
     1     1     2    1
     2     1     6   ar
     3     1    10   ar
     4     2     3    1
     5     2    24    2
     6     3     4    1
     7     4     5    1
     8     4    22    1
     9     4    23    1
    10     5     6    1
    11     6     7   ar
    12     7     8   ar
    13     8     9   ar
    14     9    10   ar
    15     9    11    1
    16    11    12    1
    17    12    13    1
    18    13    14   am
    19    13    21    2
    20    14    15    1
    21    14    19    1
    22    15    16    1
    23    16    17    1
    24    17    18    1
    25    17    20    1
    26    18    19    1
