@<TRIPOS>MOLECULE
36550_ChemDiv_C301-6215
 23 25 0 0 0
SMALL
GASTEIGER
Energy = 0

@<TRIPOS>ATOM
      1 C          -0.0130   -0.7500    0.0000 C.ar    1  LIG1        0.1732
      2 C          -0.8750   -0.2420    0.0000 C.ar    1  LIG1        0.0894
      3 N          -0.8750    0.7500    0.0000 N.ar    1  LIG1       -0.2924
      4 C          -0.0130    1.2420    0.0000 C.ar    1  LIG1        0.2851
      5 C           0.8580    0.7420    0.0000 C.ar    1  LIG1        0.2132
      6 N           0.8460   -0.2540    0.0000 N.ar    1  LIG1       -0.2265
      7 C           1.7290    1.2420    0.0000 C.2     1  LIG1        0.3640
      8 O           1.7380    2.2420    0.0000 O.2     1  LIG1       -0.2430
      9 O           2.5960    0.7330    0.0000 O.3     1  LIG1       -0.4443
     10 C           3.4630    0.2290    0.0000 C.3     1  LIG1        0.2089
     11 C           3.4540   -0.7710    0.0000 C.3     1  LIG1        0.0513
     12 O          -0.0130    2.2460    0.0000 O.2     1  LIG1       -0.2651
     13 C          -1.7460    1.2500    0.0000 C.3     1  LIG1        0.1092
     14 C          -1.7460    2.2580    0.0000 C.3     1  LIG1        0.0266
     15 C          -1.7460   -0.7540    0.0000 C.ar    1  LIG1        0.0522
     16 C          -1.7460   -1.7540    0.0000 C.ar    1  LIG1        0.1502
     17 O          -0.8710   -2.2500    0.0000 O.2     1  LIG1       -0.4199
     18 C          -0.0130   -1.7540    0.0000 C.ar    1  LIG1        0.3651
     19 O           0.8630   -2.2540    0.0000 O.2     1  LIG1       -0.2427
     20 C          -2.5920   -2.2540    0.0000 C.ar    1  LIG1        0.0377
     21 C          -3.4630   -1.7710    0.0000 C.ar    1  LIG1        0.0031
     22 C          -3.4670   -0.7670    0.0000 C.ar    1  LIG1        0.0002
     23 C          -2.6080   -0.2540    0.0000 C.ar    1  LIG1        0.0045
@<TRIPOS>BOND
     1     1     2   ar
     2     1     6   ar
     3     1    18   ar
     4     2     3   ar
     5     2    15   ar
     6     3     4   ar
     7     3    13    1
     8     4     5   ar
     9     4    12    2
    10     5     6   ar
    11     5     7    1
    12     7     8    2
    13     7     9    1
    14     9    10    1
    15    10    11    1
    16    13    14    1
    17    15    16   ar
    18    15    23   ar
    19    16    17   ar
    20    16    20   ar
    21    17    18   ar
    22    18    19    2
    23    20    21   ar
    24    21    22   ar
    25    22    23   ar
