@<TRIPOS>MOLECULE
36552_ChemDiv_C301-6231
 24 26 0 0 0
SMALL
GASTEIGER
Energy = 0

@<TRIPOS>ATOM
      1 C          -0.8880    1.4630    0.0000 C.ar    1  LIG1        0.1564
      2 N          -0.8880    2.4920    0.0000 N.ar    1  LIG1       -0.2071
      3 C           0.0000    3.0040    0.0000 C.ar    1  LIG1        0.2013
      4 N           0.8830    2.4920    0.0000 N.ar    1  LIG1       -0.2071
      5 C           0.8830    1.4630    0.0000 C.ar    1  LIG1        0.1564
      6 C           0.0000    0.9500    0.0000 C.ar    1  LIG1        0.0722
      7 N           1.7500    0.9670    0.0000 N.pl3   1  LIG1       -0.1940
      8 C           1.7500   -0.0250    0.0000 C.ar    1  LIG1        0.0718
      9 C           2.6040   -0.5080    0.0000 C.ar    1  LIG1        0.0120
     10 C           2.6130   -1.5000    0.0000 C.ar    1  LIG1       -0.0245
     11 C           1.7500   -2.0040    0.0000 C.ar    1  LIG1       -0.0257
     12 C           0.8920   -1.5080    0.0000 C.ar    1  LIG1       -0.0032
     13 C           0.8830   -0.5170    0.0000 C.ar    1  LIG1        0.0162
     14 C           1.7500   -3.0000    0.0000 C.3     1  LIG1        0.0307
     15 C           3.4710   -1.9960    0.0000 C.3     1  LIG1        0.0307
     16 N          -1.7460    0.9670    0.0000 N.pl3   1  LIG1       -0.1940
     17 C          -1.7540   -0.0250    0.0000 C.ar    1  LIG1        0.0718
     18 C          -2.6080   -0.5170    0.0000 C.ar    1  LIG1        0.0128
     19 C          -2.6080   -1.5080    0.0000 C.ar    1  LIG1       -0.0143
     20 C          -1.7540   -2.0040    0.0000 C.ar    1  LIG1        0.0307
     21 C          -0.8880   -1.5080    0.0000 C.ar    1  LIG1        0.0077
     22 C          -0.8920   -0.5170    0.0000 C.ar    1  LIG1        0.0170
     23 BR         -1.7540   -3.0000    0.0000 Br      1  LIG1       -0.0493
     24 C          -3.4750   -2.0040    0.0000 C.3     1  LIG1        0.0316
@<TRIPOS>BOND
     1     1     2   ar
     2     1     6   ar
     3     1    16    1
     4     2     3   ar
     5     3     4   ar
     6     4     5   ar
     7     5     6   ar
     8     5     7    1
     9     7     8    1
    10     8     9   ar
    11     8    13   ar
    12     9    10   ar
    13    10    11   ar
    14    10    15    1
    15    11    12   ar
    16    11    14    1
    17    12    13   ar
    18    16    17    1
    19    17    18   ar
    20    17    22   ar
    21    18    19   ar
    22    19    20   ar
    23    19    24    1
    24    20    21   ar
    25    20    23    1
    26    21    22   ar
