@<TRIPOS>MOLECULE
36557_ChemDiv_C257-0336
 29 33 0 0 0
SMALL
GASTEIGER
Energy = 0

@<TRIPOS>ATOM
      1 N          -0.6790   -0.6630    0.0000 N.am    1  LIG1       -0.2619
      2 C           0.2420   -1.0670    0.0000 C.2     1  LIG1        0.2496
      3 C           0.9000   -0.3130    0.0000 C.ar    1  LIG1        0.0517
      4 C           0.3920    0.5380    0.0000 C.ar    1  LIG1        0.0090
      5 C          -0.5710    0.3330    0.0000 C.3     1  LIG1        0.1771
      6 C          -1.3170    0.9920    0.0000 C.2     1  LIG1        0.2639
      7 N          -1.1040    1.9710    0.0000 N.am    1  LIG1       -0.2012
      8 C          -1.8540    2.6330    0.0000 C.3     1  LIG1        0.1446
      9 C          -1.6580    3.6080    0.0000 C.3     1  LIG1        0.1369
     10 O          -2.3290    4.3580    0.0000 O.3     1  LIG1       -0.3544
     11 C          -1.8380    5.2170    0.0000 C.3     1  LIG1        0.1422
     12 C          -0.8580    5.0080    0.0000 C.3     1  LIG1        0.0346
     13 C          -0.7540    4.0170    0.0000 C.3     1  LIG1        0.0340
     14 O          -2.2630    0.6880    0.0000 O.2     1  LIG1       -0.2712
     15 C           0.8750    1.4040    0.0000 C.ar    1  LIG1       -0.0021
     16 C           1.8710    1.4130    0.0000 C.ar    1  LIG1       -0.0003
     17 C           2.3830    0.5630    0.0000 C.ar    1  LIG1        0.0001
     18 C           1.8880   -0.3130    0.0000 C.ar    1  LIG1        0.0043
     19 O           0.4500   -2.0330    0.0000 O.2     1  LIG1       -0.2699
     20 C          -1.5380   -1.1540    0.0000 C.3     1  LIG1        0.1213
     21 C          -1.5380   -2.0130    0.0000 C.ar    1  LIG1        0.0009
     22 C          -0.7540   -2.4670    0.0000 C.ar    1  LIG1        0.0376
     23 C          -0.7380   -3.4380    0.0000 C.ar    1  LIG1        0.1762
     24 C          -1.5880   -3.9040    0.0000 C.ar    1  LIG1        0.1764
     25 O          -1.5540   -4.8540    0.0000 O.3     1  LIG1       -0.4346
     26 C          -0.2880   -5.2170    0.0000 C.3     1  LIG1        0.4294
     27 O           0.0580   -3.9040    0.0000 O.3     1  LIG1       -0.4346
     28 C          -2.3880   -3.4040    0.0000 C.ar    1  LIG1        0.0399
     29 C          -2.3880   -2.4830    0.0000 C.ar    1  LIG1        0.0007
@<TRIPOS>BOND
     1     1     2   am
     2     1     5    1
     3     1    20    1
     4     2     3    1
     5     2    19    2
     6     3     4   ar
     7     3    18   ar
     8     4     5    1
     9     4    15   ar
    10     5     6    1
    11     6     7   am
    12     6    14    2
    13     7     8    1
    14     8     9    1
    15     9    10    1
    16     9    13    1
    17    10    11    1
    18    11    12    1
    19    12    13    1
    20    15    16   ar
    21    16    17   ar
    22    17    18   ar
    23    20    21    1
    24    21    22   ar
    25    21    29   ar
    26    22    23   ar
    27    23    24   ar
    28    23    27    1
    29    24    25    1
    30    24    28   ar
    31    25    26    1
    32    26    27    1
    33    28    29   ar
