@<TRIPOS>MOLECULE
36555_ChemDiv_C915-0511
 30 33 0 0 0
SMALL
GASTEIGER
Energy = 0

@<TRIPOS>ATOM
      1 N           0.5750   -0.0500    0.0000 N.am    1  LIG1       -0.2321
      2 C           1.3920   -0.6380    0.0000 C.3     1  LIG1        0.1612
      3 N           2.1920   -0.0500    0.0000 N.2     1  LIG1       -0.2530
      4 C           1.8920    0.9040    0.0000 C.2     1  LIG1        0.0980
      5 C           0.8920    0.9040    0.0000 C.2     1  LIG1        0.1091
      6 S           0.3040    1.7210    0.0000 S.2     1  LIG1       -0.0327
      7 C           2.4790    1.7040    0.0000 C.ar    1  LIG1        0.0192
      8 C           2.0710    2.6290    0.0000 C.ar    1  LIG1        0.0038
      9 C           2.6790    3.4460    0.0000 C.ar    1  LIG1        0.0297
     10 C           3.6750    3.3250    0.0000 C.ar    1  LIG1        0.1401
     11 C           4.0670    2.4170    0.0000 C.ar    1  LIG1        0.0297
     12 C           3.4960    1.6000    0.0000 C.ar    1  LIG1        0.0038
     13 F           4.2670    4.1250    0.0000 F       1  LIG1       -0.2042
     14 C           2.2540   -1.1460    0.0000 C.3     1  LIG1        0.1047
     15 C           2.2250   -2.1500    0.0000 C.3     1  LIG1        0.1423
     16 N           1.3630   -2.6330    0.0000 N.4     1  LIG1        0.3774
     17 C           0.5170   -2.1210    0.0000 C.3     1  LIG1        0.1423
     18 C           0.5290   -1.1210    0.0000 C.3     1  LIG1        0.1047
     19 C           1.3460   -3.6420    0.0000 C.3     1  LIG1        0.1388
     20 C           0.4710   -4.1250    0.0000 C.3     1  LIG1        0.0688
     21 C          -0.3630   -0.3500    0.0000 C.2     1  LIG1        0.2544
     22 C          -1.1040    0.3170    0.0000 C.ar    1  LIG1        0.0542
     23 C          -0.8920    1.2830    0.0000 C.ar    1  LIG1        0.0076
     24 C          -1.6330    1.9540    0.0000 C.ar    1  LIG1        0.0370
     25 C          -2.5880    1.6500    0.0000 C.ar    1  LIG1        0.1387
     26 C          -2.7960    0.6670    0.0000 C.ar    1  LIG1        0.0370
     27 C          -2.0540    0.0040    0.0000 C.ar    1  LIG1        0.0076
     28 O          -3.3170    2.3250    0.0000 O.3     1  LIG1       -0.4714
     29 C          -4.2710    2.0250    0.0000 C.3     1  LIG1        0.2525
     30 O          -0.5750   -1.3330    0.0000 O.2     1  LIG1       -0.2695
@<TRIPOS>BOND
     1     1     2    1
     2     1     5    1
     3     1    21   am
     4     2     3    1
     5     2    14    1
     6     2    18    1
     7     3     4    2
     8     4     5    1
     9     4     7    1
    10     5     6    2
    11     7     8   ar
    12     7    12   ar
    13     8     9   ar
    14     9    10   ar
    15    10    11   ar
    16    10    13    1
    17    11    12   ar
    18    14    15    1
    19    15    16    1
    20    16    17    1
    21    16    19    1
    22    17    18    1
    23    19    20    1
    24    21    22    1
    25    21    30    2
    26    22    23   ar
    27    22    27   ar
    28    23    24   ar
    29    24    25   ar
    30    25    26   ar
    31    25    28    1
    32    26    27   ar
    33    28    29    1
