@<TRIPOS>MOLECULE
36558_ChemDiv_C301-6759
 32 34 0 0 0
SMALL
GASTEIGER
Energy = 0

@<TRIPOS>ATOM
      1 C          -1.7830    0.1460    0.0000 C.ar    1  LIG1        0.1642
      2 C          -2.6580    0.6630    0.0000 C.ar    1  LIG1        0.0899
      3 C          -3.5330    0.1460    0.0000 C.ar    1  LIG1        0.0510
      4 C          -3.5330   -0.8630    0.0000 C.ar    1  LIG1        0.1500
      5 O          -2.6630   -1.3630    0.0000 O.2     1  LIG1       -0.4201
      6 C          -1.7830   -0.8630    0.0000 C.ar    1  LIG1        0.3626
      7 O          -0.9250   -1.3670    0.0000 O.2     1  LIG1       -0.2430
      8 C          -4.3960   -1.3500    0.0000 C.ar    1  LIG1        0.0377
      9 C          -5.2580   -0.8500    0.0000 C.ar    1  LIG1        0.0031
     10 C          -5.2580    0.1460    0.0000 C.ar    1  LIG1        0.0002
     11 C          -4.3960    0.6460    0.0000 C.ar    1  LIG1        0.0044
     12 N          -2.6630    1.6630    0.0000 N.pl3   1  LIG1       -0.2360
     13 C          -3.5380    2.1500    0.0000 C.3     1  LIG1        0.1123
     14 C          -3.5500    3.1500    0.0000 C.3     1  LIG1        0.0252
     15 N          -0.9170    0.6460    0.0000 N.am    1  LIG1       -0.1675
     16 C          -0.0580    1.1460    0.0000 C.2     1  LIG1        0.2694
     17 C           0.8380    0.7170    0.0000 C.ar    1  LIG1        0.0616
     18 C           0.9130   -0.2750    0.0000 C.ar    1  LIG1        0.0448
     19 C           1.8080   -0.7210    0.0000 C.ar    1  LIG1        0.1754
     20 C           2.6330   -0.1580    0.0000 C.ar    1  LIG1        0.2059
     21 C           2.5540    0.8420    0.0000 C.ar    1  LIG1        0.1754
     22 C           1.6630    1.2710    0.0000 C.ar    1  LIG1        0.0448
     23 O           3.3830    1.4040    0.0000 O.3     1  LIG1       -0.4723
     24 C           3.3040    2.3960    0.0000 C.3     1  LIG1        0.2057
     25 C           4.1330    2.9630    0.0000 C.3     1  LIG1        0.0512
     26 O           3.5250   -0.5880    0.0000 O.3     1  LIG1       -0.4695
     27 C           4.3500   -0.0250    0.0000 C.3     1  LIG1        0.2058
     28 C           5.2540   -0.4630    0.0000 C.3     1  LIG1        0.0512
     29 O           1.8790   -1.7130    0.0000 O.3     1  LIG1       -0.4723
     30 C           2.7750   -2.1460    0.0000 C.3     1  LIG1        0.2057
     31 C           2.8380   -3.1460    0.0000 C.3     1  LIG1        0.0512
     32 O          -0.1920    2.1460    0.0000 O.2     1  LIG1       -0.2680
@<TRIPOS>BOND
     1     1     2   ar
     2     1     6   ar
     3     1    15    1
     4     2     3   ar
     5     2    12    1
     6     3     4   ar
     7     3    11   ar
     8     4     5   ar
     9     4     8   ar
    10     5     6   ar
    11     6     7    2
    12     8     9   ar
    13     9    10   ar
    14    10    11   ar
    15    12    13    1
    16    13    14    1
    17    15    16   am
    18    16    17    1
    19    16    32    2
    20    17    18   ar
    21    17    22   ar
    22    18    19   ar
    23    19    20   ar
    24    19    29    1
    25    20    21   ar
    26    20    26    1
    27    21    22   ar
    28    21    23    1
    29    23    24    1
    30    24    25    1
    31    26    27    1
    32    27    28    1
    33    29    30    1
    34    30    31    1
