@<TRIPOS>MOLECULE
36556_ChemDiv_C301-6659
 34 37 0 0 0
SMALL
GASTEIGER
Energy = 0

@<TRIPOS>ATOM
      1 N           2.8420    0.3830    0.0000 N.ar    1  LIG1       -0.3022
      2 C           1.8750    0.7040    0.0000 C.ar    1  LIG1        0.1688
      3 C           1.8750    1.7250    0.0000 C.ar    1  LIG1        0.1282
      4 N           2.8420    2.0420    0.0000 N.ar    1  LIG1       -0.2557
      5 C           3.4460    1.2170    0.0000 C.ar    1  LIG1       -0.0239
      6 S           4.4330    1.2170    0.0000 S.3     1  LIG1       -0.7205
      7 C           0.9830    2.2380    0.0000 C.ar    1  LIG1        0.0828
      8 N           0.1000    1.7170    0.0000 N.ar    1  LIG1       -0.2149
      9 C           0.1000    0.6960    0.0000 C.ar    1  LIG1        0.2419
     10 N           0.9830    0.1830    0.0000 N.ar    1  LIG1       -0.1929
     11 N          -0.7540    0.2000    0.0000 N.pl3   1  LIG1       -0.1776
     12 C          -1.6210    0.6960    0.0000 C.ar    1  LIG1        0.0736
     13 C          -2.4710    0.2000    0.0000 C.ar    1  LIG1        0.0168
     14 C          -3.3250    0.6880    0.0000 C.ar    1  LIG1        0.0078
     15 C          -3.3290    1.6830    0.0000 C.ar    1  LIG1        0.0757
     16 C          -4.1920    2.1790    0.0000 C.2     1  LIG1        0.3412
     17 O          -5.0420    1.6830    0.0000 O.2     1  LIG1       -0.2449
     18 O          -4.1920    3.1710    0.0000 O.3     1  LIG1       -0.4454
     19 C          -3.3290    3.6670    0.0000 C.3     1  LIG1        0.2089
     20 C          -3.3290    4.6540    0.0000 C.3     1  LIG1        0.0513
     21 C          -2.4710    2.1790    0.0000 C.ar    1  LIG1        0.0078
     22 C          -1.6080    1.6830    0.0000 C.ar    1  LIG1        0.0168
     23 C           0.9830    3.2290    0.0000 C.3     1  LIG1        0.0539
     24 C           3.1500   -0.5630    0.0000 C.ar    1  LIG1        0.0645
     25 C           2.4830   -1.2920    0.0000 C.ar    1  LIG1        0.0177
     26 C           2.7920   -2.2330    0.0000 C.ar    1  LIG1        0.0079
     27 C           3.7630   -2.4420    0.0000 C.ar    1  LIG1        0.0757
     28 C           4.0750   -3.3830    0.0000 C.2     1  LIG1        0.3412
     29 O           5.0380   -3.5880    0.0000 O.2     1  LIG1       -0.2449
     30 O           3.4130   -4.1210    0.0000 O.3     1  LIG1       -0.4454
     31 C           2.4380   -3.9130    0.0000 C.3     1  LIG1        0.2089
     32 C           1.7830   -4.6540    0.0000 C.3     1  LIG1        0.0513
     33 C           4.4290   -1.6960    0.0000 C.ar    1  LIG1        0.0079
     34 C           4.1210   -0.7630    0.0000 C.ar    1  LIG1        0.0177
@<TRIPOS>BOND
     1     1     2   ar
     2     1     5   ar
     3     1    24    1
     4     2     3   ar
     5     2    10   ar
     6     3     4   ar
     7     3     7   ar
     8     4     5   ar
     9     5     6    1
    10     7     8   ar
    11     7    23    1
    12     8     9   ar
    13     9    10   ar
    14     9    11    1
    15    11    12    1
    16    12    13   ar
    17    12    22   ar
    18    13    14   ar
    19    14    15   ar
    20    15    16    1
    21    15    21   ar
    22    16    17    2
    23    16    18    1
    24    18    19    1
    25    19    20    1
    26    21    22   ar
    27    24    25   ar
    28    24    34   ar
    29    25    26   ar
    30    26    27   ar
    31    27    28    1
    32    27    33   ar
    33    28    29    2
    34    28    30    1
    35    30    31    1
    36    31    32    1
    37    33    34   ar
