@<TRIPOS>MOLECULE
36554_ChemDiv_C301-6554
 37 40 0 0 0
SMALL
GASTEIGER
Energy = 0

@<TRIPOS>ATOM
      1 C          -3.3330   -0.9880    0.0000 C.ar    1  LIG1        0.3317
      2 N          -2.7290   -0.1580    0.0000 N.ar    1  LIG1       -0.2779
      3 C          -1.7580   -0.4750    0.0000 C.ar    1  LIG1        0.0811
      4 C          -1.7580   -1.5000    0.0000 C.ar    1  LIG1        0.0811
      5 N          -2.7290   -1.8210    0.0000 N.ar    1  LIG1       -0.2779
      6 C          -3.0330   -2.7540    0.0000 C.3     1  LIG1        0.1351
      7 C          -0.8670   -2.0170    0.0000 C.ar    1  LIG1        0.0346
      8 C           0.0170   -1.5000    0.0000 C.ar    1  LIG1        0.0649
      9 C           0.0170   -0.4750    0.0000 C.ar    1  LIG1        0.0882
     10 C          -0.8670    0.0420    0.0000 C.ar    1  LIG1        0.0366
     11 N           0.8710    0.0290    0.0000 N.am    1  LIG1       -0.1776
     12 C           0.8710    1.0210    0.0000 C.2     1  LIG1        0.2500
     13 O           0.0080    1.5130    0.0000 O.2     1  LIG1       -0.2726
     14 C           1.7290    1.5210    0.0000 C.3     1  LIG1        0.1136
     15 C           1.7170    2.5080    0.0000 C.ar    1  LIG1       -0.0098
     16 C           2.5710    3.0080    0.0000 C.ar    1  LIG1        0.0363
     17 C           2.5630    3.9880    0.0000 C.ar    1  LIG1        0.1721
     18 C           1.7000    4.4790    0.0000 C.ar    1  LIG1        0.1724
     19 C           0.8380    3.9710    0.0000 C.ar    1  LIG1        0.0397
     20 C           0.8540    2.9880    0.0000 C.ar    1  LIG1       -0.0005
     21 O           1.6880    5.4750    0.0000 O.3     1  LIG1       -0.4684
     22 C           0.8210    5.9580    0.0000 C.3     1  LIG1        0.2526
     23 O           3.4250    4.4960    0.0000 O.3     1  LIG1       -0.4684
     24 C           3.4080    5.4920    0.0000 C.3     1  LIG1        0.2526
     25 N           0.8790   -2.0000    0.0000 N.pl3   1  LIG1       -0.3064
     26 C           1.7290   -1.4960    0.0000 C.3     1  LIG1        0.0914
     27 C           2.5920   -2.0000    0.0000 C.3     1  LIG1        0.0326
     28 C           2.5920   -2.9920    0.0000 C.3     1  LIG1        0.1025
     29 C           3.4540   -3.4920    0.0000 C.2     1  LIG1        0.3165
     30 O           4.3170   -2.9960    0.0000 O.2     1  LIG1       -0.2501
     31 O           3.4540   -4.4790    0.0000 O.3     1  LIG1       -0.4485
     32 C           3.4540   -5.4710    0.0000 C.3     1  LIG1        0.2086
     33 C           2.5920   -5.9580    0.0000 C.3     1  LIG1        0.0513
     34 C           1.7290   -3.4830    0.0000 C.3     1  LIG1        0.0326
     35 C           0.8710   -2.9920    0.0000 C.3     1  LIG1        0.0914
     36 C          -3.0290    0.7790    0.0000 C.3     1  LIG1        0.1351
     37 O          -4.3210   -0.9880    0.0000 O.2     1  LIG1       -0.2463
@<TRIPOS>BOND
     1     1     2   ar
     2     1     5   ar
     3     1    37    2
     4     2     3   ar
     5     2    36    1
     6     3     4   ar
     7     3    10   ar
     8     4     5   ar
     9     4     7   ar
    10     5     6    1
    11     7     8   ar
    12     8     9   ar
    13     8    25    1
    14     9    10   ar
    15     9    11    1
    16    11    12   am
    17    12    13    2
    18    12    14    1
    19    14    15    1
    20    15    16   ar
    21    15    20   ar
    22    16    17   ar
    23    17    18   ar
    24    17    23    1
    25    18    19   ar
    26    18    21    1
    27    19    20   ar
    28    21    22    1
    29    23    24    1
    30    25    26    1
    31    25    35    1
    32    26    27    1
    33    27    28    1
    34    28    29    1
    35    28    34    1
    36    29    30    2
    37    29    31    1
    38    31    32    1
    39    32    33    1
    40    34    35    1
