@<TRIPOS>MOLECULE
36568_ChemDiv_D245-0206
 31 34 0 0 0
SMALL
GASTEIGER
Energy = 0

@<TRIPOS>ATOM
      1 N           1.9460   -1.7460    0.0000 N.ar    1  LIG1       -0.1812
      2 C           1.9630   -2.7460    0.0000 C.ar    1  LIG1        0.2553
      3 N           1.0040   -3.0540    0.0000 N.ar    1  LIG1       -0.1891
      4 C           0.4130   -2.2500    0.0000 C.ar    1  LIG1        0.1851
      5 N           1.0000   -1.4290    0.0000 N.ar    1  LIG1       -0.1419
      6 C          -0.5880   -2.2500    0.0000 C.ar    1  LIG1        0.0376
      7 C          -1.0920   -1.3960    0.0000 C.ar    1  LIG1        0.0028
      8 C          -2.0790   -1.4000    0.0000 C.ar    1  LIG1       -0.0042
      9 C          -2.5750   -2.2670    0.0000 C.ar    1  LIG1       -0.0228
     10 C          -3.5710   -2.2670    0.0000 C.3     1  LIG1        0.0189
     11 C          -4.5630   -2.2500    0.0000 C.3     1  LIG1        0.0044
     12 C          -3.5710   -3.2630    0.0000 C.3     1  LIG1        0.0044
     13 C          -3.5630   -1.2630    0.0000 C.3     1  LIG1        0.0044
     14 C          -2.0830   -3.1290    0.0000 C.ar    1  LIG1       -0.0042
     15 C          -1.0750   -3.1290    0.0000 C.ar    1  LIG1        0.0028
     16 N           2.8250   -3.2380    0.0000 N.ar    1  LIG1       -0.2142
     17 C           3.6880   -2.7460    0.0000 C.ar    1  LIG1        0.0653
     18 C           3.6880   -1.7460    0.0000 C.ar    1  LIG1        0.0492
     19 C           2.8250   -1.2330    0.0000 C.ar    1  LIG1        0.1376
     20 N           2.8290   -0.2420    0.0000 N.pl3   1  LIG1       -0.2896
     21 C           1.9630    0.2500    0.0000 C.3     1  LIG1        0.1138
     22 C           1.9630    1.2540    0.0000 C.3     1  LIG1        0.1182
     23 N           2.8290    1.7630    0.0000 N.am    1  LIG1       -0.2425
     24 C           2.8290    2.7670    0.0000 C.2     1  LIG1        0.4050
     25 O           1.9630    3.2670    0.0000 O.2     1  LIG1       -0.2262
     26 O           3.6960    3.2580    0.0000 O.3     1  LIG1       -0.4345
     27 C           4.5580    2.7580    0.0000 C.3     1  LIG1        0.2102
     28 C           4.5580    1.7540    0.0000 C.3     1  LIG1        0.0513
     29 C           3.6960    1.2540    0.0000 C.3     1  LIG1        0.1182
     30 C           3.6960    0.2500    0.0000 C.3     1  LIG1        0.1138
     31 C           4.5580   -3.2500    0.0000 C.3     1  LIG1        0.0523
@<TRIPOS>BOND
     1     1     2   ar
     2     1     5   ar
     3     1    19   ar
     4     2     3   ar
     5     2    16   ar
     6     3     4   ar
     7     4     5   ar
     8     4     6    1
     9     6     7   ar
    10     6    15   ar
    11     7     8   ar
    12     8     9   ar
    13     9    10    1
    14     9    14   ar
    15    10    11    1
    16    10    12    1
    17    10    13    1
    18    14    15   ar
    19    16    17   ar
    20    17    18   ar
    21    17    31    1
    22    18    19   ar
    23    19    20    1
    24    20    21    1
    25    20    30    1
    26    21    22    1
    27    22    23    1
    28    23    24   am
    29    23    29    1
    30    24    25    2
    31    24    26    1
    32    26    27    1
    33    27    28    1
    34    29    30    1
