@<TRIPOS>MOLECULE
36560_ChemDiv_C301-6876
 36 39 0 0 0
SMALL
GASTEIGER
Energy = 0

@<TRIPOS>ATOM
      1 C           4.1920   -1.9960    0.0000 C.ar    1  LIG1        0.3317
      2 N           3.5920   -2.8210    0.0000 N.ar    1  LIG1       -0.2779
      3 C           2.6250   -2.5080    0.0000 C.ar    1  LIG1        0.0811
      4 C           2.6250   -1.4960    0.0000 C.ar    1  LIG1        0.0811
      5 N           3.5920   -1.1710    0.0000 N.ar    1  LIG1       -0.2779
      6 C           3.8920   -0.2330    0.0000 C.3     1  LIG1        0.1351
      7 C           1.7420   -0.9830    0.0000 C.ar    1  LIG1        0.0366
      8 C           0.8540   -1.4960    0.0000 C.ar    1  LIG1        0.0885
      9 C           0.8540   -2.5080    0.0000 C.ar    1  LIG1        0.0651
     10 C           1.7420   -3.0250    0.0000 C.ar    1  LIG1        0.0346
     11 N           0.0000   -3.0080    0.0000 N.pl3   1  LIG1       -0.3017
     12 C           0.0000   -3.9920    0.0000 C.3     1  LIG1        0.1231
     13 C          -0.8580   -4.4880    0.0000 C.3     1  LIG1        0.1636
     14 O          -1.7170   -3.9920    0.0000 O.3     1  LIG1       -0.3501
     15 C          -1.7170   -2.9920    0.0000 C.3     1  LIG1        0.1636
     16 C          -0.8580   -2.5080    0.0000 C.3     1  LIG1        0.1231
     17 N           0.0000   -0.9960    0.0000 N.am    1  LIG1       -0.1741
     18 C           0.0000    0.0000    0.0000 C.2     1  LIG1        0.2692
     19 C          -0.8580    0.5000    0.0000 C.ar    1  LIG1        0.0616
     20 C          -0.8580    1.4960    0.0000 C.ar    1  LIG1        0.0448
     21 C          -1.7170    1.9960    0.0000 C.ar    1  LIG1        0.1754
     22 C          -2.5790    1.4960    0.0000 C.ar    1  LIG1        0.2059
     23 C          -2.5790    0.5000    0.0000 C.ar    1  LIG1        0.1754
     24 C          -1.7170    0.0000    0.0000 C.ar    1  LIG1        0.0448
     25 O          -3.4460    0.0000    0.0000 O.3     1  LIG1       -0.4723
     26 C          -3.4460   -0.9960    0.0000 C.3     1  LIG1        0.2057
     27 C          -4.3040   -1.4960    0.0000 C.3     1  LIG1        0.0512
     28 O          -3.4460    1.9960    0.0000 O.3     1  LIG1       -0.4695
     29 C          -4.3040    1.5000    0.0000 C.3     1  LIG1        0.2058
     30 C          -5.1750    2.0000    0.0000 C.3     1  LIG1        0.0512
     31 O          -1.7170    2.9920    0.0000 O.3     1  LIG1       -0.4723
     32 C          -2.5750    3.4960    0.0000 C.3     1  LIG1        0.2057
     33 C          -2.5750    4.4880    0.0000 C.3     1  LIG1        0.0512
     34 O           0.8710    0.5000    0.0000 O.2     1  LIG1       -0.2680
     35 C           3.8920   -3.7540    0.0000 C.3     1  LIG1        0.1351
     36 O           5.1710   -1.9960    0.0000 O.2     1  LIG1       -0.2463
@<TRIPOS>BOND
     1     1     2   ar
     2     1     5   ar
     3     1    36    2
     4     2     3   ar
     5     2    35    1
     6     3     4   ar
     7     3    10   ar
     8     4     5   ar
     9     4     7   ar
    10     5     6    1
    11     7     8   ar
    12     8     9   ar
    13     8    17    1
    14     9    10   ar
    15     9    11    1
    16    11    12    1
    17    11    16    1
    18    12    13    1
    19    13    14    1
    20    14    15    1
    21    15    16    1
    22    17    18   am
    23    18    19    1
    24    18    34    2
    25    19    20   ar
    26    19    24   ar
    27    20    21   ar
    28    21    22   ar
    29    21    31    1
    30    22    23   ar
    31    22    28    1
    32    23    24   ar
    33    23    25    1
    34    25    26    1
    35    26    27    1
    36    28    29    1
    37    29    30    1
    38    31    32    1
    39    32    33    1
