@<TRIPOS>MOLECULE
36566_ChemDiv_D245-0194
 27 29 0 0 0
SMALL
GASTEIGER
Energy = 0

@<TRIPOS>ATOM
      1 N           1.5250   -0.9880    0.0000 N.ar    1  LIG1       -0.1812
      2 C           1.5380   -1.9920    0.0000 C.ar    1  LIG1        0.2553
      3 N           0.5790   -2.3040    0.0000 N.ar    1  LIG1       -0.1891
      4 C          -0.0130   -1.4960    0.0000 C.ar    1  LIG1        0.1851
      5 N           0.5750   -0.6750    0.0000 N.ar    1  LIG1       -0.1419
      6 C          -1.0170   -1.4960    0.0000 C.ar    1  LIG1        0.0376
      7 C          -1.5040   -2.3750    0.0000 C.ar    1  LIG1        0.0028
      8 C          -2.5130   -2.3750    0.0000 C.ar    1  LIG1       -0.0042
      9 C          -3.0040   -1.5130    0.0000 C.ar    1  LIG1       -0.0228
     10 C          -4.0040   -1.5130    0.0000 C.3     1  LIG1        0.0189
     11 C          -4.9960   -1.4960    0.0000 C.3     1  LIG1        0.0044
     12 C          -4.0040   -2.5080    0.0000 C.3     1  LIG1        0.0044
     13 C          -3.9920   -0.5080    0.0000 C.3     1  LIG1        0.0044
     14 C          -2.5080   -0.6460    0.0000 C.ar    1  LIG1       -0.0042
     15 C          -1.5170   -0.6380    0.0000 C.ar    1  LIG1        0.0028
     16 N           2.4000   -2.4830    0.0000 N.ar    1  LIG1       -0.2142
     17 C           3.2670   -1.9920    0.0000 C.ar    1  LIG1        0.0653
     18 C           3.2670   -0.9880    0.0000 C.ar    1  LIG1        0.0492
     19 C           2.4000   -0.4790    0.0000 C.ar    1  LIG1        0.1375
     20 N           2.4080    0.5170    0.0000 N.pl3   1  LIG1       -0.2931
     21 C           3.2670    1.0080    0.0000 C.3     1  LIG1        0.0922
     22 C           4.1330    0.5170    0.0000 C.3     1  LIG1        0.0215
     23 C           4.9920    1.0080    0.0000 C.3     1  LIG1        0.0018
     24 C           1.5330    1.0170    0.0000 C.3     1  LIG1        0.0922
     25 C           1.5380    2.0130    0.0000 C.3     1  LIG1        0.0215
     26 C           2.4080    2.5130    0.0000 C.3     1  LIG1        0.0018
     27 C           4.1420   -2.4960    0.0000 C.3     1  LIG1        0.0523
@<TRIPOS>BOND
     1     1     2   ar
     2     1     5   ar
     3     1    19   ar
     4     2     3   ar
     5     2    16   ar
     6     3     4   ar
     7     4     5   ar
     8     4     6    1
     9     6     7   ar
    10     6    15   ar
    11     7     8   ar
    12     8     9   ar
    13     9    10    1
    14     9    14   ar
    15    10    11    1
    16    10    12    1
    17    10    13    1
    18    14    15   ar
    19    16    17   ar
    20    17    18   ar
    21    17    27    1
    22    18    19   ar
    23    19    20    1
    24    20    21    1
    25    20    24    1
    26    21    22    1
    27    22    23    1
    28    24    25    1
    29    25    26    1
