@<TRIPOS>MOLECULE
36574_ChemDiv_D245-0401
 28 31 0 0 0
SMALL
GASTEIGER
Energy = 0

@<TRIPOS>ATOM
      1 N           0.9500   -1.7500    0.0000 N.ar    1  LIG1       -0.1812
      2 C           0.9670   -2.7540    0.0000 C.ar    1  LIG1        0.2553
      3 N           0.0130   -3.0630    0.0000 N.ar    1  LIG1       -0.1891
      4 C          -0.5830   -2.2580    0.0000 C.ar    1  LIG1        0.1850
      5 N           0.0040   -1.4380    0.0000 N.ar    1  LIG1       -0.1419
      6 C          -1.5830   -2.2580    0.0000 C.ar    1  LIG1        0.0373
      7 C          -2.0830   -1.4040    0.0000 C.ar    1  LIG1       -0.0012
      8 C          -3.0710   -1.4080    0.0000 C.ar    1  LIG1       -0.0218
      9 C          -3.5670   -2.2750    0.0000 C.ar    1  LIG1       -0.0043
     10 C          -3.0790   -3.1330    0.0000 C.ar    1  LIG1       -0.0002
     11 C          -2.0710   -3.1330    0.0000 C.ar    1  LIG1        0.0031
     12 C          -3.5670   -0.5420    0.0000 C.3     1  LIG1        0.0310
     13 N           1.8290   -3.2460    0.0000 N.ar    1  LIG1       -0.2142
     14 C           2.6920   -2.7540    0.0000 C.ar    1  LIG1        0.0653
     15 C           2.6920   -1.7500    0.0000 C.ar    1  LIG1        0.0492
     16 C           1.8290   -1.2420    0.0000 C.ar    1  LIG1        0.1376
     17 N           1.8330   -0.2500    0.0000 N.pl3   1  LIG1       -0.2896
     18 C           0.9670    0.2420    0.0000 C.3     1  LIG1        0.1138
     19 C           0.9670    1.2460    0.0000 C.3     1  LIG1        0.1182
     20 N           1.8330    1.7580    0.0000 N.am    1  LIG1       -0.2425
     21 C           1.8330    2.7580    0.0000 C.2     1  LIG1        0.4050
     22 O           0.9670    3.2580    0.0000 O.2     1  LIG1       -0.2262
     23 O           2.7000    3.2500    0.0000 O.3     1  LIG1       -0.4345
     24 C           3.5630    2.7500    0.0000 C.3     1  LIG1        0.2102
     25 C           3.5630    1.7460    0.0000 C.3     1  LIG1        0.0513
     26 C           2.7000    1.2460    0.0000 C.3     1  LIG1        0.1182
     27 C           2.7000    0.2420    0.0000 C.3     1  LIG1        0.1138
     28 C           3.5630   -3.2540    0.0000 C.3     1  LIG1        0.0523
@<TRIPOS>BOND
     1     1     2   ar
     2     1     5   ar
     3     1    16   ar
     4     2     3   ar
     5     2    13   ar
     6     3     4   ar
     7     4     5   ar
     8     4     6    1
     9     6     7   ar
    10     6    11   ar
    11     7     8   ar
    12     8     9   ar
    13     8    12    1
    14     9    10   ar
    15    10    11   ar
    16    13    14   ar
    17    14    15   ar
    18    14    28    1
    19    15    16   ar
    20    16    17    1
    21    17    18    1
    22    17    27    1
    23    18    19    1
    24    19    20    1
    25    20    21   am
    26    20    26    1
    27    21    22    2
    28    21    23    1
    29    23    24    1
    30    24    25    1
    31    26    27    1
