@<TRIPOS>MOLECULE
36579_ChemDiv_C260-0584
 32 36 0 0 0
SMALL
GASTEIGER
Energy = 0

@<TRIPOS>ATOM
      1 N          -0.0040    1.5040    0.0000 N.ar    1  LIG1       -0.2272
      2 C          -0.0040    0.5130    0.0000 C.ar    1  LIG1        0.3380
      3 N          -0.8750    0.0000    0.0000 N.ar    1  LIG1       -0.2751
      4 C          -1.7460    0.5130    0.0000 C.ar    1  LIG1        0.0688
      5 C          -1.7460    1.5040    0.0000 C.ar    1  LIG1        0.0725
      6 C          -0.8750    2.0130    0.0000 C.ar    1  LIG1        0.2694
      7 O          -0.8750    3.0040    0.0000 O.2     1  LIG1       -0.2665
      8 C          -2.5960    2.0130    0.0000 C.ar    1  LIG1        0.0062
      9 C          -3.4710    1.5040    0.0000 C.ar    1  LIG1        0.0003
     10 C          -3.4710    0.5130    0.0000 C.ar    1  LIG1        0.0015
     11 C          -2.5960    0.0000    0.0000 C.ar    1  LIG1        0.0175
     12 C          -0.8750   -0.9880    0.0000 C.3     1  LIG1        0.1564
     13 C          -0.0130   -1.5000    0.0000 C.ar    1  LIG1        0.0883
     14 N          -0.0330   -2.4880    0.0000 N.ar    1  LIG1       -0.2301
     15 C           0.8380   -3.0000    0.0000 C.ar    1  LIG1        0.1497
     16 N           1.7040   -2.4880    0.0000 N.ar    1  LIG1       -0.2577
     17 C           1.7040   -1.5000    0.0000 C.ar    1  LIG1        0.2672
     18 C           0.8380   -0.9880    0.0000 C.ar    1  LIG1        0.0778
     19 O           2.5960   -0.9880    0.0000 O.2     1  LIG1       -0.2665
     20 C           2.5630   -3.0000    0.0000 C.ar    1  LIG1        0.0844
     21 C           2.5460   -3.9920    0.0000 C.ar    1  LIG1        0.0192
     22 C           1.6960   -4.5000    0.0000 C.ar    1  LIG1        0.0046
     23 C           0.8380   -3.9920    0.0000 C.ar    1  LIG1        0.0375
     24 O           0.8670    0.0000    0.0000 O.2     1  LIG1       -0.2458
     25 C           0.8580    2.0130    0.0000 C.ar    1  LIG1        0.0705
     26 C           1.7250    1.5040    0.0000 C.ar    1  LIG1        0.0135
     27 C           2.5750    2.0130    0.0000 C.ar    1  LIG1       -0.0207
     28 C           2.5750    3.0040    0.0000 C.ar    1  LIG1       -0.0084
     29 C           1.7040    3.5170    0.0000 C.ar    1  LIG1       -0.0207
     30 C           0.8580    3.0040    0.0000 C.ar    1  LIG1        0.0135
     31 C           1.7040    4.5000    0.0000 C.3     1  LIG1        0.0311
     32 C           3.4670    1.5040    0.0000 C.3     1  LIG1        0.0311
@<TRIPOS>BOND
     1     1     2   ar
     2     1     6   ar
     3     1    25    1
     4     2     3   ar
     5     2    24    2
     6     3     4   ar
     7     3    12    1
     8     4     5   ar
     9     4    11   ar
    10     5     6   ar
    11     5     8   ar
    12     6     7    2
    13     8     9   ar
    14     9    10   ar
    15    10    11   ar
    16    12    13    1
    17    13    14   ar
    18    13    18   ar
    19    14    15   ar
    20    15    16   ar
    21    15    23   ar
    22    16    17   ar
    23    16    20   ar
    24    17    18   ar
    25    17    19    2
    26    20    21   ar
    27    21    22   ar
    28    22    23   ar
    29    25    26   ar
    30    25    30   ar
    31    26    27   ar
    32    27    28   ar
    33    27    32    1
    34    28    29   ar
    35    29    30   ar
    36    29    31    1
