@<TRIPOS>MOLECULE
36572_ChemDiv_D245-0213
 30 34 0 0 0
SMALL
GASTEIGER
Energy = 0

@<TRIPOS>ATOM
      1 N           1.9500   -1.7380    0.0000 N.ar    1  LIG1       -0.1812
      2 C           1.9630   -2.7420    0.0000 C.ar    1  LIG1        0.2553
      3 N           1.0080   -3.0500    0.0000 N.ar    1  LIG1       -0.1891
      4 C           0.4130   -2.2460    0.0000 C.ar    1  LIG1        0.1851
      5 N           1.0000   -1.4250    0.0000 N.ar    1  LIG1       -0.1419
      6 C          -0.5920   -2.2460    0.0000 C.ar    1  LIG1        0.0376
      7 C          -1.0920   -1.3880    0.0000 C.ar    1  LIG1        0.0028
      8 C          -2.0790   -1.3960    0.0000 C.ar    1  LIG1       -0.0042
      9 C          -2.5750   -2.2630    0.0000 C.ar    1  LIG1       -0.0228
     10 C          -3.5750   -2.2630    0.0000 C.3     1  LIG1        0.0189
     11 C          -3.5750   -3.2580    0.0000 C.3     1  LIG1        0.0044
     12 C          -3.5630   -1.2580    0.0000 C.3     1  LIG1        0.0044
     13 C          -4.5670   -2.2460    0.0000 C.3     1  LIG1        0.0044
     14 C          -2.0830   -3.1210    0.0000 C.ar    1  LIG1       -0.0042
     15 C          -1.0750   -3.1210    0.0000 C.ar    1  LIG1        0.0028
     16 N           2.8250   -3.2330    0.0000 N.ar    1  LIG1       -0.2142
     17 C           3.6920   -2.7420    0.0000 C.ar    1  LIG1        0.0653
     18 C           3.6920   -1.7380    0.0000 C.ar    1  LIG1        0.0492
     19 C           2.8250   -1.2250    0.0000 C.ar    1  LIG1        0.1377
     20 N           2.8290   -0.2330    0.0000 N.pl3   1  LIG1       -0.2887
     21 C           1.9630    0.2580    0.0000 C.3     1  LIG1        0.1186
     22 C           1.9630    1.2630    0.0000 C.ar    1  LIG1       -0.0063
     23 C           2.8290    1.7630    0.0000 C.ar    1  LIG1       -0.0228
     24 C           3.6960    1.2630    0.0000 C.3     1  LIG1        0.0475
     25 C           3.6960    0.2670    0.0000 C.3     1  LIG1        0.0971
     26 C           2.8290    2.7630    0.0000 C.ar    1  LIG1       -0.0045
     27 C           1.9630    3.2630    0.0000 C.ar    1  LIG1       -0.0003
     28 C           1.0960    2.7500    0.0000 C.ar    1  LIG1       -0.0003
     29 C           1.0960    1.7630    0.0000 C.ar    1  LIG1       -0.0029
     30 C           4.5630   -3.2420    0.0000 C.3     1  LIG1        0.0523
@<TRIPOS>BOND
     1     1     2   ar
     2     1     5   ar
     3     1    19   ar
     4     2     3   ar
     5     2    16   ar
     6     3     4   ar
     7     4     5   ar
     8     4     6    1
     9     6     7   ar
    10     6    15   ar
    11     7     8   ar
    12     8     9   ar
    13     9    10    1
    14     9    14   ar
    15    10    11    1
    16    10    12    1
    17    10    13    1
    18    14    15   ar
    19    16    17   ar
    20    17    18   ar
    21    17    30    1
    22    18    19   ar
    23    19    20    1
    24    20    21    1
    25    20    25    1
    26    21    22    1
    27    22    23   ar
    28    22    29   ar
    29    23    24    1
    30    23    26   ar
    31    24    25    1
    32    26    27   ar
    33    27    28   ar
    34    28    29   ar
