@<TRIPOS>MOLECULE
36581_ChemDiv_C260-0800
 36 40 0 0 0
SMALL
GASTEIGER
Energy = 0

@<TRIPOS>ATOM
      1 N          -0.3750   -0.8830    0.0000 N.ar    1  LIG1       -0.2482
      2 C          -0.3750   -1.8830    0.0000 C.ar    1  LIG1        0.3342
      3 N          -1.2500   -2.3790    0.0000 N.ar    1  LIG1       -0.2720
      4 C          -2.1170   -1.8830    0.0000 C.ar    1  LIG1        0.0689
      5 C          -2.1170   -0.8830    0.0000 C.ar    1  LIG1        0.0722
      6 C          -1.2500   -0.3830    0.0000 C.ar    1  LIG1        0.2656
      7 O          -1.2500    0.6170    0.0000 O.2     1  LIG1       -0.2668
      8 C          -2.9750   -0.3830    0.0000 C.ar    1  LIG1        0.0062
      9 C          -3.8380   -0.8830    0.0000 C.ar    1  LIG1        0.0003
     10 C          -3.8380   -1.8830    0.0000 C.ar    1  LIG1        0.0015
     11 C          -2.9750   -2.3790    0.0000 C.ar    1  LIG1        0.0175
     12 C          -1.2500   -3.3790    0.0000 C.3     1  LIG1        0.1971
     13 C          -0.3880   -3.8790    0.0000 C.2     1  LIG1        0.2645
     14 N          -0.3880   -4.8880    0.0000 N.am    1  LIG1       -0.2056
     15 C           0.4710   -5.3880    0.0000 C.3     1  LIG1        0.0954
     16 C           0.4710   -6.3920    0.0000 C.3     1  LIG1        0.0217
     17 C           1.4290   -6.6960    0.0000 C.3     1  LIG1        0.0018
     18 C           2.0130   -5.8920    0.0000 C.3     1  LIG1        0.0018
     19 C           1.4290   -5.0750    0.0000 C.3     1  LIG1        0.0217
     20 O           0.4710   -3.3790    0.0000 O.2     1  LIG1       -0.2712
     21 O           0.4920   -2.3960    0.0000 O.2     1  LIG1       -0.2462
     22 C           0.4920   -0.3830    0.0000 C.3     1  LIG1        0.1232
     23 C           0.5000    0.6170    0.0000 C.3     1  LIG1        0.1115
     24 C           1.3630    1.1130    0.0000 C.2     1  LIG1        0.2437
     25 N           1.3630    2.1130    0.0000 N.am    1  LIG1       -0.2005
     26 C           2.2250    2.6130    0.0000 C.3     1  LIG1        0.1416
     27 C           2.2250    3.6170    0.0000 C.ar    1  LIG1        0.0027
     28 C           3.0920    4.1130    0.0000 C.ar    1  LIG1        0.0376
     29 C           3.0920    5.1210    0.0000 C.ar    1  LIG1        0.1762
     30 C           2.2250    5.6210    0.0000 C.ar    1  LIG1        0.1764
     31 O           2.4380    6.5960    0.0000 O.3     1  LIG1       -0.4346
     32 C           3.4380    6.6960    0.0000 C.3     1  LIG1        0.4294
     33 O           3.8330    5.7920    0.0000 O.3     1  LIG1       -0.4346
     34 C           1.3630    5.1210    0.0000 C.ar    1  LIG1        0.0399
     35 C           1.3630    4.1130    0.0000 C.ar    1  LIG1        0.0008
     36 O           2.2290    0.6170    0.0000 O.2     1  LIG1       -0.2733
@<TRIPOS>BOND
     1     1     2   ar
     2     1     6   ar
     3     1    22    1
     4     2     3   ar
     5     2    21    2
     6     3     4   ar
     7     3    12    1
     8     4     5   ar
     9     4    11   ar
    10     5     6   ar
    11     5     8   ar
    12     6     7    2
    13     8     9   ar
    14     9    10   ar
    15    10    11   ar
    16    12    13    1
    17    13    14   am
    18    13    20    2
    19    14    15    1
    20    15    16    1
    21    15    19    1
    22    16    17    1
    23    17    18    1
    24    18    19    1
    25    22    23    1
    26    23    24    1
    27    24    25   am
    28    24    36    2
    29    25    26    1
    30    26    27    1
    31    27    28   ar
    32    27    35   ar
    33    28    29   ar
    34    29    30   ar
    35    29    33    1
    36    30    31    1
    37    30    34   ar
    38    31    32    1
    39    32    33    1
    40    34    35   ar
