@<TRIPOS>MOLECULE
36584_ChemDiv_C304-0268
 29 32 0 0 0
SMALL
GASTEIGER
Energy = 0

@<TRIPOS>ATOM
      1 N           1.5580    1.4500    0.0000 N.2     1  LIG1       -0.2491
      2 C           1.8540    2.4080    0.0000 C.2     1  LIG1        0.0594
      3 C           1.2920    3.2210    0.0000 C.ar    1  LIG1        0.0195
      4 C           0.3000    3.3040    0.0000 C.ar    1  LIG1        0.0306
      5 S          -0.3830    2.5750    0.0000 S.3     1  LIG1       -0.0854
      6 C          -0.2460    1.5880    0.0000 C.ar    1  LIG1        0.0471
      7 C           0.6250    1.0830    0.0000 C.ar    1  LIG1        0.0870
      8 C           0.6250    0.0830    0.0000 C.ar    1  LIG1        0.0241
      9 C          -0.2460   -0.4170    0.0000 C.ar    1  LIG1        0.0549
     10 C          -0.2460   -1.4210    0.0000 C.2     1  LIG1        0.2460
     11 N          -1.1130   -1.9210    0.0000 N.am    1  LIG1       -0.2959
     12 C          -1.1130   -2.9210    0.0000 C.3     1  LIG1        0.1470
     13 C          -1.9630   -3.4250    0.0000 C.3     1  LIG1        0.1070
     14 N          -1.9630   -4.4250    0.0000 N.4     1  LIG1        0.3742
     15 C          -2.9170   -4.7250    0.0000 C.3     1  LIG1        0.1385
     16 C          -3.4960   -3.9380    0.0000 C.3     1  LIG1        0.0687
     17 C          -2.9170   -3.1170    0.0000 C.3     1  LIG1        0.0646
     18 C          -1.1630   -5.0250    0.0000 C.3     1  LIG1        0.1385
     19 C          -0.2460   -4.6250    0.0000 C.3     1  LIG1        0.0688
     20 O           0.6250   -1.9210    0.0000 O.2     1  LIG1       -0.2701
     21 C          -1.1130    0.0830    0.0000 C.ar    1  LIG1        0.0051
     22 C          -1.1130    1.0830    0.0000 C.ar    1  LIG1        0.0081
     23 C          -0.1330    4.2040    0.0000 C.ar    1  LIG1        0.0065
     24 C           0.4330    5.0250    0.0000 C.ar    1  LIG1        0.0005
     25 C           1.4250    4.9540    0.0000 C.ar    1  LIG1        0.0001
     26 C           1.8580    4.0420    0.0000 C.ar    1  LIG1        0.0017
     27 C           2.8540    2.5750    0.0000 C.3     1  LIG1        0.0458
     28 C           3.4920    1.8040    0.0000 C.3     1  LIG1        0.0067
     29 H          -1.9710   -1.4210    0.0000 H       1  LIG1        0.1499
@<TRIPOS>BOND
     1     1     2    2
     2     1     7    1
     3     2     3    1
     4     2    27    1
     5     3     4   ar
     6     3    26   ar
     7     4     5    1
     8     4    23   ar
     9     5     6    1
    10     6     7   ar
    11     6    22   ar
    12     7     8   ar
    13     8     9   ar
    14     9    10    1
    15     9    21   ar
    16    10    11   am
    17    10    20    2
    18    11    12    1
    19    11    29    1
    20    12    13    1
    21    13    14    1
    22    13    17    1
    23    14    15    1
    24    14    18    1
    25    15    16    1
    26    16    17    1
    27    18    19    1
    28    21    22   ar
    29    23    24   ar
    30    24    25   ar
    31    25    26   ar
    32    27    28    1
