@<TRIPOS>MOLECULE
36582_ChemDiv_C303-0087
 32 37 0 0 0
SMALL
GASTEIGER
Energy = 0

@<TRIPOS>ATOM
      1 C           3.3290   -0.8960    0.0000 C.ar    1  LIG1        0.0844
      2 S           2.6130   -0.2330    0.0000 S.2     1  LIG1       -0.0634
      3 C           2.8920    0.6630    0.0000 C.ar    1  LIG1        0.1108
      4 N           2.4210    1.4790    0.0000 N.ar    1  LIG1       -0.2389
      5 C           2.8750    2.3000    0.0000 C.ar    1  LIG1        0.0815
      6 C           3.8210    2.3000    0.0000 C.ar    1  LIG1        0.0177
      7 C           4.2960    1.4960    0.0000 C.ar    1  LIG1        0.0035
      8 C           3.8290    0.6630    0.0000 C.ar    1  LIG1        0.0245
      9 C           4.1290   -0.2330    0.0000 C.ar    1  LIG1        0.0131
     10 C           4.2790    3.1130    0.0000 C.ar    1  LIG1        0.0012
     11 C           3.8040    3.9330    0.0000 C.ar    1  LIG1       -0.0042
     12 C           2.8710    3.9250    0.0000 C.ar    1  LIG1       -0.0204
     13 C           2.4080    3.1000    0.0000 C.ar    1  LIG1        0.0149
     14 C           2.3830    4.7500    0.0000 C.3     1  LIG1        0.0311
     15 C           3.3000   -2.7380    0.0000 C.2     1  LIG1        0.2554
     16 N           2.4380   -3.2380    0.0000 N.am    1  LIG1       -0.2641
     17 C           1.5830   -2.7540    0.0000 C.3     1  LIG1        0.1567
     18 C           0.7210   -3.2380    0.0000 C.3     1  LIG1        0.1610
     19 N           0.7210   -4.2500    0.0000 N.4     1  LIG1        0.3834
     20 C          -0.1500   -4.7500    0.0000 C.3     1  LIG1        0.1664
     21 C          -1.0210   -4.2500    0.0000 C.ar    1  LIG1        0.0376
     22 C          -1.8880   -4.7500    0.0000 C.ar    1  LIG1        0.0416
     23 C          -2.7540   -4.2500    0.0000 C.ar    1  LIG1        0.1763
     24 C          -2.7540   -3.2380    0.0000 C.ar    1  LIG1        0.1764
     25 O          -3.7040   -2.9330    0.0000 O.3     1  LIG1       -0.4346
     26 C          -4.3000   -3.7460    0.0000 C.3     1  LIG1        0.4294
     27 O          -3.7040   -4.5540    0.0000 O.3     1  LIG1       -0.4346
     28 C          -1.8830   -2.7380    0.0000 C.ar    1  LIG1        0.0401
     29 C          -1.0080   -3.2380    0.0000 C.ar    1  LIG1        0.0048
     30 C           1.5880   -4.7500    0.0000 C.3     1  LIG1        0.1610
     31 C           2.4380   -4.2500    0.0000 C.3     1  LIG1        0.1567
     32 O           4.1250   -3.1920    0.0000 O.2     1  LIG1       -0.2694
@<TRIPOS>BOND
     1     1     2   ar
     2     1     9   ar
     3     1    15    1
     4     2     3   ar
     5     3     4   ar
     6     3     8   ar
     7     4     5   ar
     8     5     6   ar
     9     5    13   ar
    10     6     7   ar
    11     6    10   ar
    12     7     8   ar
    13     8     9   ar
    14    10    11   ar
    15    11    12   ar
    16    12    13   ar
    17    12    14    1
    18    15    16   am
    19    15    32    2
    20    16    17    1
    21    16    31    1
    22    17    18    1
    23    18    19    1
    24    19    20    1
    25    19    30    1
    26    20    21    1
    27    21    22   ar
    28    21    29   ar
    29    22    23   ar
    30    23    24   ar
    31    23    27    1
    32    24    25    1
    33    24    28   ar
    34    25    26    1
    35    26    27    1
    36    28    29   ar
    37    30    31    1
