@<TRIPOS>MOLECULE
36586_ChemDiv_C305-0034
 24 25 0 0 0
SMALL
GASTEIGER
Energy = 0

@<TRIPOS>ATOM
      1 C          -1.5830   -1.4500    0.0000 C.2     1  LIG1        0.3079
      2 N          -2.5790   -1.4500    0.0000 N.am    1  LIG1       -0.2582
      3 C          -3.1710   -2.2630    0.0000 C.3     1  LIG1        0.1214
      4 C          -2.7580   -3.1670    0.0000 C.ar    1  LIG1       -0.0062
      5 C          -3.3500   -3.9710    0.0000 C.ar    1  LIG1       -0.0242
      6 C          -4.3380   -3.8710    0.0000 C.3     1  LIG1        0.0308
      7 C          -2.9540   -4.8960    0.0000 C.ar    1  LIG1       -0.0045
      8 C          -1.9580   -5.0130    0.0000 C.ar    1  LIG1       -0.0003
      9 C          -1.3580   -4.2000    0.0000 C.ar    1  LIG1       -0.0003
     10 C          -1.7670   -3.2750    0.0000 C.ar    1  LIG1       -0.0029
     11 C          -2.8830   -0.5040    0.0000 C.3     1  LIG1        0.1168
     12 C          -2.0790    0.0830    0.0000 C.3     1  LIG1        0.1169
     13 N          -1.2630   -0.5040    0.0000 N.am    1  LIG1       -0.2537
     14 C          -0.3170   -0.1920    0.0000 C.3     1  LIG1        0.1821
     15 C          -0.1210    0.7790    0.0000 C.2     1  LIG1        0.2617
     16 O          -0.8540    1.4460    0.0000 O.2     1  LIG1       -0.2715
     17 N           0.8380    1.0830    0.0000 N.am    1  LIG1       -0.2039
     18 C           1.0670    2.1630    0.0000 C.3     1  LIG1        0.1178
     19 C           1.7750    2.4040    0.0000 C.3     1  LIG1        0.0555
     20 C           1.9920    3.1790    0.0000 C.3     1  LIG1        0.1440
     21 O           3.0330    3.5420    0.0000 O.3     1  LIG1       -0.3537
     22 C           3.2630    4.6170    0.0000 C.3     1  LIG1        0.1422
     23 C           4.3330    5.0130    0.0000 C.3     1  LIG1        0.0346
     24 O          -0.9880   -2.2630    0.0000 O.2     1  LIG1       -0.2523
@<TRIPOS>BOND
     1     1     2   am
     2     1    13   am
     3     1    24    2
     4     2     3    1
     5     2    11    1
     6     3     4    1
     7     4     5   ar
     8     4    10   ar
     9     5     6    1
    10     5     7   ar
    11     7     8   ar
    12     8     9   ar
    13     9    10   ar
    14    11    12    1
    15    12    13    1
    16    13    14    1
    17    14    15    1
    18    15    16    2
    19    15    17   am
    20    17    18    1
    21    18    19    1
    22    19    20    1
    23    20    21    1
    24    21    22    1
    25    22    23    1
