@<TRIPOS>MOLECULE
36580_ChemDiv_C301-7058
 20 22 0 0 0
SMALL
GASTEIGER
Energy = 0

@<TRIPOS>ATOM
      1 C           0.8670   -0.9830    0.0000 C.ar    1  LIG1        0.1762
      2 C          -0.0040   -0.4630    0.0000 C.ar    1  LIG1        0.0896
      3 N           0.0000    0.5460    0.0000 N.ar    1  LIG1       -0.2898
      4 C           0.8830    1.0460    0.0000 C.ar    1  LIG1        0.3190
      5 C           1.7670    0.5290    0.0000 C.ar    1  LIG1        0.3358
      6 N           1.7500   -0.4790    0.0000 N.ar    1  LIG1       -0.1957
      7 O           2.6130    1.0130    0.0000 O.3     1  LIG1       -0.2599
      8 O           0.8920    2.0210    0.0000 O.2     1  LIG1       -0.2617
      9 C          -0.8420    1.0420    0.0000 C.3     1  LIG1        0.1092
     10 C          -0.8380    2.0170    0.0000 C.3     1  LIG1        0.0246
     11 C          -1.6790    2.5000    0.0000 C.3     1  LIG1        0.0021
     12 C          -0.8830   -0.9830    0.0000 C.ar    1  LIG1        0.0522
     13 C          -0.8830   -1.9960    0.0000 C.ar    1  LIG1        0.1502
     14 O          -0.0170   -2.4960    0.0000 O.2     1  LIG1       -0.4199
     15 C           0.8670   -1.9960    0.0000 C.ar    1  LIG1        0.3652
     16 O           1.7130   -2.4880    0.0000 O.2     1  LIG1       -0.2427
     17 C          -1.7500   -2.4880    0.0000 C.ar    1  LIG1        0.0377
     18 C          -2.6170   -1.9830    0.0000 C.ar    1  LIG1        0.0031
     19 C          -2.6170   -0.9830    0.0000 C.ar    1  LIG1        0.0002
     20 C          -1.7500   -0.4790    0.0000 C.ar    1  LIG1        0.0045
@<TRIPOS>BOND
     1     1     2   ar
     2     1     6   ar
     3     1    15   ar
     4     2     3   ar
     5     2    12   ar
     6     3     4   ar
     7     3     9    1
     8     4     5   ar
     9     4     8    2
    10     5     6   ar
    11     5     7    1
    12     9    10    1
    13    10    11    1
    14    12    13   ar
    15    12    20   ar
    16    13    14   ar
    17    13    17   ar
    18    14    15   ar
    19    15    16    2
    20    17    18   ar
    21    18    19   ar
    22    19    20   ar
