@<TRIPOS>MOLECULE
36592_ChemDiv_C305-0351
 25 27 0 0 0
SMALL
GASTEIGER
Energy = 0

@<TRIPOS>ATOM
      1 C          -1.5500   -0.1670    0.0000 C.2     1  LIG1        0.3079
      2 N          -1.2330    0.7880    0.0000 N.am    1  LIG1       -0.2537
      3 C          -0.2830    1.1000    0.0000 C.3     1  LIG1        0.1805
      4 C          -0.0790    2.0710    0.0000 C.2     1  LIG1        0.2460
      5 N           0.8710    2.3790    0.0000 N.am    1  LIG1       -0.2782
      6 C           1.6130    1.7210    0.0000 C.3     1  LIG1        0.0934
      7 C           2.5630    2.0250    0.0000 C.3     1  LIG1        0.0199
      8 C           2.7920    2.9880    0.0000 C.3     1  LIG1        0.0034
      9 C           2.0380    3.6540    0.0000 C.3     1  LIG1        0.0199
     10 C           1.0830    3.3500    0.0000 C.3     1  LIG1        0.0934
     11 C           2.2580    4.6330    0.0000 C.3     1  LIG1        0.0018
     12 C           3.3210    1.3500    0.0000 C.3     1  LIG1        0.0018
     13 O          -0.8210    2.7420    0.0000 O.2     1  LIG1       -0.2730
     14 C          -2.0460    1.3750    0.0000 C.3     1  LIG1        0.1169
     15 C          -2.8500    0.7880    0.0000 C.3     1  LIG1        0.1168
     16 N          -2.5460   -0.1670    0.0000 N.am    1  LIG1       -0.2582
     17 C          -3.1380   -0.9710    0.0000 C.3     1  LIG1        0.1217
     18 C          -2.7290   -1.8790    0.0000 C.ar    1  LIG1       -0.0023
     19 C          -3.3250   -2.6830    0.0000 C.ar    1  LIG1       -0.0029
     20 C          -2.9250   -3.6040    0.0000 C.ar    1  LIG1       -0.0045
     21 C          -1.9250   -3.7210    0.0000 C.ar    1  LIG1       -0.0219
     22 C          -1.3380   -2.9080    0.0000 C.ar    1  LIG1       -0.0045
     23 C          -1.7330   -1.9960    0.0000 C.ar    1  LIG1       -0.0029
     24 C          -1.5210   -4.6330    0.0000 C.3     1  LIG1        0.0310
     25 O          -0.9580   -0.9710    0.0000 O.2     1  LIG1       -0.2523
@<TRIPOS>BOND
     1     1     2   am
     2     1    16   am
     3     1    25    2
     4     2     3    1
     5     2    14    1
     6     3     4    1
     7     4     5   am
     8     4    13    2
     9     5     6    1
    10     5    10    1
    11     6     7    1
    12     7     8    1
    13     7    12    1
    14     8     9    1
    15     9    10    1
    16     9    11    1
    17    14    15    1
    18    15    16    1
    19    16    17    1
    20    17    18    1
    21    18    19   ar
    22    18    23   ar
    23    19    20   ar
    24    20    21   ar
    25    21    22   ar
    26    21    24    1
    27    22    23   ar
