@<TRIPOS>MOLECULE
36606_ChemDiv_D215-0594
 25 29 0 0 0
SMALL
GASTEIGER
Energy = 0

@<TRIPOS>ATOM
      1 C           3.5830   -1.5290    0.0000 C.ar    1  LIG1        0.3316
      2 N           2.5960   -1.6880    0.0000 N.ar    1  LIG1       -0.2779
      3 C           2.1420   -0.7920    0.0000 C.ar    1  LIG1        0.0796
      4 C           2.8540   -0.0880    0.0000 C.ar    1  LIG1        0.0797
      5 N           3.7420   -0.5420    0.0000 N.ar    1  LIG1       -0.2779
      6 C           4.6330   -0.0880    0.0000 C.3     1  LIG1        0.1351
      7 C           2.5920    0.8830    0.0000 C.ar    1  LIG1        0.0187
      8 C           1.6210    1.1380    0.0000 C.ar    1  LIG1        0.0030
      9 C           0.9080    0.4210    0.0000 C.ar    1  LIG1        0.0357
     10 C           1.1710   -0.5420    0.0000 C.ar    1  LIG1        0.0202
     11 C          -0.0630    0.6830    0.0000 C.3     1  LIG1        0.1618
     12 N          -0.5580    1.5460    0.0000 N.4     1  LIG1        0.3545
     13 C          -1.5580    1.5460    0.0000 C.3     1  LIG1        0.0829
     14 C          -2.1130    0.7210    0.0000 C.3     1  LIG1        0.0511
     15 C          -3.1210    0.3960    0.0000 C.3     1  LIG1        0.0057
     16 C          -3.6750    1.2080    0.0000 C.3     1  LIG1        0.0004
     17 C          -3.1080    2.0710    0.0000 C.3     1  LIG1        0.0057
     18 C          -2.1080    2.3580    0.0000 C.3     1  LIG1        0.0511
     19 C          -3.0080    2.5830    0.0000 C.3     1  LIG1        0.0057
     20 C          -3.5330    1.7710    0.0000 C.3     1  LIG1        0.0004
     21 C          -2.9960    1.0330    0.0000 C.3     1  LIG1        0.0057
     22 C          -4.6380    1.5080    0.0000 C.3     1  LIG1        0.0000
     23 C           2.1420   -2.5790    0.0000 C.3     1  LIG1        0.1351
     24 O           4.2920   -2.2420    0.0000 O.2     1  LIG1       -0.2463
     25 H          -0.0630    2.4080    0.0000 H       1  LIG1        0.2382
@<TRIPOS>BOND
     1     1     2   ar
     2     1     5   ar
     3     1    24    2
     4     2     3   ar
     5     2    23    1
     6     3     4   ar
     7     3    10   ar
     8     4     5   ar
     9     4     7   ar
    10     5     6    1
    11     7     8   ar
    12     8     9   ar
    13     9    10   ar
    14     9    11    1
    15    11    12    1
    16    12    13    1
    17    12    25    1
    18    13    14    1
    19    13    18    1
    20    14    15    1
    21    14    21    1
    22    15    16    1
    23    16    17    1
    24    16    22    1
    25    17    18    1
    26    18    19    1
    27    19    20    1
    28    20    21    1
    29    20    22    1
