@<TRIPOS>MOLECULE
36602_ChemDiv_C301-0803
 28 32 0 0 0
SMALL
GASTEIGER
Energy = 0

@<TRIPOS>ATOM
      1 N          -2.9630    0.6540    0.0000 N.ar    1  LIG1       -0.1573
      2 C          -2.1420    1.1290    0.0000 C.ar    1  LIG1        0.2994
      3 C          -1.3170    0.6540    0.0000 C.ar    1  LIG1        0.1447
      4 C          -1.3170   -0.2960    0.0000 C.ar    1  LIG1        0.0825
      5 N          -2.1420   -0.7630    0.0000 N.ar    1  LIG1       -0.2128
      6 C          -2.9540   -0.2960    0.0000 C.ar    1  LIG1        0.2569
      7 N          -3.8580   -0.5880    0.0000 N.ar    1  LIG1       -0.1861
      8 C          -4.4170    0.1710    0.0000 C.ar    1  LIG1        0.2227
      9 N          -3.8670    0.9380    0.0000 N.ar    1  LIG1       -0.1371
     10 C          -0.5000   -0.7710    0.0000 C.3     1  LIG1        0.0538
     11 N          -0.4960    1.1290    0.0000 N.am    1  LIG1       -0.1731
     12 C           0.3210    0.6540    0.0000 C.2     1  LIG1        0.2457
     13 C           1.1460    1.1210    0.0000 C.3     1  LIG1        0.0871
     14 C           1.9670    0.6460    0.0000 C.3     1  LIG1        0.0078
     15 C           1.9670   -0.3670    0.0000 C.3     1  LIG1       -0.0035
     16 C           2.8920   -0.8790    0.0000 C.3     1  LIG1       -0.0197
     17 C           3.4710   -0.2130    0.0000 C.3     1  LIG1       -0.0079
     18 C           3.5580    0.7830    0.0000 C.3     1  LIG1       -0.0197
     19 C           2.6170    1.3290    0.0000 C.3     1  LIG1       -0.0035
     20 C           4.1330   -0.2920    0.0000 C.3     1  LIG1       -0.0079
     21 C           3.4790   -0.9790    0.0000 C.3     1  LIG1       -0.0197
     22 C           2.5080   -0.4330    0.0000 C.3     1  LIG1       -0.0035
     23 C           3.4210   -2.0750    0.0000 C.3     1  LIG1       -0.0079
     24 O           0.3210   -0.2960    0.0000 O.2     1  LIG1       -0.2730
     25 O          -2.1420    2.0790    0.0000 O.3     1  LIG1       -0.2636
     26 H           2.2380   -1.5710    0.0000 H       1  LIG1        0.0318
     27 H           4.1880    1.5210    0.0000 H       1  LIG1        0.0318
     28 H           4.4130   -1.5670    0.0000 H       1  LIG1        0.0318
@<TRIPOS>BOND
     1     1     2   ar
     2     1     6   ar
     3     1     9   ar
     4     2     3   ar
     5     2    25    1
     6     3     4   ar
     7     3    11    1
     8     4     5   ar
     9     4    10    1
    10     5     6   ar
    11     6     7   ar
    12     7     8   ar
    13     8     9   ar
    14    11    12   am
    15    12    13    1
    16    12    24    2
    17    13    14    1
    18    14    15    1
    19    14    19    1
    20    14    22    1
    21    16    15    1
    22    16    17    1
    23    16    23    1
    24    16    26    1
    25    17    18    1
    26    18    19    1
    27    18    20    1
    28    18    27    1
    29    21    20    1
    30    21    22    1
    31    21    23    1
    32    21    28    1
