@<TRIPOS>MOLECULE
36608_ChemDiv_D272-0689
 25 29 0 0 0
SMALL
GASTEIGER
Energy = 0

@<TRIPOS>ATOM
      1 C           3.3380   -1.4420    0.0000 C.ar    1  LIG1        0.3316
      2 N           2.3460   -1.5920    0.0000 N.ar    1  LIG1       -0.2779
      3 C           1.8880   -0.7130    0.0000 C.ar    1  LIG1        0.0796
      4 C           2.5960   -0.0040    0.0000 C.ar    1  LIG1        0.0797
      5 N           3.4880   -0.4540    0.0000 N.ar    1  LIG1       -0.2779
      6 C           4.3830   -0.0040    0.0000 C.3     1  LIG1        0.1351
      7 C           2.3380    0.9670    0.0000 C.ar    1  LIG1        0.0187
      8 C           1.3630    1.2290    0.0000 C.ar    1  LIG1        0.0030
      9 C           0.6500    0.5080    0.0000 C.ar    1  LIG1        0.0357
     10 C           0.9130   -0.4540    0.0000 C.ar    1  LIG1        0.0202
     11 C          -0.3080    0.7670    0.0000 C.3     1  LIG1        0.1615
     12 N          -0.8080    1.6290    0.0000 N.4     1  LIG1        0.3506
     13 C          -1.8080    1.6290    0.0000 C.3     1  LIG1        0.0422
     14 C          -2.8080    1.9290    0.0000 C.3     1  LIG1        0.0511
     15 C          -3.7580    1.5210    0.0000 C.3     1  LIG1        0.0055
     16 C          -3.7330    0.5420    0.0000 C.3     1  LIG1        0.0004
     17 C          -2.7080    0.2670    0.0000 C.3     1  LIG1        0.0055
     18 C          -1.7960    0.6460    0.0000 C.3     1  LIG1        0.0511
     19 C          -3.2710    1.0040    0.0000 C.3     1  LIG1        0.0004
     20 C          -3.3250    1.9170    0.0000 C.3     1  LIG1        0.0055
     21 C          -2.4330    2.3080    0.0000 C.3     1  LIG1        0.0511
     22 C          -4.3880    2.3080    0.0000 C.3     1  LIG1        0.0004
     23 C           1.8880   -2.4880    0.0000 C.3     1  LIG1        0.1351
     24 O           4.0460   -2.1540    0.0000 O.2     1  LIG1       -0.2463
     25 H          -0.3080    2.4920    0.0000 H       1  LIG1        0.2379
@<TRIPOS>BOND
     1     1     2   ar
     2     1     5   ar
     3     1    24    2
     4     2     3   ar
     5     2    23    1
     6     3     4   ar
     7     3    10   ar
     8     4     5   ar
     9     4     7   ar
    10     5     6    1
    11     7     8   ar
    12     8     9   ar
    13     9    10   ar
    14     9    11    1
    15    11    12    1
    16    12    13    1
    17    12    25    1
    18    13    14    1
    19    13    18    1
    20    13    21    1
    21    14    15    1
    22    15    16    1
    23    15    22    1
    24    16    17    1
    25    17    18    1
    26    17    19    1
    27    19    20    1
    28    20    21    1
    29    20    22    1
