@<TRIPOS>MOLECULE
36612_ChemDiv_C305-0586
 30 33 0 0 0
SMALL
GASTEIGER
Energy = 0

@<TRIPOS>ATOM
      1 C          -2.8750    0.2210    0.0000 C.2     1  LIG1        0.3079
      2 N          -2.5580    1.1710    0.0000 N.am    1  LIG1       -0.2537
      3 C          -1.6080    1.4830    0.0000 C.3     1  LIG1        0.1805
      4 C          -1.4040    2.4500    0.0000 C.2     1  LIG1        0.2460
      5 N          -0.4580    2.7630    0.0000 N.am    1  LIG1       -0.2781
      6 C           0.2830    2.1040    0.0000 C.3     1  LIG1        0.0935
      7 C           1.2330    2.4040    0.0000 C.3     1  LIG1        0.0219
      8 C           1.4500    3.3670    0.0000 C.3     1  LIG1        0.0078
      9 C           2.4170    3.6830    0.0000 C.3     1  LIG1        0.0265
     10 C           3.1460    3.0170    0.0000 C.ar    1  LIG1       -0.0222
     11 C           2.9330    2.0330    0.0000 C.ar    1  LIG1       -0.0043
     12 C           3.6710    1.3580    0.0000 C.ar    1  LIG1       -0.0003
     13 C           4.6420    1.6710    0.0000 C.ar    1  LIG1       -0.0000
     14 C           4.8380    2.6630    0.0000 C.ar    1  LIG1       -0.0003
     15 C           4.1000    3.3330    0.0000 C.ar    1  LIG1       -0.0043
     16 C           0.7080    4.0290    0.0000 C.3     1  LIG1        0.0219
     17 C          -0.2460    3.7210    0.0000 C.3     1  LIG1        0.0935
     18 O          -2.1420    3.1250    0.0000 O.2     1  LIG1       -0.2730
     19 C          -3.3750    1.7580    0.0000 C.3     1  LIG1        0.1169
     20 C          -4.1710    1.1710    0.0000 C.3     1  LIG1        0.1168
     21 N          -3.8710    0.2210    0.0000 N.am    1  LIG1       -0.2582
     22 C          -4.4630   -0.5880    0.0000 C.3     1  LIG1        0.1218
     23 C          -4.0540   -1.4920    0.0000 C.ar    1  LIG1       -0.0014
     24 C          -4.6460   -2.3080    0.0000 C.ar    1  LIG1        0.0088
     25 C          -4.2500   -3.2290    0.0000 C.ar    1  LIG1        0.0574
     26 CL         -4.8420   -4.0290    0.0000 Cl      1  LIG1       -0.0823
     27 C          -3.2420   -3.3420    0.0000 C.ar    1  LIG1        0.0114
     28 C          -2.6540   -2.5290    0.0000 C.ar    1  LIG1        0.0006
     29 C          -3.0540   -1.6130    0.0000 C.ar    1  LIG1       -0.0026
     30 O          -2.2830   -0.5880    0.0000 O.2     1  LIG1       -0.2523
@<TRIPOS>BOND
     1     1     2   am
     2     1    21   am
     3     1    30    2
     4     2     3    1
     5     2    19    1
     6     3     4    1
     7     4     5   am
     8     4    18    2
     9     5     6    1
    10     5    17    1
    11     6     7    1
    12     7     8    1
    13     8     9    1
    14     8    16    1
    15     9    10    1
    16    10    11   ar
    17    10    15   ar
    18    11    12   ar
    19    12    13   ar
    20    13    14   ar
    21    14    15   ar
    22    16    17    1
    23    19    20    1
    24    20    21    1
    25    21    22    1
    26    22    23    1
    27    23    24   ar
    28    23    29   ar
    29    24    25   ar
    30    25    26    1
    31    25    27   ar
    32    27    28   ar
    33    28    29   ar
