@<TRIPOS>MOLECULE
36611_ChemDiv_C260-1540
 36 39 0 0 0
SMALL
GASTEIGER
Energy = 0

@<TRIPOS>ATOM
      1 N          -0.0170    0.5000    0.0000 N.ar    1  LIG1       -0.2482
      2 C          -0.0170   -0.4960    0.0000 C.ar    1  LIG1        0.3342
      3 N          -0.8830   -1.0000    0.0000 N.ar    1  LIG1       -0.2720
      4 C          -1.7460   -0.4960    0.0000 C.ar    1  LIG1        0.0689
      5 C          -1.7460    0.5000    0.0000 C.ar    1  LIG1        0.0722
      6 C          -0.8830    1.0000    0.0000 C.ar    1  LIG1        0.2656
      7 O          -0.8830    1.9960    0.0000 O.2     1  LIG1       -0.2668
      8 C          -2.6080    1.0000    0.0000 C.ar    1  LIG1        0.0062
      9 C          -3.4790    0.4920    0.0000 C.ar    1  LIG1        0.0003
     10 C          -3.4790   -0.4960    0.0000 C.ar    1  LIG1        0.0015
     11 C          -2.6080   -1.0000    0.0000 C.ar    1  LIG1        0.0175
     12 C          -0.8830   -2.0080    0.0000 C.3     1  LIG1        0.1974
     13 C          -0.0170   -2.5040    0.0000 C.2     1  LIG1        0.2689
     14 N          -0.0040   -3.5040    0.0000 N.am    1  LIG1       -0.1745
     15 C           0.8630   -3.9960    0.0000 C.ar    1  LIG1        0.1081
     16 C           1.7250   -3.4920    0.0000 C.ar    1  LIG1        0.0311
     17 C           2.6000   -3.9790    0.0000 C.ar    1  LIG1        0.0592
     18 C           2.6040   -4.9920    0.0000 C.ar    1  LIG1        0.0146
     19 C           1.7380   -5.4880    0.0000 C.ar    1  LIG1        0.0391
     20 C           0.8710   -4.9920    0.0000 C.ar    1  LIG1        0.1539
     21 O           0.0000   -5.5040    0.0000 O.3     1  LIG1       -0.4701
     22 C           0.0000   -6.5040    0.0000 C.3     1  LIG1        0.2525
     23 CL          3.4750   -3.4830    0.0000 Cl      1  LIG1       -0.0822
     24 O           0.8460   -2.0080    0.0000 O.2     1  LIG1       -0.2709
     25 O           0.8580   -1.0130    0.0000 O.2     1  LIG1       -0.2462
     26 C           0.8580    1.0000    0.0000 C.3     1  LIG1        0.1232
     27 C           0.8630    1.9960    0.0000 C.3     1  LIG1        0.1115
     28 C           1.7250    2.4880    0.0000 C.2     1  LIG1        0.2438
     29 N           1.7330    3.4920    0.0000 N.am    1  LIG1       -0.1971
     30 C           2.6040    3.9830    0.0000 C.3     1  LIG1        0.1791
     31 C           2.6130    4.9790    0.0000 C.ar    1  LIG1        0.1449
     32 O           3.4170    5.5540    0.0000 O.2     1  LIG1       -0.4529
     33 C           3.1170    6.5040    0.0000 C.ar    1  LIG1        0.1792
     34 C           2.1210    6.5040    0.0000 C.ar    1  LIG1        0.0435
     35 C           1.8000    5.5670    0.0000 C.ar    1  LIG1        0.0380
     36 O           2.5880    1.9880    0.0000 O.2     1  LIG1       -0.2733
@<TRIPOS>BOND
     1     1     2   ar
     2     1     6   ar
     3     1    26    1
     4     2     3   ar
     5     2    25    2
     6     3     4   ar
     7     3    12    1
     8     4     5   ar
     9     4    11   ar
    10     5     6   ar
    11     5     8   ar
    12     6     7    2
    13     8     9   ar
    14     9    10   ar
    15    10    11   ar
    16    12    13    1
    17    13    14   am
    18    13    24    2
    19    14    15    1
    20    15    16   ar
    21    15    20   ar
    22    16    17   ar
    23    17    18   ar
    24    17    23    1
    25    18    19   ar
    26    19    20   ar
    27    20    21    1
    28    21    22    1
    29    26    27    1
    30    27    28    1
    31    28    29   am
    32    28    36    2
    33    29    30    1
    34    30    31    1
    35    31    32   ar
    36    31    35   ar
    37    32    33   ar
    38    33    34   ar
    39    34    35   ar
