@<TRIPOS>MOLECULE
36613_ChemDiv_C260-1761
 37 40 0 0 0
SMALL
GASTEIGER
Energy = 0

@<TRIPOS>ATOM
      1 N          -0.0080   -0.7920    0.0000 N.ar    1  LIG1       -0.2482
      2 C          -0.0080   -1.7920    0.0000 C.ar    1  LIG1        0.3342
      3 N          -0.8790   -2.2920    0.0000 N.ar    1  LIG1       -0.2721
      4 C          -1.7460   -1.7920    0.0000 C.ar    1  LIG1        0.0689
      5 C          -1.7460   -0.7920    0.0000 C.ar    1  LIG1        0.0722
      6 C          -0.8790   -0.2920    0.0000 C.ar    1  LIG1        0.2656
      7 O          -0.8790    0.7080    0.0000 O.2     1  LIG1       -0.2668
      8 C          -2.6040   -0.2920    0.0000 C.ar    1  LIG1        0.0062
      9 C          -3.4710   -0.7920    0.0000 C.ar    1  LIG1        0.0003
     10 C          -3.4710   -1.7920    0.0000 C.ar    1  LIG1        0.0015
     11 C          -2.6040   -2.2920    0.0000 C.ar    1  LIG1        0.0175
     12 C          -0.8790   -3.2880    0.0000 C.3     1  LIG1        0.1955
     13 C          -0.0170   -3.7880    0.0000 C.2     1  LIG1        0.2489
     14 N          -0.0170   -4.7920    0.0000 N.am    1  LIG1       -0.2780
     15 C           0.8540   -5.2920    0.0000 C.3     1  LIG1        0.0935
     16 C           0.8540   -6.2920    0.0000 C.3     1  LIG1        0.0215
     17 C           1.7210   -6.7920    0.0000 C.3     1  LIG1        0.0018
     18 C          -0.8790   -5.2920    0.0000 C.3     1  LIG1        0.0935
     19 C          -1.7460   -4.7920    0.0000 C.3     1  LIG1        0.0215
     20 C          -2.6130   -5.2920    0.0000 C.3     1  LIG1        0.0018
     21 O           0.8460   -3.2880    0.0000 O.2     1  LIG1       -0.2728
     22 O           0.8580   -2.2920    0.0000 O.2     1  LIG1       -0.2462
     23 C           0.8580   -0.2920    0.0000 C.3     1  LIG1        0.1232
     24 C           0.8710    0.7080    0.0000 C.3     1  LIG1        0.1115
     25 C           1.7330    1.2080    0.0000 C.2     1  LIG1        0.2437
     26 N           1.7330    2.2170    0.0000 N.am    1  LIG1       -0.2005
     27 C           2.5960    2.7170    0.0000 C.3     1  LIG1        0.1416
     28 C           2.5960    3.7170    0.0000 C.ar    1  LIG1        0.0027
     29 C           1.7330    4.2130    0.0000 C.ar    1  LIG1        0.0376
     30 C           1.7330    5.2170    0.0000 C.ar    1  LIG1        0.1762
     31 C           2.5960    5.7170    0.0000 C.ar    1  LIG1        0.1764
     32 O           2.3880    6.6920    0.0000 O.3     1  LIG1       -0.4346
     33 C           1.3920    6.7920    0.0000 C.3     1  LIG1        0.4294
     34 O           0.9790    5.8920    0.0000 O.3     1  LIG1       -0.4346
     35 C           3.4670    5.2170    0.0000 C.ar    1  LIG1        0.0399
     36 C           3.4670    4.2130    0.0000 C.ar    1  LIG1        0.0008
     37 O           2.6000    0.7080    0.0000 O.2     1  LIG1       -0.2733
@<TRIPOS>BOND
     1     1     2   ar
     2     1     6   ar
     3     1    23    1
     4     2     3   ar
     5     2    22    2
     6     3     4   ar
     7     3    12    1
     8     4     5   ar
     9     4    11   ar
    10     5     6   ar
    11     5     8   ar
    12     6     7    2
    13     8     9   ar
    14     9    10   ar
    15    10    11   ar
    16    12    13    1
    17    13    14   am
    18    13    21    2
    19    14    15    1
    20    14    18    1
    21    15    16    1
    22    16    17    1
    23    18    19    1
    24    19    20    1
    25    23    24    1
    26    24    25    1
    27    25    26   am
    28    25    37    2
    29    26    27    1
    30    27    28    1
    31    28    29   ar
    32    28    36   ar
    33    29    30   ar
    34    30    31   ar
    35    30    34    1
    36    31    32    1
    37    31    35   ar
    38    32    33    1
    39    33    34    1
    40    35    36   ar
