@<TRIPOS>MOLECULE
36617_ChemDiv_K979-0334
 34 38 0 0 0
SMALL
GASTEIGER
Energy = 0

@<TRIPOS>ATOM
      1 N           3.7830    1.2630    0.0000 N.ar    1  LIG1       -0.2690
      2 C           4.6580    1.7670    0.0000 C.ar    1  LIG1        0.2638
      3 C           4.6540    2.7670    0.0000 C.ar    1  LIG1        0.0739
      4 C           3.7920    3.2630    0.0000 C.ar    1  LIG1        0.0876
      5 N           2.9250    2.7670    0.0000 N.ar    1  LIG1       -0.2252
      6 C           2.9250    1.7580    0.0000 C.ar    1  LIG1        0.1812
      7 C           3.7830    4.2500    0.0000 C.ar    1  LIG1        0.0193
      8 C           4.6540    4.7580    0.0000 C.ar    1  LIG1        0.0015
      9 C           5.5170    4.2630    0.0000 C.ar    1  LIG1        0.0003
     10 C           5.5170    3.2630    0.0000 C.ar    1  LIG1        0.0063
     11 O           5.5210    1.2670    0.0000 O.2     1  LIG1       -0.2669
     12 C           3.7920    0.2460    0.0000 C.3     1  LIG1        0.1971
     13 C           2.9290   -0.2540    0.0000 C.2     1  LIG1        0.2650
     14 N           2.9330   -1.2540    0.0000 N.am    1  LIG1       -0.1939
     15 C           2.0670   -1.7540    0.0000 C.3     1  LIG1        0.1999
     16 C           2.0670   -2.7500    0.0000 C.2     1  LIG1        0.2481
     17 N           1.1960   -3.2500    0.0000 N.am    1  LIG1       -0.2666
     18 C           0.3460   -2.7580    0.0000 C.3     1  LIG1        0.1565
     19 C          -0.5130   -3.2500    0.0000 C.3     1  LIG1        0.1610
     20 N          -0.5130   -4.2500    0.0000 N.4     1  LIG1        0.3834
     21 C          -1.3880   -4.7540    0.0000 C.3     1  LIG1        0.1664
     22 C          -2.2540   -4.2500    0.0000 C.ar    1  LIG1        0.0376
     23 C          -3.1170   -4.7540    0.0000 C.ar    1  LIG1        0.0416
     24 C          -3.9830   -4.2500    0.0000 C.ar    1  LIG1        0.1763
     25 C          -3.9750   -3.2500    0.0000 C.ar    1  LIG1        0.1764
     26 O          -4.9330   -2.9330    0.0000 O.3     1  LIG1       -0.4346
     27 C          -5.5250   -3.7460    0.0000 C.3     1  LIG1        0.4294
     28 O          -4.9420   -4.5540    0.0000 O.3     1  LIG1       -0.4346
     29 C          -3.1080   -2.7500    0.0000 C.ar    1  LIG1        0.0401
     30 C          -2.2460   -3.2500    0.0000 C.ar    1  LIG1        0.0048
     31 C           0.3460   -4.7580    0.0000 C.3     1  LIG1        0.1610
     32 C           1.1960   -4.2500    0.0000 C.3     1  LIG1        0.1565
     33 O           2.9330   -3.2500    0.0000 O.2     1  LIG1       -0.2729
     34 O           2.0630    0.2380    0.0000 O.2     1  LIG1       -0.2712
@<TRIPOS>BOND
     1     1     2   ar
     2     1     6   ar
     3     1    12    1
     4     2     3   ar
     5     2    11    2
     6     3     4   ar
     7     3    10   ar
     8     4     5   ar
     9     4     7   ar
    10     5     6   ar
    11     7     8   ar
    12     8     9   ar
    13     9    10   ar
    14    12    13    1
    15    13    14   am
    16    13    34    2
    17    14    15    1
    18    15    16    1
    19    16    17   am
    20    16    33    2
    21    17    18    1
    22    17    32    1
    23    18    19    1
    24    19    20    1
    25    20    21    1
    26    20    31    1
    27    21    22    1
    28    22    23   ar
    29    22    30   ar
    30    23    24   ar
    31    24    25   ar
    32    24    28    1
    33    25    26    1
    34    25    29   ar
    35    26    27    1
    36    27    28    1
    37    29    30   ar
    38    31    32    1
