@<TRIPOS>MOLECULE
36615_ChemDiv_C260-1789
 39 42 0 0 0
SMALL
GASTEIGER
Energy = 0

@<TRIPOS>ATOM
      1 N          -0.4460   -1.5210    0.0000 N.ar    1  LIG1       -0.2487
      2 C          -0.4460   -2.5210    0.0000 C.ar    1  LIG1        0.3341
      3 N          -1.3080   -3.0210    0.0000 N.ar    1  LIG1       -0.2721
      4 C          -2.1750   -2.5210    0.0000 C.ar    1  LIG1        0.0689
      5 C          -2.1750   -1.5210    0.0000 C.ar    1  LIG1        0.0722
      6 C          -1.3080   -1.0250    0.0000 C.ar    1  LIG1        0.2656
      7 O          -1.3080   -0.0250    0.0000 O.2     1  LIG1       -0.2668
      8 C          -3.0380   -1.0250    0.0000 C.ar    1  LIG1        0.0062
      9 C          -3.9040   -1.5210    0.0000 C.ar    1  LIG1        0.0003
     10 C          -3.9040   -2.5210    0.0000 C.ar    1  LIG1        0.0015
     11 C          -3.0380   -3.0210    0.0000 C.ar    1  LIG1        0.0175
     12 C          -1.3080   -4.0170    0.0000 C.3     1  LIG1        0.1955
     13 C          -0.4540   -4.5210    0.0000 C.2     1  LIG1        0.2489
     14 N          -0.4630   -5.5380    0.0000 N.am    1  LIG1       -0.2780
     15 C           0.4000   -6.0330    0.0000 C.3     1  LIG1        0.0935
     16 C           0.3830   -7.0330    0.0000 C.3     1  LIG1        0.0215
     17 C           1.2500   -7.5500    0.0000 C.3     1  LIG1        0.0018
     18 C          -1.3290   -6.0210    0.0000 C.3     1  LIG1        0.0935
     19 C          -2.1960   -5.5210    0.0000 C.3     1  LIG1        0.0215
     20 C          -3.0670   -6.0170    0.0000 C.3     1  LIG1        0.0018
     21 O           0.4170   -4.0370    0.0000 O.2     1  LIG1       -0.2728
     22 O           0.4330   -3.0290    0.0000 O.2     1  LIG1       -0.2462
     23 C           0.4330   -1.0250    0.0000 C.3     1  LIG1        0.1136
     24 C           0.4330   -0.0250    0.0000 C.3     1  LIG1        0.0252
     25 C           1.3040    0.4790    0.0000 C.3     1  LIG1        0.0116
     26 C           1.3080    1.4670    0.0000 C.3     1  LIG1        0.0869
     27 C           2.1750    1.9670    0.0000 C.2     1  LIG1        0.2417
     28 N           2.1750    2.9790    0.0000 N.am    1  LIG1       -0.2005
     29 C           3.0380    3.4750    0.0000 C.3     1  LIG1        0.1416
     30 C           3.0380    4.4710    0.0000 C.ar    1  LIG1        0.0027
     31 C           2.1750    4.9710    0.0000 C.ar    1  LIG1        0.0376
     32 C           2.1750    5.9750    0.0000 C.ar    1  LIG1        0.1762
     33 C           3.0380    6.4750    0.0000 C.ar    1  LIG1        0.1764
     34 O           2.8250    7.4540    0.0000 O.3     1  LIG1       -0.4346
     35 C           1.8250    7.5500    0.0000 C.3     1  LIG1        0.4294
     36 O           1.4250    6.6540    0.0000 O.3     1  LIG1       -0.4346
     37 C           3.9000    5.9750    0.0000 C.ar    1  LIG1        0.0399
     38 C           3.9000    4.9710    0.0000 C.ar    1  LIG1        0.0008
     39 O           3.0380    1.4670    0.0000 O.2     1  LIG1       -0.2733
@<TRIPOS>BOND
     1     1     2   ar
     2     1     6   ar
     3     1    23    1
     4     2     3   ar
     5     2    22    2
     6     3     4   ar
     7     3    12    1
     8     4     5   ar
     9     4    11   ar
    10     5     6   ar
    11     5     8   ar
    12     6     7    2
    13     8     9   ar
    14     9    10   ar
    15    10    11   ar
    16    12    13    1
    17    13    14   am
    18    13    21    2
    19    14    15    1
    20    14    18    1
    21    15    16    1
    22    16    17    1
    23    18    19    1
    24    19    20    1
    25    23    24    1
    26    24    25    1
    27    25    26    1
    28    26    27    1
    29    27    28   am
    30    27    39    2
    31    28    29    1
    32    29    30    1
    33    30    31   ar
    34    30    38   ar
    35    31    32   ar
    36    32    33   ar
    37    32    36    1
    38    33    34    1
    39    33    37   ar
    40    34    35    1
    41    35    36    1
    42    37    38   ar
