@<TRIPOS>MOLECULE
36619_ChemDiv_C260-1264
 43 47 0 0 0
SMALL
GASTEIGER
Energy = 0

@<TRIPOS>ATOM
      1 N          -0.4460   -2.7500    0.0000 N.ar    1  LIG1       -0.2445
      2 C          -0.4460   -3.7500    0.0000 C.ar    1  LIG1        0.3344
      3 N          -1.3080   -4.2460    0.0000 N.ar    1  LIG1       -0.2721
      4 C          -2.1710   -3.7500    0.0000 C.ar    1  LIG1        0.0689
      5 C          -2.1710   -2.7500    0.0000 C.ar    1  LIG1        0.0722
      6 C          -1.3080   -2.2500    0.0000 C.ar    1  LIG1        0.2658
      7 O          -1.3080   -1.2540    0.0000 O.2     1  LIG1       -0.2668
      8 C          -3.0330   -2.2500    0.0000 C.ar    1  LIG1        0.0062
      9 C          -3.9000   -2.7630    0.0000 C.ar    1  LIG1        0.0003
     10 C          -3.9000   -3.7500    0.0000 C.ar    1  LIG1        0.0015
     11 C          -3.0330   -4.2460    0.0000 C.ar    1  LIG1        0.0175
     12 C          -1.3130   -5.2540    0.0000 C.3     1  LIG1        0.1955
     13 C          -0.4330   -5.7330    0.0000 C.2     1  LIG1        0.2489
     14 N          -0.4040   -6.7290    0.0000 N.am    1  LIG1       -0.2780
     15 C          -1.2630   -7.2580    0.0000 C.3     1  LIG1        0.0935
     16 C          -2.1420   -6.7750    0.0000 C.3     1  LIG1        0.0233
     17 C           0.4750   -7.2130    0.0000 C.3     1  LIG1        0.0935
     18 C           0.4920   -8.2250    0.0000 C.3     1  LIG1        0.0233
     19 O           0.4290   -5.2130    0.0000 O.2     1  LIG1       -0.2728
     20 O           0.4290   -4.2630    0.0000 O.2     1  LIG1       -0.2462
     21 C           0.4290   -2.2500    0.0000 C.3     1  LIG1        0.1403
     22 C           0.4290   -1.2540    0.0000 C.ar    1  LIG1        0.0006
     23 C           1.3040   -0.7540    0.0000 C.ar    1  LIG1       -0.0022
     24 C           1.3040    0.2420    0.0000 C.ar    1  LIG1        0.0043
     25 C           0.4290    0.7420    0.0000 C.ar    1  LIG1        0.0550
     26 C           0.4290    1.7420    0.0000 C.2     1  LIG1        0.2647
     27 N           1.2920    2.2380    0.0000 N.am    1  LIG1       -0.2030
     28 C           1.2920    3.2460    0.0000 C.3     1  LIG1        0.1075
     29 C           0.4290    3.7380    0.0000 C.3     1  LIG1        0.0845
     30 C           0.4290    4.7380    0.0000 C.3     1  LIG1        0.1408
     31 N           1.3040    5.2380    0.0000 N.4     1  LIG1        0.3808
     32 C           1.3080    6.2330    0.0000 C.3     1  LIG1        0.1662
     33 C           2.1710    6.7330    0.0000 C.ar    1  LIG1        0.0344
     34 C           3.0330    6.2290    0.0000 C.ar    1  LIG1        0.0014
     35 C           3.8960    6.7250    0.0000 C.ar    1  LIG1       -0.0001
     36 C           3.8960    7.7250    0.0000 C.ar    1  LIG1       -0.0000
     37 C           3.0330    8.2250    0.0000 C.ar    1  LIG1       -0.0001
     38 C           2.1710    7.7250    0.0000 C.ar    1  LIG1        0.0014
     39 C           2.1710    4.7290    0.0000 C.3     1  LIG1        0.1408
     40 C           2.1710    3.7420    0.0000 C.3     1  LIG1        0.0845
     41 O          -0.4330    2.2380    0.0000 O.2     1  LIG1       -0.2684
     42 C          -0.4330    0.2420    0.0000 C.ar    1  LIG1        0.0043
     43 C          -0.4330   -0.7540    0.0000 C.ar    1  LIG1       -0.0022
@<TRIPOS>BOND
     1     1     2   ar
     2     1     6   ar
     3     1    21    1
     4     2     3   ar
     5     2    20    2
     6     3     4   ar
     7     3    12    1
     8     4     5   ar
     9     4    11   ar
    10     5     6   ar
    11     5     8   ar
    12     6     7    2
    13     8     9   ar
    14     9    10   ar
    15    10    11   ar
    16    12    13    1
    17    13    14   am
    18    13    19    2
    19    14    15    1
    20    14    17    1
    21    15    16    1
    22    17    18    1
    23    21    22    1
    24    22    23   ar
    25    22    43   ar
    26    23    24   ar
    27    24    25   ar
    28    25    26    1
    29    25    42   ar
    30    26    27   am
    31    26    41    2
    32    27    28    1
    33    28    29    1
    34    28    40    1
    35    29    30    1
    36    30    31    1
    37    31    32    1
    38    31    39    1
    39    32    33    1
    40    33    34   ar
    41    33    38   ar
    42    34    35   ar
    43    35    36   ar
    44    36    37   ar
    45    37    38   ar
    46    39    40    1
    47    42    43   ar
