@<TRIPOS>MOLECULE
36622_ChemDiv_K788-6090
 26 28 0 0 0
SMALL
GASTEIGER
Energy = 0

@<TRIPOS>ATOM
      1 C          -0.7960   -0.6960    0.0000 C.2     1  LIG1        0.3079
      2 N          -0.1250    0.0460    0.0000 N.am    1  LIG1       -0.2537
      3 C           0.8710   -0.0630    0.0000 C.3     1  LIG1        0.1805
      4 C           1.4500    0.7460    0.0000 C.2     1  LIG1        0.2460
      5 N           2.4500    0.6420    0.0000 N.am    1  LIG1       -0.2781
      6 C           3.0380    1.4540    0.0000 C.3     1  LIG1        0.0939
      7 C           4.0290    1.3380    0.0000 C.3     1  LIG1        0.0307
      8 C           4.4380    0.4250    0.0000 C.3     1  LIG1        0.0833
      9 C           5.4380    0.3170    0.0000 C.2     1  LIG1        0.2604
     10 O           6.0250    1.1250    0.0000 O.2     1  LIG1       -0.2717
     11 N           5.8460   -0.5920    0.0000 N.am    1  LIG1       -0.0878
     12 C           3.8460   -0.3790    0.0000 C.3     1  LIG1        0.0307
     13 C           2.8540   -0.2750    0.0000 C.3     1  LIG1        0.0939
     14 O           1.0540    1.6670    0.0000 O.2     1  LIG1       -0.2730
     15 C          -0.6290    0.9080    0.0000 C.3     1  LIG1        0.1169
     16 C          -1.6080    0.7000    0.0000 C.3     1  LIG1        0.1168
     17 N          -1.7040   -0.2880    0.0000 N.am    1  LIG1       -0.2582
     18 C          -2.5670   -0.8000    0.0000 C.3     1  LIG1        0.1217
     19 C          -3.4420   -0.3000    0.0000 C.ar    1  LIG1       -0.0023
     20 C          -3.4420    0.7130    0.0000 C.ar    1  LIG1       -0.0029
     21 C          -4.3040    1.2130    0.0000 C.ar    1  LIG1       -0.0045
     22 C          -5.1670    0.7000    0.0000 C.ar    1  LIG1       -0.0219
     23 C          -5.1670   -0.3000    0.0000 C.ar    1  LIG1       -0.0045
     24 C          -4.3040   -0.8000    0.0000 C.ar    1  LIG1       -0.0029
     25 C          -6.0250    1.2000    0.0000 C.3     1  LIG1        0.0310
     26 O          -0.5380   -1.6630    0.0000 O.2     1  LIG1       -0.2523
@<TRIPOS>BOND
     1     1     2   am
     2     1    17   am
     3     1    26    2
     4     2     3    1
     5     2    15    1
     6     3     4    1
     7     4     5   am
     8     4    14    2
     9     5     6    1
    10     5    13    1
    11     6     7    1
    12     7     8    1
    13     8     9    1
    14     8    12    1
    15     9    10    2
    16     9    11   am
    17    12    13    1
    18    15    16    1
    19    16    17    1
    20    17    18    1
    21    18    19    1
    22    19    20   ar
    23    19    24   ar
    24    20    21   ar
    25    21    22   ar
    26    22    23   ar
    27    22    25    1
    28    23    24   ar
