@<TRIPOS>MOLECULE
36623_ChemDiv_C260-1393
 40 44 0 0 0
SMALL
GASTEIGER
Energy = 0

@<TRIPOS>ATOM
      1 N          -0.4330    0.7170    0.0000 N.ar    1  LIG1       -0.2487
      2 C          -0.4330   -0.2790    0.0000 C.ar    1  LIG1        0.3341
      3 N          -1.3080   -0.7790    0.0000 N.ar    1  LIG1       -0.2721
      4 C          -2.1710   -0.2790    0.0000 C.ar    1  LIG1        0.0689
      5 C          -2.1710    0.7170    0.0000 C.ar    1  LIG1        0.0722
      6 C          -1.3080    1.2210    0.0000 C.ar    1  LIG1        0.2656
      7 O          -1.3080    2.2170    0.0000 O.2     1  LIG1       -0.2668
      8 C          -3.0290    1.2210    0.0000 C.ar    1  LIG1        0.0062
      9 C          -3.8960    0.7080    0.0000 C.ar    1  LIG1        0.0003
     10 C          -3.8960   -0.2790    0.0000 C.ar    1  LIG1        0.0015
     11 C          -3.0290   -0.7790    0.0000 C.ar    1  LIG1        0.0175
     12 C          -1.3080   -1.7790    0.0000 C.3     1  LIG1        0.1955
     13 C          -0.4580   -2.2790    0.0000 C.2     1  LIG1        0.2490
     14 N          -0.4500   -3.2920    0.0000 N.am    1  LIG1       -0.2745
     15 C          -1.3210   -3.8080    0.0000 C.3     1  LIG1        0.1149
     16 C          -1.3130   -4.8040    0.0000 C.3     1  LIG1        0.1123
     17 N          -0.4420   -5.3000    0.0000 N.pl3   1  LIG1       -0.3041
     18 C           0.4170   -4.7920    0.0000 C.3     1  LIG1        0.1123
     19 C           0.4130   -3.8080    0.0000 C.3     1  LIG1        0.1149
     20 C          -0.4330   -6.2880    0.0000 C.ar    1  LIG1        0.0479
     21 C           0.4330   -6.7880    0.0000 C.ar    1  LIG1        0.0145
     22 C           0.4460   -7.7880    0.0000 C.ar    1  LIG1        0.0013
     23 C          -0.4170   -8.3000    0.0000 C.ar    1  LIG1        0.0001
     24 C          -1.2790   -7.8170    0.0000 C.ar    1  LIG1        0.0013
     25 C          -1.2960   -6.7880    0.0000 C.ar    1  LIG1        0.0145
     26 O           0.4250   -1.7920    0.0000 O.2     1  LIG1       -0.2728
     27 O           0.4330   -0.7920    0.0000 O.2     1  LIG1       -0.2462
     28 C           0.4330    1.2210    0.0000 C.3     1  LIG1        0.1136
     29 C           0.4420    2.2170    0.0000 C.3     1  LIG1        0.0252
     30 C           1.3040    2.7170    0.0000 C.3     1  LIG1        0.0116
     31 C           1.3040    3.7170    0.0000 C.3     1  LIG1        0.0869
     32 C           2.1710    4.2080    0.0000 C.2     1  LIG1        0.2418
     33 N           2.1710    5.2130    0.0000 N.am    1  LIG1       -0.1972
     34 C           3.0290    5.7170    0.0000 C.3     1  LIG1        0.1791
     35 C           3.0290    6.7250    0.0000 C.ar    1  LIG1        0.1449
     36 O           3.8920    7.2210    0.0000 O.2     1  LIG1       -0.4529
     37 C           3.6790    8.1960    0.0000 C.ar    1  LIG1        0.1792
     38 C           2.6880    8.3000    0.0000 C.ar    1  LIG1        0.0435
     39 C           2.2790    7.3960    0.0000 C.ar    1  LIG1        0.0380
     40 O           3.0330    3.7170    0.0000 O.2     1  LIG1       -0.2733
@<TRIPOS>BOND
     1     1     2   ar
     2     1     6   ar
     3     1    28    1
     4     2     3   ar
     5     2    27    2
     6     3     4   ar
     7     3    12    1
     8     4     5   ar
     9     4    11   ar
    10     5     6   ar
    11     5     8   ar
    12     6     7    2
    13     8     9   ar
    14     9    10   ar
    15    10    11   ar
    16    12    13    1
    17    13    14   am
    18    13    26    2
    19    14    15    1
    20    14    19    1
    21    15    16    1
    22    16    17    1
    23    17    18    1
    24    17    20    1
    25    18    19    1
    26    20    21   ar
    27    20    25   ar
    28    21    22   ar
    29    22    23   ar
    30    23    24   ar
    31    24    25   ar
    32    28    29    1
    33    29    30    1
    34    30    31    1
    35    31    32    1
    36    32    33   am
    37    32    40    2
    38    33    34    1
    39    34    35    1
    40    35    36   ar
    41    35    39   ar
    42    36    37   ar
    43    37    38   ar
    44    38    39   ar
