@<TRIPOS>MOLECULE
36626_ChemDiv_D272-0692
 27 31 0 0 0
SMALL
GASTEIGER
Energy = 0

@<TRIPOS>ATOM
      1 C           3.4380   -1.5000    0.0000 C.ar    1  LIG1        0.3316
      2 N           2.4460   -1.6540    0.0000 N.ar    1  LIG1       -0.2779
      3 C           1.9960   -0.7630    0.0000 C.ar    1  LIG1        0.0796
      4 C           2.7000   -0.0540    0.0000 C.ar    1  LIG1        0.0797
      5 N           3.5960   -0.5040    0.0000 N.ar    1  LIG1       -0.2779
      6 C           4.4880   -0.0540    0.0000 C.3     1  LIG1        0.1351
      7 C           2.4460    0.9130    0.0000 C.ar    1  LIG1        0.0187
      8 C           1.4750    1.1710    0.0000 C.ar    1  LIG1        0.0030
      9 C           0.7710    0.4580    0.0000 C.ar    1  LIG1        0.0357
     10 C           1.0250   -0.5040    0.0000 C.ar    1  LIG1        0.0202
     11 C          -0.2040    0.7210    0.0000 C.3     1  LIG1        0.1615
     12 N          -0.7040    1.5830    0.0000 N.4     1  LIG1        0.3506
     13 C          -1.6960    1.5830    0.0000 C.3     1  LIG1        0.0422
     14 C          -2.7040    1.8830    0.0000 C.3     1  LIG1        0.0511
     15 C          -3.6460    1.4580    0.0000 C.3     1  LIG1        0.0053
     16 C          -4.2830    2.2460    0.0000 C.3     1  LIG1        0.0004
     17 C          -3.2170    1.8710    0.0000 C.3     1  LIG1        0.0053
     18 C          -2.3290    2.2580    0.0000 C.3     1  LIG1        0.0511
     19 C          -3.1670    0.9460    0.0000 C.3     1  LIG1        0.0004
     20 C          -2.5920    0.2080    0.0000 C.3     1  LIG1        0.0055
     21 C          -1.6790    0.5960    0.0000 C.3     1  LIG1        0.0511
     22 C          -3.6210    0.4750    0.0000 C.3     1  LIG1        0.0004
     23 C          -3.9420    2.5460    0.0000 C.3     1  LIG1        0.0002
     24 C          -4.4920    0.9210    0.0000 C.3     1  LIG1        0.0002
     25 C           1.9960   -2.5420    0.0000 C.3     1  LIG1        0.1351
     26 O           4.1380   -2.2000    0.0000 O.2     1  LIG1       -0.2463
     27 H          -0.2040    2.4380    0.0000 H       1  LIG1        0.2379
@<TRIPOS>BOND
     1     1     2   ar
     2     1     5   ar
     3     1    26    2
     4     2     3   ar
     5     2    25    1
     6     3     4   ar
     7     3    10   ar
     8     4     5   ar
     9     4     7   ar
    10     5     6    1
    11     7     8   ar
    12     8     9   ar
    13     9    10   ar
    14     9    11    1
    15    11    12    1
    16    12    13    1
    17    12    27    1
    18    13    14    1
    19    13    18    1
    20    13    21    1
    21    14    15    1
    22    15    16    1
    23    15    22    1
    24    15    24    1
    25    16    17    1
    26    17    18    1
    27    17    19    1
    28    17    23    1
    29    19    20    1
    30    20    21    1
    31    20    22    1
