@<TRIPOS>MOLECULE
36624_ChemDiv_K788-6106
 26 28 0 0 0
SMALL
GASTEIGER
Energy = 0

@<TRIPOS>ATOM
      1 C           1.0290    2.5130    0.0000 C.2     1  LIG1        0.3079
      2 N           1.7080    1.7790    0.0000 N.am    1  LIG1       -0.2537
      3 C           2.7040    1.8880    0.0000 C.3     1  LIG1        0.1805
      4 C           3.2880    1.0830    0.0000 C.2     1  LIG1        0.2460
      5 N           3.1960    0.0880    0.0000 N.am    1  LIG1       -0.2781
      6 C           4.0130   -0.4790    0.0000 C.3     1  LIG1        0.0939
      7 C           3.9170   -1.4790    0.0000 C.3     1  LIG1        0.0307
      8 C           3.0000   -1.8960    0.0000 C.3     1  LIG1        0.0833
      9 C           2.9080   -2.8960    0.0000 C.2     1  LIG1        0.2604
     10 O           3.7210   -3.4790    0.0000 O.2     1  LIG1       -0.2717
     11 N           1.9960   -3.3130    0.0000 N.am    1  LIG1       -0.0878
     12 C           2.1920   -1.3130    0.0000 C.3     1  LIG1        0.0307
     13 C           2.2880   -0.3210    0.0000 C.3     1  LIG1        0.0939
     14 O           4.1960    1.5080    0.0000 O.2     1  LIG1       -0.2730
     15 C           1.2210    0.9000    0.0000 C.3     1  LIG1        0.1169
     16 C           0.2420    1.1040    0.0000 C.3     1  LIG1        0.1168
     17 N           0.1290    2.1000    0.0000 N.am    1  LIG1       -0.2582
     18 C          -0.7330    2.5830    0.0000 C.3     1  LIG1        0.1217
     19 C          -1.6000    2.0830    0.0000 C.ar    1  LIG1       -0.0022
     20 C          -2.4710    2.5830    0.0000 C.ar    1  LIG1       -0.0017
     21 C          -3.3330    2.0750    0.0000 C.ar    1  LIG1        0.0111
     22 C          -3.3330    1.0830    0.0000 C.ar    1  LIG1        0.0577
     23 CL         -4.2000    0.5830    0.0000 Cl      1  LIG1       -0.0822
     24 C          -2.4710    0.5750    0.0000 C.ar    1  LIG1        0.0111
     25 C          -1.6000    1.0830    0.0000 C.ar    1  LIG1       -0.0017
     26 O           1.2960    3.4830    0.0000 O.2     1  LIG1       -0.2523
@<TRIPOS>BOND
     1     1     2   am
     2     1    17   am
     3     1    26    2
     4     2     3    1
     5     2    15    1
     6     3     4    1
     7     4     5   am
     8     4    14    2
     9     5     6    1
    10     5    13    1
    11     6     7    1
    12     7     8    1
    13     8     9    1
    14     8    12    1
    15     9    10    2
    16     9    11   am
    17    12    13    1
    18    15    16    1
    19    16    17    1
    20    17    18    1
    21    18    19    1
    22    19    20   ar
    23    19    25   ar
    24    20    21   ar
    25    21    22   ar
    26    22    23    1
    27    22    24   ar
    28    24    25   ar
