@<TRIPOS>MOLECULE
36636_ChemDiv_C301-1895
 24 28 0 0 0
SMALL
GASTEIGER
Energy = 0

@<TRIPOS>ATOM
      1 C           1.3710   -1.2290    0.0000 C.ar    1  LIG1        0.2040
      2 N           1.3630   -2.2380    0.0000 N.ar    1  LIG1       -0.2677
      3 C           0.4880   -2.7330    0.0000 C.ar    1  LIG1        0.0846
      4 C          -0.3790   -2.2170    0.0000 C.ar    1  LIG1        0.0990
      5 N          -0.3710   -1.2170    0.0000 N.ar    1  LIG1       -0.2246
      6 C           0.4960   -0.7210    0.0000 C.ar    1  LIG1        0.1886
      7 N           0.5000    0.2750    0.0000 N.pl3   1  LIG1       -0.1915
      8 C          -0.3630    0.7750    0.0000 C.ar    1  LIG1        0.0738
      9 C          -0.3540    1.7710    0.0000 C.ar    1  LIG1        0.0373
     10 C          -1.2170    2.2670    0.0000 C.ar    1  LIG1        0.1051
     11 N          -1.4210    3.2460    0.0000 N.ar    1  LIG1       -0.1893
     12 C          -2.4130    3.3580    0.0000 C.ar    1  LIG1        0.3688
     13 N          -2.8210    2.4460    0.0000 N.ar    1  LIG1       -0.1893
     14 C          -2.0830    1.7790    0.0000 C.ar    1  LIG1        0.1038
     15 C          -2.0830    0.7710    0.0000 C.ar    1  LIG1        0.0221
     16 C          -1.2210    0.2750    0.0000 C.ar    1  LIG1        0.0182
     17 O          -2.9170    4.2210    0.0000 O.2     1  LIG1       -0.2426
     18 C          -1.2460   -2.7170    0.0000 C.ar    1  LIG1        0.0206
     19 C          -1.2540   -3.7130    0.0000 C.ar    1  LIG1        0.0016
     20 C          -0.3920   -4.2210    0.0000 C.ar    1  LIG1        0.0016
     21 C           0.4750   -3.7290    0.0000 C.ar    1  LIG1        0.0191
     22 C           2.3170   -2.5500    0.0000 C.ar    1  LIG1        0.2069
     23 N           2.9130   -1.7420    0.0000 N.ar    1  LIG1       -0.1251
     24 N           2.3210   -0.9290    0.0000 N.ar    1  LIG1       -0.1253
@<TRIPOS>BOND
     1     1     2   ar
     2     1     6   ar
     3     1    24   ar
     4     2     3   ar
     5     2    22   ar
     6     3     4   ar
     7     3    21   ar
     8     4     5   ar
     9     4    18   ar
    10     5     6   ar
    11     6     7    1
    12     7     8    1
    13     8     9   ar
    14     8    16   ar
    15     9    10   ar
    16    10    11   ar
    17    10    14   ar
    18    11    12   ar
    19    12    13   ar
    20    12    17    2
    21    13    14   ar
    22    14    15   ar
    23    15    16   ar
    24    18    19   ar
    25    19    20   ar
    26    20    21   ar
    27    22    23   ar
    28    23    24   ar
