@<TRIPOS>MOLECULE
36634_ChemDiv_C301-1268
 22 25 0 0 0
SMALL
GASTEIGER
Energy = 0

@<TRIPOS>ATOM
      1 C           0.4420    1.4580    0.0000 C.ar    1  LIG1        0.2040
      2 N          -0.4250    1.9670    0.0000 N.ar    1  LIG1       -0.2677
      3 C          -1.2960    1.4540    0.0000 C.ar    1  LIG1        0.0846
      4 C          -1.2960    0.4580    0.0000 C.ar    1  LIG1        0.0990
      5 N          -0.4250   -0.0500    0.0000 N.ar    1  LIG1       -0.2246
      6 C           0.4420    0.4460    0.0000 C.ar    1  LIG1        0.1886
      7 N           1.3000   -0.0500    0.0000 N.pl3   1  LIG1       -0.1919
      8 C           1.3000   -1.0460    0.0000 C.ar    1  LIG1        0.0679
      9 C           2.1630   -1.5420    0.0000 C.ar    1  LIG1       -0.0105
     10 C           2.1630   -2.5290    0.0000 C.ar    1  LIG1       -0.0245
     11 C           1.2920   -3.0330    0.0000 C.ar    1  LIG1       -0.0045
     12 C           0.4290   -2.5290    0.0000 C.ar    1  LIG1        0.0010
     13 C           0.4380   -1.5330    0.0000 C.ar    1  LIG1        0.0162
     14 C           3.0250   -3.0250    0.0000 C.3     1  LIG1        0.0307
     15 C           3.0250   -1.0330    0.0000 C.3     1  LIG1        0.0321
     16 C          -2.1670   -0.0500    0.0000 C.ar    1  LIG1        0.0206
     17 C          -3.0290    0.4460    0.0000 C.ar    1  LIG1        0.0016
     18 C          -3.0290    1.4540    0.0000 C.ar    1  LIG1        0.0016
     19 C          -2.1670    1.9540    0.0000 C.ar    1  LIG1        0.0191
     20 C          -0.2250    2.9460    0.0000 C.ar    1  LIG1        0.2069
     21 N           0.7710    3.0380    0.0000 N.ar    1  LIG1       -0.1251
     22 N           1.1830    2.1250    0.0000 N.ar    1  LIG1       -0.1253
@<TRIPOS>BOND
     1     1     2   ar
     2     1     6   ar
     3     1    22   ar
     4     2     3   ar
     5     2    20   ar
     6     3     4   ar
     7     3    19   ar
     8     4     5   ar
     9     4    16   ar
    10     5     6   ar
    11     6     7    1
    12     7     8    1
    13     8     9   ar
    14     8    13   ar
    15     9    10   ar
    16     9    15    1
    17    10    11   ar
    18    10    14    1
    19    11    12   ar
    20    12    13   ar
    21    16    17   ar
    22    17    18   ar
    23    18    19   ar
    24    20    21   ar
    25    21    22   ar
