@<TRIPOS>MOLECULE
36638_ChemDiv_C301-2320
 31 35 0 0 0
SMALL
GASTEIGER
Energy = 0

@<TRIPOS>ATOM
      1 C           1.3170    0.4920    0.0000 C.ar    1  LIG1        0.2040
      2 N           1.3170   -0.5170    0.0000 N.ar    1  LIG1       -0.2676
      3 C           0.4380   -1.0080    0.0000 C.ar    1  LIG1        0.0847
      4 C          -0.4250   -0.4920    0.0000 C.ar    1  LIG1        0.0990
      5 N          -0.4130    0.5080    0.0000 N.ar    1  LIG1       -0.2246
      6 C           0.4500    1.0040    0.0000 C.ar    1  LIG1        0.1886
      7 N           0.4540    2.0040    0.0000 N.pl3   1  LIG1       -0.1916
      8 C           1.3170    2.4960    0.0000 C.ar    1  LIG1        0.0723
      9 C           1.3170    3.4880    0.0000 C.ar    1  LIG1        0.0177
     10 C           2.1790    3.9880    0.0000 C.ar    1  LIG1        0.0153
     11 C           2.1790    4.9830    0.0000 C.2     1  LIG1        0.0729
     12 O           1.3170    5.4790    0.0000 O.co2   1  LIG1       -0.5446
     13 O           3.0540    5.4790    0.0000 O.co2   1  LIG1       -0.5446
     14 C           3.0540    3.4710    0.0000 C.ar    1  LIG1        0.0012
     15 C           3.0420    2.4790    0.0000 C.ar    1  LIG1        0.0014
     16 C           2.1750    1.9880    0.0000 C.ar    1  LIG1        0.0166
     17 C          -1.2880   -0.9920    0.0000 C.ar    1  LIG1        0.0207
     18 C          -1.3000   -1.9920    0.0000 C.ar    1  LIG1        0.0048
     19 C          -0.4380   -2.5040    0.0000 C.ar    1  LIG1        0.0405
     20 C           0.4250   -2.0040    0.0000 C.ar    1  LIG1        0.0223
     21 C          -0.4540   -3.5040    0.0000 C.2     1  LIG1        0.1956
     22 O           0.4080   -4.0040    0.0000 O.2     1  LIG1       -0.2866
     23 C          -1.3210   -3.9880    0.0000 C.ar    1  LIG1        0.0390
     24 C          -1.3210   -4.9880    0.0000 C.ar    1  LIG1        0.0032
     25 C          -2.1960   -5.4790    0.0000 C.ar    1  LIG1        0.0001
     26 C          -3.0580   -4.9710    0.0000 C.ar    1  LIG1        0.0000
     27 C          -3.0460   -3.9750    0.0000 C.ar    1  LIG1        0.0001
     28 C          -2.1790   -3.4830    0.0000 C.ar    1  LIG1        0.0032
     29 C           2.2710   -0.8250    0.0000 C.ar    1  LIG1        0.2069
     30 N           2.8710   -0.0250    0.0000 N.ar    1  LIG1       -0.1251
     31 N           2.2790    0.7960    0.0000 N.ar    1  LIG1       -0.1253
@<TRIPOS>BOND
     1     1     2   ar
     2     1     6   ar
     3     1    31   ar
     4     2     3   ar
     5     2    29   ar
     6     3     4   ar
     7     3    20   ar
     8     4     5   ar
     9     4    17   ar
    10     5     6   ar
    11     6     7    1
    12     7     8    1
    13     8     9   ar
    14     8    16   ar
    15     9    10   ar
    16    10    11    1
    17    10    14   ar
    18    11    12   ar
    19    11    13   ar
    20    14    15   ar
    21    15    16   ar
    22    17    18   ar
    23    18    19   ar
    24    19    20   ar
    25    19    21    1
    26    21    22    2
    27    21    23    1
    28    23    24   ar
    29    23    28   ar
    30    24    25   ar
    31    25    26   ar
    32    26    27   ar
    33    27    28   ar
    34    29    30   ar
    35    30    31   ar
