@<TRIPOS>MOLECULE
36642_ChemDiv_C305-0614
 28 31 0 0 0
SMALL
GASTEIGER
Energy = 0

@<TRIPOS>ATOM
      1 C          -0.4170   -2.0460    0.0000 C.2     1  LIG1        0.3079
      2 N          -0.1880   -1.0750    0.0000 N.am    1  LIG1       -0.2537
      3 C           0.7670   -0.7790    0.0000 C.3     1  LIG1        0.1821
      4 C           0.9920    0.1830    0.0000 C.2     1  LIG1        0.2620
      5 N           1.9500    0.4750    0.0000 N.am    1  LIG1       -0.1991
      6 C           2.1920    1.4460    0.0000 C.3     1  LIG1        0.1416
      7 C           3.1540    1.7380    0.0000 C.ar    1  LIG1        0.0027
      8 C           3.4080    2.7040    0.0000 C.ar    1  LIG1        0.0376
      9 C           4.3670    2.9630    0.0000 C.ar    1  LIG1        0.1762
     10 C           5.0750    2.2670    0.0000 C.ar    1  LIG1        0.1764
     11 O           5.9580    2.7250    0.0000 O.3     1  LIG1       -0.4346
     12 C           5.8210    3.6830    0.0000 C.3     1  LIG1        0.4294
     13 O           4.8210    3.8460    0.0000 O.3     1  LIG1       -0.4346
     14 C           4.8170    1.3080    0.0000 C.ar    1  LIG1        0.0399
     15 C           3.8460    1.0500    0.0000 C.ar    1  LIG1        0.0008
     16 O           0.2670    0.8710    0.0000 O.2     1  LIG1       -0.2715
     17 C          -1.0540   -0.5580    0.0000 C.3     1  LIG1        0.1169
     18 C          -1.8170   -1.2290    0.0000 C.3     1  LIG1        0.1168
     19 N          -1.4130   -2.1420    0.0000 N.am    1  LIG1       -0.2582
     20 C          -1.9380   -3.0040    0.0000 C.3     1  LIG1        0.1217
     21 C          -2.9380   -2.9830    0.0000 C.ar    1  LIG1       -0.0022
     22 C          -3.4290   -2.1040    0.0000 C.ar    1  LIG1       -0.0017
     23 C          -4.4330   -2.0880    0.0000 C.ar    1  LIG1        0.0111
     24 C          -4.9580   -2.9670    0.0000 C.ar    1  LIG1        0.0577
     25 CL         -5.9630   -2.9830    0.0000 Cl      1  LIG1       -0.0822
     26 C          -4.4580   -3.8330    0.0000 C.ar    1  LIG1        0.0111
     27 C          -3.4540   -3.8420    0.0000 C.ar    1  LIG1       -0.0017
     28 O           0.2380   -2.8170    0.0000 O.2     1  LIG1       -0.2523
@<TRIPOS>BOND
     1     1     2   am
     2     1    19   am
     3     1    28    2
     4     2     3    1
     5     2    17    1
     6     3     4    1
     7     4     5   am
     8     4    16    2
     9     5     6    1
    10     6     7    1
    11     7     8   ar
    12     7    15   ar
    13     8     9   ar
    14     9    10   ar
    15     9    13    1
    16    10    11    1
    17    10    14   ar
    18    11    12    1
    19    12    13    1
    20    14    15   ar
    21    17    18    1
    22    18    19    1
    23    19    20    1
    24    20    21    1
    25    21    22   ar
    26    21    27   ar
    27    22    23   ar
    28    23    24   ar
    29    24    25    1
    30    24    26   ar
    31    26    27   ar
