@<TRIPOS>MOLECULE
36641_ChemDiv_C260-1443
 43 46 0 0 0
SMALL
GASTEIGER
Energy = 0

@<TRIPOS>ATOM
      1 N          -2.1750   -1.0080    0.0000 N.ar    1  LIG1       -0.2487
      2 C          -2.1750   -2.0040    0.0000 C.ar    1  LIG1        0.3341
      3 N          -3.0380   -2.5080    0.0000 N.ar    1  LIG1       -0.2720
      4 C          -3.9000   -2.0040    0.0000 C.ar    1  LIG1        0.0689
      5 C          -3.9000   -1.0080    0.0000 C.ar    1  LIG1        0.0722
      6 C          -3.0380   -0.5080    0.0000 C.ar    1  LIG1        0.2656
      7 O          -3.0380    0.4880    0.0000 O.2     1  LIG1       -0.2668
      8 C          -4.7630   -0.5080    0.0000 C.ar    1  LIG1        0.0062
      9 C          -5.6290   -1.0080    0.0000 C.ar    1  LIG1        0.0003
     10 C          -5.6290   -2.0040    0.0000 C.ar    1  LIG1        0.0015
     11 C          -4.7630   -2.5080    0.0000 C.ar    1  LIG1        0.0175
     12 C          -3.0380   -3.5040    0.0000 C.3     1  LIG1        0.1971
     13 C          -2.1670   -4.0080    0.0000 C.2     1  LIG1        0.2646
     14 O          -1.3000   -3.4960    0.0000 O.2     1  LIG1       -0.2712
     15 N          -2.1580   -5.0080    0.0000 N.am    1  LIG1       -0.2034
     16 C          -1.2830   -5.5000    0.0000 C.3     1  LIG1        0.1195
     17 C          -1.2830   -6.5040    0.0000 C.3     1  LIG1        0.0451
     18 C          -0.4080   -6.9960    0.0000 C.2     1  LIG1       -0.0467
     19 C           0.4500   -6.4920    0.0000 C.2     1  LIG1       -0.0346
     20 C           1.3170   -6.9880    0.0000 C.3     1  LIG1        0.0254
     21 C           1.3290   -7.9920    0.0000 C.3     1  LIG1        0.0050
     22 C           0.4540   -8.4960    0.0000 C.3     1  LIG1        0.0047
     23 C          -0.4130   -7.9960    0.0000 C.3     1  LIG1        0.0218
     24 O          -1.3000   -2.5130    0.0000 O.2     1  LIG1       -0.2462
     25 C          -1.3000   -0.5080    0.0000 C.3     1  LIG1        0.1136
     26 C          -1.3000    0.4880    0.0000 C.3     1  LIG1        0.0252
     27 C          -0.4380    0.9920    0.0000 C.3     1  LIG1        0.0116
     28 C          -0.4380    1.9960    0.0000 C.3     1  LIG1        0.0869
     29 C           0.4250    2.4960    0.0000 C.2     1  LIG1        0.2414
     30 O           1.2830    1.9960    0.0000 O.2     1  LIG1       -0.2733
     31 N           0.4210    3.5000    0.0000 N.am    1  LIG1       -0.2051
     32 C           1.2830    4.0000    0.0000 C.3     1  LIG1        0.1198
     33 C           1.3000    4.9920    0.0000 C.3     1  LIG1        0.0499
     34 C           2.1630    5.4920    0.0000 C.ar    1  LIG1       -0.0172
     35 C           2.1630    6.5000    0.0000 C.ar    1  LIG1        0.0358
     36 C           3.0380    6.9960    0.0000 C.ar    1  LIG1        0.1721
     37 C           3.9000    6.4920    0.0000 C.ar    1  LIG1        0.1724
     38 C           3.8880    5.5000    0.0000 C.ar    1  LIG1        0.0397
     39 C           3.0250    5.0040    0.0000 C.ar    1  LIG1       -0.0009
     40 O           4.7670    6.9880    0.0000 O.3     1  LIG1       -0.4684
     41 C           5.6250    6.4920    0.0000 C.3     1  LIG1        0.2526
     42 O           3.0420    8.0000    0.0000 O.3     1  LIG1       -0.4684
     43 C           3.9130    8.4960    0.0000 C.3     1  LIG1        0.2526
@<TRIPOS>BOND
     1     1     2   ar
     2     1     6   ar
     3     1    25    1
     4     2     3   ar
     5     2    24    2
     6     3     4   ar
     7     3    12    1
     8     4     5   ar
     9     4    11   ar
    10     5     6   ar
    11     5     8   ar
    12     6     7    2
    13     8     9   ar
    14     9    10   ar
    15    10    11   ar
    16    12    13    1
    17    13    14    2
    18    13    15   am
    19    15    16    1
    20    16    17    1
    21    17    18    1
    22    18    19    2
    23    18    23    1
    24    19    20    1
    25    20    21    1
    26    21    22    1
    27    22    23    1
    28    25    26    1
    29    26    27    1
    30    27    28    1
    31    28    29    1
    32    29    30    2
    33    29    31   am
    34    31    32    1
    35    32    33    1
    36    33    34    1
    37    34    35   ar
    38    34    39   ar
    39    35    36   ar
    40    36    37   ar
    41    36    42    1
    42    37    38   ar
    43    37    40    1
    44    38    39   ar
    45    40    41    1
    46    42    43    1
