@<TRIPOS>MOLECULE
36647_ChemDiv_C260-2479
 34 36 0 0 0
SMALL
GASTEIGER
Energy = 0

@<TRIPOS>ATOM
      1 N          -0.3670   -0.0330    0.0000 N.ar    1  LIG1       -0.2487
      2 C          -0.3670   -1.0290    0.0000 C.ar    1  LIG1        0.3341
      3 N          -1.2420   -1.5250    0.0000 N.ar    1  LIG1       -0.2720
      4 C          -2.1000   -1.0290    0.0000 C.ar    1  LIG1        0.0689
      5 C          -2.1000   -0.0330    0.0000 C.ar    1  LIG1        0.0722
      6 C          -1.2420    0.4630    0.0000 C.ar    1  LIG1        0.2656
      7 O          -1.2420    1.4710    0.0000 O.2     1  LIG1       -0.2668
      8 C          -2.9630    0.4630    0.0000 C.ar    1  LIG1        0.0062
      9 C          -3.8380   -0.0330    0.0000 C.ar    1  LIG1        0.0003
     10 C          -3.8380   -1.0290    0.0000 C.ar    1  LIG1        0.0015
     11 C          -2.9630   -1.5250    0.0000 C.ar    1  LIG1        0.0175
     12 C          -1.2420   -2.5330    0.0000 C.3     1  LIG1        0.1971
     13 C          -0.3790   -3.0330    0.0000 C.2     1  LIG1        0.2646
     14 O           0.4830   -2.5330    0.0000 O.2     1  LIG1       -0.2712
     15 N          -0.3790   -4.0370    0.0000 N.am    1  LIG1       -0.2037
     16 C           0.4830   -4.5380    0.0000 C.3     1  LIG1        0.1178
     17 C           0.4830   -5.5460    0.0000 C.3     1  LIG1        0.0555
     18 C           1.3460   -6.0420    0.0000 C.3     1  LIG1        0.1441
     19 O           1.3460   -7.0380    0.0000 O.3     1  LIG1       -0.3510
     20 C           2.2080   -7.5460    0.0000 C.3     1  LIG1        0.1741
     21 O           0.5080   -1.5500    0.0000 O.2     1  LIG1       -0.2462
     22 C           0.5080    0.4630    0.0000 C.3     1  LIG1        0.1136
     23 C           0.5080    1.4710    0.0000 C.3     1  LIG1        0.0252
     24 C           1.3710    1.9670    0.0000 C.3     1  LIG1        0.0116
     25 C           1.3710    2.9630    0.0000 C.3     1  LIG1        0.0869
     26 C           2.2290    3.4630    0.0000 C.2     1  LIG1        0.2418
     27 N           2.2290    4.4630    0.0000 N.am    1  LIG1       -0.1972
     28 C           3.0920    4.9630    0.0000 C.3     1  LIG1        0.1791
     29 C           3.0920    5.9670    0.0000 C.ar    1  LIG1        0.1449
     30 O           3.8330    6.6380    0.0000 O.2     1  LIG1       -0.4529
     31 C           3.4460    7.5460    0.0000 C.ar    1  LIG1        0.1792
     32 C           2.4500    7.4500    0.0000 C.ar    1  LIG1        0.0435
     33 C           2.2290    6.4670    0.0000 C.ar    1  LIG1        0.0380
     34 O           3.0920    2.9630    0.0000 O.2     1  LIG1       -0.2733
@<TRIPOS>BOND
     1     1     2   ar
     2     1     6   ar
     3     1    22    1
     4     2     3   ar
     5     2    21    2
     6     3     4   ar
     7     3    12    1
     8     4     5   ar
     9     4    11   ar
    10     5     6   ar
    11     5     8   ar
    12     6     7    2
    13     8     9   ar
    14     9    10   ar
    15    10    11   ar
    16    12    13    1
    17    13    14    2
    18    13    15   am
    19    15    16    1
    20    16    17    1
    21    17    18    1
    22    18    19    1
    23    19    20    1
    24    22    23    1
    25    23    24    1
    26    24    25    1
    27    25    26    1
    28    26    27   am
    29    26    34    2
    30    27    28    1
    31    28    29    1
    32    29    30   ar
    33    29    33   ar
    34    30    31   ar
    35    31    32   ar
    36    32    33   ar
