@<TRIPOS>MOLECULE
36643_ChemDiv_C260-1583
 38 42 0 0 0
SMALL
GASTEIGER
Energy = 0

@<TRIPOS>ATOM
      1 N          -0.8630   -0.2380    0.0000 N.ar    1  LIG1       -0.2487
      2 C          -0.8630   -1.2380    0.0000 C.ar    1  LIG1        0.3341
      3 N          -1.7380   -1.7380    0.0000 N.ar    1  LIG1       -0.2721
      4 C          -2.6000   -1.2380    0.0000 C.ar    1  LIG1        0.0689
      5 C          -2.6000   -0.2380    0.0000 C.ar    1  LIG1        0.0722
      6 C          -1.7380    0.2630    0.0000 C.ar    1  LIG1        0.2656
      7 O          -1.7380    1.2630    0.0000 O.2     1  LIG1       -0.2668
      8 C          -3.4630    0.2630    0.0000 C.ar    1  LIG1        0.0062
      9 C          -4.3250   -0.2460    0.0000 C.ar    1  LIG1        0.0003
     10 C          -4.3250   -1.2380    0.0000 C.ar    1  LIG1        0.0015
     11 C          -3.4630   -1.7380    0.0000 C.ar    1  LIG1        0.0175
     12 C          -1.7380   -2.7460    0.0000 C.3     1  LIG1        0.1955
     13 C          -0.8790   -3.2500    0.0000 C.2     1  LIG1        0.2489
     14 N          -0.8920   -4.2500    0.0000 N.am    1  LIG1       -0.2778
     15 C          -0.0420   -4.7670    0.0000 C.3     1  LIG1        0.0754
     16 C           0.8330   -4.2830    0.0000 C.3     1  LIG1        0.0198
     17 C           1.6830   -4.7960    0.0000 C.3     1  LIG1        0.0017
     18 C           1.6710   -5.7960    0.0000 C.3     1  LIG1        0.0001
     19 C           0.7920   -6.2830    0.0000 C.3     1  LIG1        0.0017
     20 C          -0.0580   -5.7630    0.0000 C.3     1  LIG1        0.0198
     21 C          -1.7670   -4.7460    0.0000 C.3     1  LIG1        0.1148
     22 O          -0.0130   -2.7670    0.0000 O.2     1  LIG1       -0.2728
     23 O           0.0080   -1.7500    0.0000 O.2     1  LIG1       -0.2462
     24 C           0.0080    0.2630    0.0000 C.3     1  LIG1        0.1141
     25 C           0.0170    1.2630    0.0000 C.3     1  LIG1        0.0343
     26 C           0.8790    1.7630    0.0000 C.3     1  LIG1        0.0873
     27 C           0.8790    2.7580    0.0000 C.2     1  LIG1        0.2259
     28 N           1.7420    3.2580    0.0000 N.am    1  LIG1       -0.2751
     29 C           1.7290    4.2580    0.0000 C.3     1  LIG1        0.1198
     30 C           2.5880    4.7710    0.0000 C.ar    1  LIG1       -0.0062
     31 C           3.4710    4.2750    0.0000 C.ar    1  LIG1       -0.0228
     32 C           3.4830    3.2790    0.0000 C.3     1  LIG1        0.0476
     33 C           2.6130    2.7750    0.0000 C.3     1  LIG1        0.0984
     34 C           4.3210    4.7920    0.0000 C.ar    1  LIG1       -0.0045
     35 C           4.3040    5.7920    0.0000 C.ar    1  LIG1       -0.0003
     36 C           3.4290    6.2830    0.0000 C.ar    1  LIG1       -0.0003
     37 C           2.5750    5.7670    0.0000 C.ar    1  LIG1       -0.0029
     38 O           0.0080    3.2580    0.0000 O.2     1  LIG1       -0.2749
@<TRIPOS>BOND
     1     1     2   ar
     2     1     6   ar
     3     1    24    1
     4     2     3   ar
     5     2    23    2
     6     3     4   ar
     7     3    12    1
     8     4     5   ar
     9     4    11   ar
    10     5     6   ar
    11     5     8   ar
    12     6     7    2
    13     8     9   ar
    14     9    10   ar
    15    10    11   ar
    16    12    13    1
    17    13    14   am
    18    13    22    2
    19    14    15    1
    20    14    21    1
    21    15    16    1
    22    15    20    1
    23    16    17    1
    24    17    18    1
    25    18    19    1
    26    19    20    1
    27    24    25    1
    28    25    26    1
    29    26    27    1
    30    27    28   am
    31    27    38    2
    32    28    29    1
    33    28    33    1
    34    29    30    1
    35    30    31   ar
    36    30    37   ar
    37    31    32    1
    38    31    34   ar
    39    32    33    1
    40    34    35   ar
    41    35    36   ar
    42    36    37   ar
