@<TRIPOS>MOLECULE
36649_ChemDiv_C260-2554
 36 39 0 0 0
SMALL
GASTEIGER
Energy = 0

@<TRIPOS>ATOM
      1 N          -0.4500   -1.5000    0.0000 N.ar    1  LIG1       -0.2487
      2 C          -0.4500   -2.4960    0.0000 C.ar    1  LIG1        0.3341
      3 N          -1.3040   -2.9830    0.0000 N.ar    1  LIG1       -0.2739
      4 C          -2.1750   -2.4960    0.0000 C.ar    1  LIG1        0.0688
      5 C          -2.1750   -1.5000    0.0000 C.ar    1  LIG1        0.0722
      6 C          -1.3040   -0.9920    0.0000 C.ar    1  LIG1        0.2656
      7 O          -1.3040    0.0000    0.0000 O.2     1  LIG1       -0.2668
      8 C          -3.0290   -0.9920    0.0000 C.ar    1  LIG1        0.0062
      9 C          -3.9040   -1.5000    0.0000 C.ar    1  LIG1        0.0003
     10 C          -3.9040   -2.4960    0.0000 C.ar    1  LIG1        0.0015
     11 C          -3.0290   -2.9830    0.0000 C.ar    1  LIG1        0.0175
     12 C          -1.3040   -4.0000    0.0000 C.3     1  LIG1        0.1748
     13 C          -0.4500   -4.4880    0.0000 C.2     1  LIG1        0.1727
     14 C          -0.4500   -5.4830    0.0000 C.3     1  LIG1        0.0535
     15 C          -1.4670   -5.4830    0.0000 C.3     1  LIG1        0.0074
     16 C           0.5460   -5.4830    0.0000 C.3     1  LIG1        0.0074
     17 C          -0.4500   -6.5000    0.0000 C.3     1  LIG1        0.0074
     18 O           0.4250   -3.9790    0.0000 O.2     1  LIG1       -0.2940
     19 O           0.4250   -3.0040    0.0000 O.2     1  LIG1       -0.2462
     20 C           0.4250   -0.9920    0.0000 C.3     1  LIG1        0.1135
     21 C           0.4250    0.0000    0.0000 C.3     1  LIG1        0.0229
     22 C           1.3000    0.5080    0.0000 C.3     1  LIG1        0.0024
     23 C           1.3000    1.5040    0.0000 C.3     1  LIG1        0.0092
     24 C           0.4250    2.0130    0.0000 C.3     1  LIG1        0.0782
     25 C           0.4250    3.0080    0.0000 C.2     1  LIG1        0.2412
     26 N           1.3000    3.4960    0.0000 N.am    1  LIG1       -0.2006
     27 C           1.3000    4.5080    0.0000 C.3     1  LIG1        0.1415
     28 C           2.1500    5.0170    0.0000 C.ar    1  LIG1       -0.0006
     29 C           3.0250    4.5080    0.0000 C.ar    1  LIG1       -0.0026
     30 C           3.9000    5.0170    0.0000 C.ar    1  LIG1       -0.0003
     31 C           3.9000    6.0130    0.0000 C.ar    1  LIG1       -0.0000
     32 C           3.0250    6.5000    0.0000 C.ar    1  LIG1       -0.0003
     33 C           2.1500    6.0130    0.0000 C.ar    1  LIG1       -0.0026
     34 O          -0.4290    3.4960    0.0000 O.2     1  LIG1       -0.2733
     35 C          -0.4290    1.5040    0.0000 C.3     1  LIG1        0.0092
     36 C          -0.4290    0.5080    0.0000 C.3     1  LIG1        0.0024
@<TRIPOS>BOND
     1     1     2   ar
     2     1     6   ar
     3     1    20    1
     4     2     3   ar
     5     2    19    2
     6     3     4   ar
     7     3    12    1
     8     4     5   ar
     9     4    11   ar
    10     5     6   ar
    11     5     8   ar
    12     6     7    2
    13     8     9   ar
    14     9    10   ar
    15    10    11   ar
    16    12    13    1
    17    13    14    1
    18    13    18    2
    19    14    15    1
    20    14    16    1
    21    14    17    1
    22    20    21    1
    23    21    22    1
    24    21    36    1
    25    22    23    1
    26    23    24    1
    27    24    25    1
    28    24    35    1
    29    25    26   am
    30    25    34    2
    31    26    27    1
    32    27    28    1
    33    28    29   ar
    34    28    33   ar
    35    29    30   ar
    36    30    31   ar
    37    31    32   ar
    38    32    33   ar
    39    35    36    1
