@<TRIPOS>MOLECULE
36645_ChemDiv_C260-2169
 42 46 0 0 0
SMALL
GASTEIGER
Energy = 0

@<TRIPOS>ATOM
      1 N          -1.2920    0.5080    0.0000 N.ar    1  LIG1       -0.2487
      2 C          -1.2920   -0.4960    0.0000 C.ar    1  LIG1        0.3341
      3 N          -2.1670   -0.9960    0.0000 N.ar    1  LIG1       -0.2721
      4 C          -3.0250   -0.4960    0.0000 C.ar    1  LIG1        0.0689
      5 C          -3.0250    0.5080    0.0000 C.ar    1  LIG1        0.0722
      6 C          -2.1670    1.0080    0.0000 C.ar    1  LIG1        0.2656
      7 O          -2.1670    2.0080    0.0000 O.2     1  LIG1       -0.2668
      8 C          -3.9000    1.0080    0.0000 C.ar    1  LIG1        0.0062
      9 C          -4.7630    0.5040    0.0000 C.ar    1  LIG1        0.0003
     10 C          -4.7630   -0.4960    0.0000 C.ar    1  LIG1        0.0015
     11 C          -3.9000   -0.9960    0.0000 C.ar    1  LIG1        0.0175
     12 C          -2.1540   -1.9960    0.0000 C.3     1  LIG1        0.1955
     13 C          -1.3210   -2.5210    0.0000 C.2     1  LIG1        0.2490
     14 N          -1.3420   -3.5290    0.0000 N.am    1  LIG1       -0.2745
     15 C          -2.2290   -4.0130    0.0000 C.3     1  LIG1        0.1149
     16 C          -2.2420   -5.0080    0.0000 C.3     1  LIG1        0.1123
     17 N          -1.3790   -5.5250    0.0000 N.pl3   1  LIG1       -0.3041
     18 C          -0.5130   -5.0460    0.0000 C.3     1  LIG1        0.1123
     19 C          -0.4960   -4.0580    0.0000 C.3     1  LIG1        0.1149
     20 C          -1.4130   -6.5040    0.0000 C.ar    1  LIG1        0.0479
     21 C          -0.5500   -7.0380    0.0000 C.ar    1  LIG1        0.0145
     22 C          -0.5670   -8.0290    0.0000 C.ar    1  LIG1        0.0013
     23 C          -1.4420   -8.5170    0.0000 C.ar    1  LIG1        0.0001
     24 C          -2.2880   -8.0120    0.0000 C.ar    1  LIG1        0.0013
     25 C          -2.2750   -6.9920    0.0000 C.ar    1  LIG1        0.0145
     26 O          -0.4290   -2.0420    0.0000 O.2     1  LIG1       -0.2728
     27 O          -0.4170   -0.9960    0.0000 O.2     1  LIG1       -0.2462
     28 C          -0.4170    1.0080    0.0000 C.3     1  LIG1        0.1136
     29 C          -0.4170    2.0080    0.0000 C.3     1  LIG1        0.0252
     30 C           0.4420    2.5040    0.0000 C.3     1  LIG1        0.0116
     31 C           0.4420    3.5130    0.0000 C.3     1  LIG1        0.0869
     32 C           1.3170    4.0130    0.0000 C.2     1  LIG1        0.2414
     33 O           2.1790    3.5130    0.0000 O.2     1  LIG1       -0.2733
     34 N           1.3170    5.0210    0.0000 N.am    1  LIG1       -0.2051
     35 C           2.1790    5.5170    0.0000 C.3     1  LIG1        0.1198
     36 C           2.1790    6.5250    0.0000 C.3     1  LIG1        0.0498
     37 C           3.0380    7.0250    0.0000 C.ar    1  LIG1       -0.0204
     38 C           3.9000    6.5250    0.0000 C.ar    1  LIG1       -0.0042
     39 C           4.7580    7.0250    0.0000 C.ar    1  LIG1       -0.0003
     40 C           4.7580    8.0250    0.0000 C.ar    1  LIG1       -0.0000
     41 C           3.8960    8.5170    0.0000 C.ar    1  LIG1       -0.0003
     42 C           3.0380    8.0250    0.0000 C.ar    1  LIG1       -0.0042
@<TRIPOS>BOND
     1     1     2   ar
     2     1     6   ar
     3     1    28    1
     4     2     3   ar
     5     2    27    2
     6     3     4   ar
     7     3    12    1
     8     4     5   ar
     9     4    11   ar
    10     5     6   ar
    11     5     8   ar
    12     6     7    2
    13     8     9   ar
    14     9    10   ar
    15    10    11   ar
    16    12    13    1
    17    13    14   am
    18    13    26    2
    19    14    15    1
    20    14    19    1
    21    15    16    1
    22    16    17    1
    23    17    18    1
    24    17    20    1
    25    18    19    1
    26    20    21   ar
    27    20    25   ar
    28    21    22   ar
    29    22    23   ar
    30    23    24   ar
    31    24    25   ar
    32    28    29    1
    33    29    30    1
    34    30    31    1
    35    31    32    1
    36    32    33    2
    37    32    34   am
    38    34    35    1
    39    35    36    1
    40    36    37    1
    41    37    38   ar
    42    37    42   ar
    43    38    39   ar
    44    39    40   ar
    45    40    41   ar
    46    41    42   ar
