@<TRIPOS>MOLECULE
36658_ChemDiv_C735-0126
 22 25 0 0 0
SMALL
GASTEIGER
Energy = 0

@<TRIPOS>ATOM
      1 C           0.4880    1.4580    0.0000 C.ar    1  LIG1        0.2040
      2 N          -0.3920    1.9580    0.0000 N.ar    1  LIG1       -0.2677
      3 C          -1.2580    1.4460    0.0000 C.ar    1  LIG1        0.0846
      4 C          -1.2580    0.4380    0.0000 C.ar    1  LIG1        0.0990
      5 N          -0.3920   -0.0750    0.0000 N.ar    1  LIG1       -0.2246
      6 C           0.4880    0.4380    0.0000 C.ar    1  LIG1        0.1887
      7 N           1.3330   -0.0580    0.0000 N.pl3   1  LIG1       -0.1883
      8 C           1.3330   -1.0500    0.0000 C.ar    1  LIG1        0.1118
      9 C           2.1670   -1.5790    0.0000 C.ar    1  LIG1        0.0312
     10 C           2.1580   -2.5420    0.0000 C.ar    1  LIG1        0.0592
     11 C           1.2830   -3.0210    0.0000 C.ar    1  LIG1        0.0148
     12 C           0.4540   -2.5250    0.0000 C.ar    1  LIG1        0.0443
     13 C           0.4710   -1.5380    0.0000 C.ar    1  LIG1        0.2109
     14 O          -0.3580   -1.0380    0.0000 O.3     1  LIG1       -0.2852
     15 CL          3.0040   -3.0540    0.0000 Cl      1  LIG1       -0.0822
     16 C          -2.1330   -0.0750    0.0000 C.ar    1  LIG1        0.0206
     17 C          -3.0080    0.4380    0.0000 C.ar    1  LIG1        0.0016
     18 C          -3.0080    1.4460    0.0000 C.ar    1  LIG1        0.0016
     19 C          -2.1330    1.9500    0.0000 C.ar    1  LIG1        0.0191
     20 C          -0.1750    2.9460    0.0000 C.ar    1  LIG1        0.2069
     21 N           0.8330    3.0580    0.0000 N.ar    1  LIG1       -0.1251
     22 N           1.2380    2.1330    0.0000 N.ar    1  LIG1       -0.1253
@<TRIPOS>BOND
     1     1     2   ar
     2     1     6   ar
     3     1    22   ar
     4     2     3   ar
     5     2    20   ar
     6     3     4   ar
     7     3    19   ar
     8     4     5   ar
     9     4    16   ar
    10     5     6   ar
    11     6     7    1
    12     7     8    1
    13     8     9   ar
    14     8    13   ar
    15     9    10   ar
    16    10    11   ar
    17    10    15    1
    18    11    12   ar
    19    12    13   ar
    20    13    14    1
    21    16    17   ar
    22    17    18   ar
    23    18    19   ar
    24    20    21   ar
    25    21    22   ar
