@<TRIPOS>MOLECULE
36668_ChemDiv_C301-1436
 34 38 0 0 0
SMALL
GASTEIGER
Energy = 0

@<TRIPOS>ATOM
      1 N          -0.3710   -1.7170    0.0000 N.am    1  LIG1       -0.2709
      2 C           0.4420   -2.3040    0.0000 C.2     1  LIG1        0.2264
      3 C           0.1380   -3.2580    0.0000 C.3     1  LIG1        0.0913
      4 C          -0.8710   -3.2580    0.0000 C.3     1  LIG1        0.0512
      5 C          -1.1830   -2.3040    0.0000 C.3     1  LIG1        0.0987
      6 C          -1.4630   -4.0670    0.0000 C.ar    1  LIG1       -0.0204
      7 C          -1.0420   -4.9750    0.0000 C.ar    1  LIG1       -0.0042
      8 C          -1.6330   -5.7880    0.0000 C.ar    1  LIG1       -0.0003
      9 C          -2.6330   -5.6880    0.0000 C.ar    1  LIG1       -0.0000
     10 C          -3.0420   -4.7670    0.0000 C.ar    1  LIG1       -0.0003
     11 C          -2.4630   -3.9540    0.0000 C.ar    1  LIG1       -0.0042
     12 O           1.3130   -1.7960    0.0000 O.2     1  LIG1       -0.2748
     13 C          -0.3750   -0.7130    0.0000 C.3     1  LIG1        0.1793
     14 C           0.4880   -0.2040    0.0000 C.2     1  LIG1        0.2463
     15 N           0.4710    0.7960    0.0000 N.am    1  LIG1       -0.2667
     16 C          -0.4040    1.2830    0.0000 C.3     1  LIG1        0.1565
     17 C          -0.4040    2.2790    0.0000 C.3     1  LIG1        0.1612
     18 N           0.4540    2.7920    0.0000 N.4     1  LIG1        0.3820
     19 C           0.4500    3.7880    0.0000 C.3     1  LIG1        0.1331
     20 C           1.3130    4.2830    0.0000 C.ar    1  LIG1        0.0328
     21 C           2.1710    3.7960    0.0000 C.ar    1  LIG1        0.0016
     22 C           3.0380    4.3000    0.0000 C.ar    1  LIG1       -0.0001
     23 C           3.0290    5.2960    0.0000 C.ar    1  LIG1       -0.0000
     24 C           2.1540    5.7880    0.0000 C.ar    1  LIG1       -0.0001
     25 C           1.2960    5.2830    0.0000 C.ar    1  LIG1        0.0016
     26 C          -0.4170    4.2670    0.0000 C.ar    1  LIG1        0.0328
     27 C          -0.4170    5.2670    0.0000 C.ar    1  LIG1        0.0016
     28 C          -1.2920    5.7540    0.0000 C.ar    1  LIG1       -0.0001
     29 C          -2.1500    5.2500    0.0000 C.ar    1  LIG1       -0.0000
     30 C          -2.1380    4.2540    0.0000 C.ar    1  LIG1       -0.0001
     31 C          -1.2670    3.7630    0.0000 C.ar    1  LIG1        0.0016
     32 C           1.3290    2.2920    0.0000 C.3     1  LIG1        0.1612
     33 C           1.3290    1.3000    0.0000 C.3     1  LIG1        0.1565
     34 O           1.3580   -0.6880    0.0000 O.2     1  LIG1       -0.2730
@<TRIPOS>BOND
     1     1     2   am
     2     1     5    1
     3     1    13    1
     4     2     3    1
     5     2    12    2
     6     3     4    1
     7     4     5    1
     8     4     6    1
     9     6     7   ar
    10     6    11   ar
    11     7     8   ar
    12     8     9   ar
    13     9    10   ar
    14    10    11   ar
    15    13    14    1
    16    14    15   am
    17    14    34    2
    18    15    16    1
    19    15    33    1
    20    16    17    1
    21    17    18    1
    22    18    19    1
    23    18    32    1
    24    19    20    1
    25    19    26    1
    26    20    21   ar
    27    20    25   ar
    28    21    22   ar
    29    22    23   ar
    30    23    24   ar
    31    24    25   ar
    32    26    27   ar
    33    26    31   ar
    34    27    28   ar
    35    28    29   ar
    36    29    30   ar
    37    30    31   ar
    38    32    33    1
