@<TRIPOS>MOLECULE
36662_ChemDiv_E208-0168
 27 31 0 0 0
SMALL
GASTEIGER
Energy = 0

@<TRIPOS>ATOM
      1 C          -0.0080    2.1210    0.0000 C.ar    1  LIG1        0.2037
      2 N          -0.8710    2.6170    0.0000 N.ar    1  LIG1       -0.2735
      3 C          -0.6710    3.5920    0.0000 C.ar    1  LIG1        0.1476
      4 N           0.3250    3.7040    0.0000 N.ar    1  LIG1       -0.1329
      5 N           0.7250    2.7830    0.0000 N.ar    1  LIG1       -0.1257
      6 C          -1.3250    4.3250    0.0000 C.3     1  LIG1        0.0742
      7 C          -1.7330    2.1170    0.0000 C.ar    1  LIG1        0.0842
      8 C          -1.7330    1.1210    0.0000 C.ar    1  LIG1        0.0990
      9 N          -0.8710    0.6130    0.0000 N.ar    1  LIG1       -0.2246
     10 C          -0.0080    1.1080    0.0000 C.ar    1  LIG1        0.1886
     11 N           0.8460    0.6210    0.0000 N.pl3   1  LIG1       -0.1915
     12 C           0.8580   -0.3830    0.0000 C.ar    1  LIG1        0.0737
     13 C           1.7170   -0.8710    0.0000 C.ar    1  LIG1        0.0353
     14 C           1.7210   -1.8790    0.0000 C.ar    1  LIG1        0.0811
     15 N           2.4750   -2.5460    0.0000 N.ar    1  LIG1       -0.2779
     16 C           2.0710   -3.4710    0.0000 C.ar    1  LIG1        0.3317
     17 N           1.0670   -3.3630    0.0000 N.ar    1  LIG1       -0.2779
     18 C           0.8580   -2.3880    0.0000 C.ar    1  LIG1        0.0798
     19 C          -0.0170   -1.8790    0.0000 C.ar    1  LIG1        0.0201
     20 C          -0.0170   -0.8830    0.0000 C.ar    1  LIG1        0.0181
     21 C           0.4040   -4.1170    0.0000 C.3     1  LIG1        0.1351
     22 O           2.5750   -4.3250    0.0000 O.2     1  LIG1       -0.2463
     23 C           3.4540   -2.3330    0.0000 C.3     1  LIG1        0.1351
     24 C          -2.5960    0.6130    0.0000 C.ar    1  LIG1        0.0206
     25 C          -3.4580    1.1080    0.0000 C.ar    1  LIG1        0.0016
     26 C          -3.4580    2.1170    0.0000 C.ar    1  LIG1        0.0016
     27 C          -2.5960    2.6170    0.0000 C.ar    1  LIG1        0.0191
@<TRIPOS>BOND
     1     1     2   ar
     2     1     5   ar
     3     1    10   ar
     4     2     3   ar
     5     2     7   ar
     6     3     4   ar
     7     3     6    1
     8     4     5   ar
     9     7     8   ar
    10     7    27   ar
    11     8     9   ar
    12     8    24   ar
    13     9    10   ar
    14    10    11    1
    15    11    12    1
    16    12    13   ar
    17    12    20   ar
    18    13    14   ar
    19    14    15   ar
    20    14    18   ar
    21    15    16   ar
    22    15    23    1
    23    16    17   ar
    24    16    22    2
    25    17    18   ar
    26    17    21    1
    27    18    19   ar
    28    19    20   ar
    29    24    25   ar
    30    25    26   ar
    31    26    27   ar
