@<TRIPOS>MOLECULE
36666_ChemDiv_C301-1416
 29 32 0 0 0
SMALL
GASTEIGER
Energy = 0

@<TRIPOS>ATOM
      1 N           0.0580   -1.7040    0.0000 N.am    1  LIG1       -0.2709
      2 C           0.8670   -2.2960    0.0000 C.2     1  LIG1        0.2264
      3 C           0.5670   -3.2460    0.0000 C.3     1  LIG1        0.0913
      4 C          -0.4420   -3.2460    0.0000 C.3     1  LIG1        0.0512
      5 C          -0.7540   -2.2960    0.0000 C.3     1  LIG1        0.0987
      6 C          -1.0330   -4.0580    0.0000 C.ar    1  LIG1       -0.0204
      7 C          -2.0290   -3.9500    0.0000 C.ar    1  LIG1       -0.0042
      8 C          -2.6130   -4.7580    0.0000 C.ar    1  LIG1       -0.0003
      9 C          -2.2040   -5.6790    0.0000 C.ar    1  LIG1       -0.0000
     10 C          -1.2040   -5.7710    0.0000 C.ar    1  LIG1       -0.0003
     11 C          -0.6130   -4.9630    0.0000 C.ar    1  LIG1       -0.0042
     12 O           1.7420   -1.7830    0.0000 O.2     1  LIG1       -0.2748
     13 C           0.0420   -0.7080    0.0000 C.3     1  LIG1        0.1793
     14 C           0.9170   -0.1920    0.0000 C.2     1  LIG1        0.2460
     15 N           0.9000    0.8040    0.0000 N.am    1  LIG1       -0.2746
     16 C           1.7580    1.3040    0.0000 C.3     1  LIG1        0.1149
     17 C           1.7580    2.3000    0.0000 C.3     1  LIG1        0.1123
     18 N           0.8830    2.8000    0.0000 N.pl3   1  LIG1       -0.3043
     19 C           0.8790    3.7880    0.0000 C.ar    1  LIG1        0.0447
     20 C           0.0130    4.2750    0.0000 C.ar    1  LIG1        0.0256
     21 C           0.0040    5.2630    0.0000 C.ar    1  LIG1        0.0589
     22 C           0.8670    5.7710    0.0000 C.ar    1  LIG1        0.0112
     23 C           1.7380    5.2790    0.0000 C.ar    1  LIG1       -0.0022
     24 C           1.7420    4.2920    0.0000 C.ar    1  LIG1       -0.0085
     25 C           2.6080    3.7960    0.0000 C.3     1  LIG1        0.0323
     26 CL         -0.8630    5.7630    0.0000 Cl      1  LIG1       -0.0822
     27 C           0.0250    2.2830    0.0000 C.3     1  LIG1        0.1123
     28 C           0.0250    1.2880    0.0000 C.3     1  LIG1        0.1149
     29 O           1.7880   -0.6790    0.0000 O.2     1  LIG1       -0.2730
@<TRIPOS>BOND
     1     1     2   am
     2     1     5    1
     3     1    13    1
     4     2     3    1
     5     2    12    2
     6     3     4    1
     7     4     5    1
     8     4     6    1
     9     6     7   ar
    10     6    11   ar
    11     7     8   ar
    12     8     9   ar
    13     9    10   ar
    14    10    11   ar
    15    13    14    1
    16    14    15   am
    17    14    29    2
    18    15    16    1
    19    15    28    1
    20    16    17    1
    21    17    18    1
    22    18    19    1
    23    18    27    1
    24    19    20   ar
    25    19    24   ar
    26    20    21   ar
    27    21    22   ar
    28    21    26    1
    29    22    23   ar
    30    23    24   ar
    31    24    25    1
    32    27    28    1
