@<TRIPOS>MOLECULE
36664_ChemDiv_C301-1305
 28 30 0 0 0
SMALL
GASTEIGER
Energy = 0

@<TRIPOS>ATOM
      1 N          -0.6540   -1.3750    0.0000 N.am    1  LIG1       -0.2709
      2 C           0.1630   -1.9540    0.0000 C.2     1  LIG1        0.2264
      3 C          -0.1500   -2.9170    0.0000 C.3     1  LIG1        0.0913
      4 C          -1.1540   -2.9170    0.0000 C.3     1  LIG1        0.0512
      5 C          -1.4580   -1.9540    0.0000 C.3     1  LIG1        0.0987
      6 C          -1.7420   -3.7170    0.0000 C.ar    1  LIG1       -0.0204
      7 C          -2.7380   -3.6080    0.0000 C.ar    1  LIG1       -0.0042
      8 C          -3.3290   -4.4170    0.0000 C.ar    1  LIG1       -0.0003
      9 C          -2.9130   -5.3380    0.0000 C.ar    1  LIG1       -0.0000
     10 C          -1.9130   -5.4420    0.0000 C.ar    1  LIG1       -0.0003
     11 C          -1.3250   -4.6330    0.0000 C.ar    1  LIG1       -0.0042
     12 O           1.0290   -1.4540    0.0000 O.2     1  LIG1       -0.2748
     13 C          -0.6630   -0.3670    0.0000 C.3     1  LIG1        0.1812
     14 C           0.2040    0.1380    0.0000 C.2     1  LIG1        0.2658
     15 N           0.1920    1.1460    0.0000 N.am    1  LIG1       -0.1776
     16 C           0.8960    1.8500    0.0000 C.ar    1  LIG1        0.0797
     17 C           1.8540    2.1130    0.0000 C.ar    1  LIG1        0.0568
     18 C           2.1080    3.0670    0.0000 C.ar    1  LIG1        0.1767
     19 C           1.4080    3.7670    0.0000 C.ar    1  LIG1        0.2061
     20 C           0.4420    3.5130    0.0000 C.ar    1  LIG1        0.1767
     21 C           0.1920    2.5460    0.0000 C.ar    1  LIG1        0.0568
     22 O          -0.2630    4.2130    0.0000 O.3     1  LIG1       -0.4682
     23 C          -1.2250    3.9500    0.0000 C.3     1  LIG1        0.2526
     24 O           1.6580    4.7290    0.0000 O.3     1  LIG1       -0.4654
     25 C           0.9580    5.4420    0.0000 C.3     1  LIG1        0.2528
     26 O           3.0710    3.3250    0.0000 O.3     1  LIG1       -0.4682
     27 C           3.3250    4.2880    0.0000 C.3     1  LIG1        0.2526
     28 O           1.0750   -0.3500    0.0000 O.2     1  LIG1       -0.2711
@<TRIPOS>BOND
     1     1     2   am
     2     1     5    1
     3     1    13    1
     4     2     3    1
     5     2    12    2
     6     3     4    1
     7     4     5    1
     8     4     6    1
     9     6     7   ar
    10     6    11   ar
    11     7     8   ar
    12     8     9   ar
    13     9    10   ar
    14    10    11   ar
    15    13    14    1
    16    14    15   am
    17    14    28    2
    18    15    16    1
    19    16    17   ar
    20    16    21   ar
    21    17    18   ar
    22    18    19   ar
    23    18    26    1
    24    19    20   ar
    25    19    24    1
    26    20    21   ar
    27    20    22    1
    28    22    23    1
    29    24    25    1
    30    26    27    1
