@<TRIPOS>MOLECULE
36673_ChemDiv_C260-1918
 34 36 0 0 0
SMALL
GASTEIGER
Energy = 0

@<TRIPOS>ATOM
      1 N          -0.7710   -0.1500    0.0000 N.ar    1  LIG1       -0.2487
      2 C          -0.7710   -1.1500    0.0000 C.ar    1  LIG1        0.3341
      3 N          -1.6460   -1.6500    0.0000 N.ar    1  LIG1       -0.2721
      4 C          -2.5080   -1.1500    0.0000 C.ar    1  LIG1        0.0689
      5 C          -2.5080   -0.1500    0.0000 C.ar    1  LIG1        0.0722
      6 C          -1.6460    0.3500    0.0000 C.ar    1  LIG1        0.2656
      7 O          -1.6460    1.3500    0.0000 O.2     1  LIG1       -0.2668
      8 C          -3.3710    0.3500    0.0000 C.ar    1  LIG1        0.0062
      9 C          -4.2380   -0.1580    0.0000 C.ar    1  LIG1        0.0003
     10 C          -4.2380   -1.1500    0.0000 C.ar    1  LIG1        0.0015
     11 C          -3.3710   -1.6500    0.0000 C.ar    1  LIG1        0.0175
     12 C          -1.6460   -2.6630    0.0000 C.3     1  LIG1        0.1955
     13 C          -0.7830   -3.1580    0.0000 C.2     1  LIG1        0.2489
     14 N          -0.7880   -4.1580    0.0000 N.am    1  LIG1       -0.2780
     15 C           0.0670   -4.6500    0.0000 C.3     1  LIG1        0.0935
     16 C           0.0670   -5.6500    0.0000 C.3     1  LIG1        0.0215
     17 C           0.9290   -6.1630    0.0000 C.3     1  LIG1        0.0018
     18 C          -1.6630   -4.6500    0.0000 C.3     1  LIG1        0.0935
     19 C          -2.5250   -4.1500    0.0000 C.3     1  LIG1        0.0215
     20 C          -3.3880   -4.6500    0.0000 C.3     1  LIG1        0.0018
     21 O           0.0830   -2.6630    0.0000 O.2     1  LIG1       -0.2728
     22 O           0.0960   -1.6670    0.0000 O.2     1  LIG1       -0.2462
     23 C           0.0960    0.3500    0.0000 C.3     1  LIG1        0.1136
     24 C           0.1080    1.3500    0.0000 C.3     1  LIG1        0.0252
     25 C           0.9710    1.8500    0.0000 C.3     1  LIG1        0.0116
     26 C           0.9710    2.8500    0.0000 C.3     1  LIG1        0.0869
     27 C           1.8330    3.3500    0.0000 C.2     1  LIG1        0.2413
     28 N           1.8330    4.3500    0.0000 N.am    1  LIG1       -0.2072
     29 C           2.6960    4.8500    0.0000 C.3     1  LIG1        0.0953
     30 C           2.6960    5.8630    0.0000 C.3     1  LIG1        0.0217
     31 C           3.6420    6.1630    0.0000 C.3     1  LIG1        0.0018
     32 C           4.2330    5.3580    0.0000 C.3     1  LIG1        0.0018
     33 C           3.6420    4.5420    0.0000 C.3     1  LIG1        0.0217
     34 O           2.7040    2.8500    0.0000 O.2     1  LIG1       -0.2733
@<TRIPOS>BOND
     1     1     2   ar
     2     1     6   ar
     3     1    23    1
     4     2     3   ar
     5     2    22    2
     6     3     4   ar
     7     3    12    1
     8     4     5   ar
     9     4    11   ar
    10     5     6   ar
    11     5     8   ar
    12     6     7    2
    13     8     9   ar
    14     9    10   ar
    15    10    11   ar
    16    12    13    1
    17    13    14   am
    18    13    21    2
    19    14    15    1
    20    14    18    1
    21    15    16    1
    22    16    17    1
    23    18    19    1
    24    19    20    1
    25    23    24    1
    26    24    25    1
    27    25    26    1
    28    26    27    1
    29    27    28   am
    30    27    34    2
    31    28    29    1
    32    29    30    1
    33    29    33    1
    34    30    31    1
    35    31    32    1
    36    32    33    1
