@<TRIPOS>MOLECULE
36677_ChemDiv_C260-2647
 34 38 0 0 0
SMALL
GASTEIGER
Energy = 0

@<TRIPOS>ATOM
      1 N           1.7790    2.0000    0.0000 N.ar    1  LIG1       -0.2462
      2 C           1.7790    1.0080    0.0000 C.ar    1  LIG1        0.3342
      3 N           0.9210    0.5040    0.0000 N.ar    1  LIG1       -0.2734
      4 C           0.0580    1.0080    0.0000 C.ar    1  LIG1        0.0721
      5 C           0.0580    2.0000    0.0000 C.ar    1  LIG1        0.0754
      6 C           0.9210    2.5040    0.0000 C.ar    1  LIG1        0.2658
      7 O           0.9210    3.4960    0.0000 O.2     1  LIG1       -0.2668
      8 C          -0.8000    2.5040    0.0000 C.ar    1  LIG1        0.0462
      9 C          -1.6710    2.0000    0.0000 C.ar    1  LIG1        0.1726
     10 C          -1.6710    1.0080    0.0000 C.ar    1  LIG1        0.1738
     11 C          -0.8000    0.5040    0.0000 C.ar    1  LIG1        0.0575
     12 O          -2.5460    0.4960    0.0000 O.3     1  LIG1       -0.4683
     13 C          -3.4170    1.0000    0.0000 C.3     1  LIG1        0.2526
     14 O          -2.5460    2.5040    0.0000 O.3     1  LIG1       -0.4684
     15 C          -3.4000    2.0000    0.0000 C.3     1  LIG1        0.2526
     16 C           0.9210   -0.4920    0.0000 C.3     1  LIG1        0.1795
     17 C           1.7790   -0.9880    0.0000 C.2     1  LIG1        0.1960
     18 C           1.7790   -1.9880    0.0000 C.ar    1  LIG1        0.0399
     19 C           2.6460   -2.4830    0.0000 C.ar    1  LIG1        0.0431
     20 C           2.6460   -3.4920    0.0000 C.ar    1  LIG1        0.1765
     21 C           1.7790   -3.9920    0.0000 C.ar    1  LIG1        0.1764
     22 O           1.9960   -4.9670    0.0000 O.3     1  LIG1       -0.4346
     23 C           2.9880   -5.0710    0.0000 C.3     1  LIG1        0.4294
     24 O           3.3880   -4.1670    0.0000 O.3     1  LIG1       -0.4346
     25 C           0.9170   -3.4920    0.0000 C.ar    1  LIG1        0.0403
     26 C           0.9170   -2.4830    0.0000 C.ar    1  LIG1        0.0062
     27 O           2.6460   -0.4920    0.0000 O.2     1  LIG1       -0.2893
     28 O           2.6630    0.4960    0.0000 O.2     1  LIG1       -0.2462
     29 C           2.6630    2.5040    0.0000 C.3     1  LIG1        0.1429
     30 C           2.6630    3.4960    0.0000 C.3     1  LIG1        0.1380
     31 O           3.4130    4.1750    0.0000 O.3     1  LIG1       -0.3543
     32 C           3.0040    5.0710    0.0000 C.3     1  LIG1        0.1422
     33 C           2.0130    4.9750    0.0000 C.3     1  LIG1        0.0346
     34 C           1.7960    4.0000    0.0000 C.3     1  LIG1        0.0341
@<TRIPOS>BOND
     1     1     2   ar
     2     1     6   ar
     3     1    29    1
     4     2     3   ar
     5     2    28    2
     6     3     4   ar
     7     3    16    1
     8     4     5   ar
     9     4    11   ar
    10     5     6   ar
    11     5     8   ar
    12     6     7    2
    13     8     9   ar
    14     9    10   ar
    15     9    14    1
    16    10    11   ar
    17    10    12    1
    18    12    13    1
    19    14    15    1
    20    16    17    1
    21    17    18    1
    22    17    27    2
    23    18    19   ar
    24    18    26   ar
    25    19    20   ar
    26    20    21   ar
    27    20    24    1
    28    21    22    1
    29    21    25   ar
    30    22    23    1
    31    23    24    1
    32    25    26   ar
    33    29    30    1
    34    30    31    1
    35    30    34    1
    36    31    32    1
    37    32    33    1
    38    33    34    1
