@<TRIPOS>MOLECULE
36672_ChemDiv_C301-1659
 22 24 0 0 0
SMALL
GASTEIGER
Energy = 0

@<TRIPOS>ATOM
      1 N          -0.3750   -0.2210    0.0000 N.am    1  LIG1       -0.2709
      2 C           0.4330   -0.8080    0.0000 C.2     1  LIG1        0.2264
      3 C           0.1290   -1.7580    0.0000 C.3     1  LIG1        0.0913
      4 C          -0.8750   -1.7580    0.0000 C.3     1  LIG1        0.0512
      5 C          -1.1880   -0.8080    0.0000 C.3     1  LIG1        0.0987
      6 C          -1.4630   -2.5710    0.0000 C.ar    1  LIG1       -0.0204
      7 C          -2.4670   -2.4540    0.0000 C.ar    1  LIG1       -0.0042
      8 C          -3.0500   -3.2670    0.0000 C.ar    1  LIG1       -0.0003
      9 C          -2.6380   -4.1790    0.0000 C.ar    1  LIG1       -0.0000
     10 C          -1.6380   -4.2920    0.0000 C.ar    1  LIG1       -0.0003
     11 C          -1.0500   -3.4670    0.0000 C.ar    1  LIG1       -0.0042
     12 O           1.3000   -0.2920    0.0000 O.2     1  LIG1       -0.2748
     13 C          -0.3830    0.7790    0.0000 C.3     1  LIG1        0.1812
     14 C           0.4790    1.2920    0.0000 C.2     1  LIG1        0.2658
     15 N           0.4630    2.2920    0.0000 N.am    1  LIG1       -0.1778
     16 C           1.3290    2.7960    0.0000 C.ar    1  LIG1        0.0734
     17 C           2.1920    2.3040    0.0000 C.ar    1  LIG1        0.0166
     18 C           3.0460    2.8130    0.0000 C.ar    1  LIG1        0.0013
     19 C           3.0460    3.8000    0.0000 C.ar    1  LIG1        0.0001
     20 C           2.1710    4.2920    0.0000 C.ar    1  LIG1        0.0013
     21 C           1.3170    3.7880    0.0000 C.ar    1  LIG1        0.0166
     22 O           1.3500    0.8080    0.0000 O.2     1  LIG1       -0.2711
@<TRIPOS>BOND
     1     1     2   am
     2     1     5    1
     3     1    13    1
     4     2     3    1
     5     2    12    2
     6     3     4    1
     7     4     5    1
     8     4     6    1
     9     6     7   ar
    10     6    11   ar
    11     7     8   ar
    12     8     9   ar
    13     9    10   ar
    14    10    11   ar
    15    13    14    1
    16    14    15   am
    17    14    22    2
    18    15    16    1
    19    16    17   ar
    20    16    21   ar
    21    17    18   ar
    22    18    19   ar
    23    19    20   ar
    24    20    21   ar
