@<TRIPOS>MOLECULE
36685_ChemDiv_E511-3059
 31 34 0 0 0
SMALL
GASTEIGER
Energy = 0

@<TRIPOS>ATOM
      1 S           0.9750   -0.6540    0.0000 S.O2    1  LIG1        0.0638
      2 N           1.4790    0.2130    0.0000 N.3     1  LIG1       -0.1447
      3 C           2.4750    0.2130    0.0000 C.3     1  LIG1        0.1821
      4 C           2.9750    1.0750    0.0000 C.2     1  LIG1        0.2594
      5 N           3.9790    1.0750    0.0000 N.am    1  LIG1       -0.2060
      6 C           4.4750    0.2130    0.0000 C.3     1  LIG1        0.0954
      7 C           5.4710    0.2830    0.0000 C.3     1  LIG1        0.0217
      8 C           6.1580   -0.4460    0.0000 C.3     1  LIG1        0.0018
      9 C           6.0040   -1.4380    0.0000 C.3     1  LIG1        0.0001
     10 C           5.1420   -1.9380    0.0000 C.3     1  LIG1        0.0001
     11 C           4.2080   -1.5710    0.0000 C.3     1  LIG1        0.0018
     12 C           3.9170   -0.6170    0.0000 C.3     1  LIG1        0.0217
     13 O           2.4750    1.9420    0.0000 O.2     1  LIG1       -0.2718
     14 C           0.9750    1.0750    0.0000 C.3     1  LIG1        0.1155
     15 C           0.1080   -0.1540    0.0000 C.ar    1  LIG1        0.1238
     16 C          -0.7580   -0.6540    0.0000 C.ar    1  LIG1        0.0406
     17 C          -1.6210   -0.1540    0.0000 C.ar    1  LIG1        0.1019
     18 N          -2.5750   -0.4670    0.0000 N.ar    1  LIG1       -0.2250
     19 C          -3.1630    0.3460    0.0000 C.ar    1  LIG1        0.1623
     20 N          -2.5750    1.1540    0.0000 N.ar    1  LIG1       -0.2251
     21 C          -1.6210    0.8420    0.0000 C.ar    1  LIG1        0.1007
     22 C          -0.7580    1.3460    0.0000 C.ar    1  LIG1        0.0221
     23 C           0.1080    0.8420    0.0000 C.ar    1  LIG1        0.0216
     24 C          -4.1630    0.3460    0.0000 C.ar    1  LIG1        0.0358
     25 C          -4.6630    1.2080    0.0000 C.ar    1  LIG1        0.0030
     26 C          -5.6580    1.2080    0.0000 C.ar    1  LIG1        0.0001
     27 C          -6.1580    0.3460    0.0000 C.ar    1  LIG1        0.0000
     28 C          -5.6580   -0.5210    0.0000 C.ar    1  LIG1        0.0001
     29 C          -4.6630   -0.5210    0.0000 C.ar    1  LIG1        0.0030
     30 O           1.8460   -1.1580    0.0000 O.2     1  LIG1       -0.1528
     31 O           0.4750   -1.5210    0.0000 O.2     1  LIG1       -0.1528
@<TRIPOS>BOND
     1     1     2    1
     2     1    15    1
     3     1    30    2
     4     1    31    2
     5     2     3    1
     6     2    14    1
     7     3     4    1
     8     4     5   am
     9     4    13    2
    10     5     6    1
    11     6     7    1
    12     6    12    1
    13     7     8    1
    14     8     9    1
    15     9    10    1
    16    10    11    1
    17    11    12    1
    18    15    16   ar
    19    15    23   ar
    20    16    17   ar
    21    17    18   ar
    22    17    21   ar
    23    18    19   ar
    24    19    20   ar
    25    19    24    1
    26    20    21   ar
    27    21    22   ar
    28    22    23   ar
    29    24    25   ar
    30    24    29   ar
    31    25    26   ar
    32    26    27   ar
    33    27    28   ar
    34    28    29   ar
