@<TRIPOS>MOLECULE
36681_ChemDiv_C261-0261
 37 41 0 0 0
SMALL
GASTEIGER
Energy = 0

@<TRIPOS>ATOM
      1 S          -0.5130   -2.2540    0.0000 S.O2    1  LIG1        0.0637
      2 N          -1.3920   -1.7540    0.0000 N.3     1  LIG1       -0.1433
      3 C          -1.4000   -0.7500    0.0000 C.3     1  LIG1        0.1585
      4 C          -2.2670   -0.2500    0.0000 C.3     1  LIG1        0.1586
      5 N          -3.1380   -0.7540    0.0000 N.4     1  LIG1        0.3831
      6 C          -4.0210   -0.2540    0.0000 C.3     1  LIG1        0.1695
      7 C          -4.0250    0.7500    0.0000 C.ar    1  LIG1        0.0715
      8 C          -4.8960    1.2540    0.0000 C.ar    1  LIG1        0.1769
      9 C          -4.8750    2.2540    0.0000 C.ar    1  LIG1        0.2059
     10 C          -4.0210    2.7540    0.0000 C.ar    1  LIG1        0.1754
     11 C          -3.1630    2.2540    0.0000 C.ar    1  LIG1        0.0401
     12 C          -3.1630    1.2540    0.0000 C.ar    1  LIG1        0.0078
     13 O          -4.0210    3.7580    0.0000 O.3     1  LIG1       -0.4683
     14 C          -4.8750    4.2540    0.0000 C.3     1  LIG1        0.2526
     15 O          -5.7580    2.7670    0.0000 O.3     1  LIG1       -0.4654
     16 C          -6.6080    2.3540    0.0000 C.3     1  LIG1        0.2528
     17 O          -5.7710    0.7500    0.0000 O.3     1  LIG1       -0.4684
     18 C          -5.7880   -0.2540    0.0000 C.3     1  LIG1        0.2526
     19 C          -3.1380   -1.7540    0.0000 C.3     1  LIG1        0.1586
     20 C          -2.2670   -2.2580    0.0000 C.3     1  LIG1        0.1585
     21 C           0.3670   -2.7540    0.0000 C.ar    1  LIG1        0.1238
     22 C           1.2380   -2.2540    0.0000 C.ar    1  LIG1        0.0406
     23 C           2.1000   -2.7540    0.0000 C.ar    1  LIG1        0.1019
     24 N           3.0500   -2.4500    0.0000 N.ar    1  LIG1       -0.2250
     25 C           3.6170   -3.2580    0.0000 C.ar    1  LIG1        0.1623
     26 N           3.0500   -4.0460    0.0000 N.ar    1  LIG1       -0.2251
     27 C           2.1000   -3.7540    0.0000 C.ar    1  LIG1        0.1007
     28 C           1.2380   -4.2540    0.0000 C.ar    1  LIG1        0.0221
     29 C           0.3670   -3.7540    0.0000 C.ar    1  LIG1        0.0216
     30 C           4.6210   -3.1670    0.0000 C.ar    1  LIG1        0.0358
     31 C           5.0540   -2.2750    0.0000 C.ar    1  LIG1        0.0030
     32 C           6.0460   -2.1920    0.0000 C.ar    1  LIG1        0.0001
     33 C           6.6080   -3.0130    0.0000 C.ar    1  LIG1        0.0000
     34 C           6.1830   -3.9130    0.0000 C.ar    1  LIG1        0.0001
     35 C           5.1920   -3.9880    0.0000 C.ar    1  LIG1        0.0030
     36 O          -1.0130   -3.1330    0.0000 O.2     1  LIG1       -0.1528
     37 O          -0.0130   -1.3630    0.0000 O.2     1  LIG1       -0.1528
@<TRIPOS>BOND
     1     1     2    1
     2     1    21    1
     3     1    36    2
     4     1    37    2
     5     2     3    1
     6     2    20    1
     7     3     4    1
     8     4     5    1
     9     5     6    1
    10     5    19    1
    11     6     7    1
    12     7     8   ar
    13     7    12   ar
    14     8     9   ar
    15     8    17    1
    16     9    10   ar
    17     9    15    1
    18    10    11   ar
    19    10    13    1
    20    11    12   ar
    21    13    14    1
    22    15    16    1
    23    17    18    1
    24    19    20    1
    25    21    22   ar
    26    21    29   ar
    27    22    23   ar
    28    23    24   ar
    29    23    27   ar
    30    24    25   ar
    31    25    26   ar
    32    25    30    1
    33    26    27   ar
    34    27    28   ar
    35    28    29   ar
    36    30    31   ar
    37    30    35   ar
    38    31    32   ar
    39    32    33   ar
    40    33    34   ar
    41    34    35   ar
