@<TRIPOS>MOLECULE
36684_ChemDiv_C310-1018
 34 37 0 0 0
SMALL
GASTEIGER
Energy = 0

@<TRIPOS>ATOM
      1 N           3.4580   -2.7500    0.0000 N.ar    1  LIG1       -0.2926
      2 C           4.3380   -2.2580    0.0000 C.ar    1  LIG1        0.2669
      3 C           4.3380   -1.2460    0.0000 C.ar    1  LIG1        0.0856
      4 S           3.4580   -0.7290    0.0000 S.2     1  LIG1       -0.0807
      5 C           2.5960   -1.2460    0.0000 C.ar    1  LIG1        0.0454
      6 C           2.5920   -2.2580    0.0000 C.ar    1  LIG1        0.0686
      7 C           1.7290   -2.7460    0.0000 C.ar    1  LIG1        0.0223
      8 C           0.8670   -2.2460    0.0000 C.ar    1  LIG1        0.0550
      9 C          -0.0040   -2.7460    0.0000 C.2     1  LIG1        0.2492
     10 N          -0.8710   -2.2460    0.0000 N.am    1  LIG1       -0.2726
     11 C          -0.8710   -1.2710    0.0000 C.3     1  LIG1        0.1153
     12 C          -1.7290   -0.7460    0.0000 C.3     1  LIG1        0.1182
     13 N          -2.5920   -1.2290    0.0000 N.am    1  LIG1       -0.2425
     14 C          -3.4420   -0.7290    0.0000 C.2     1  LIG1        0.4050
     15 O          -3.4500    0.2500    0.0000 O.2     1  LIG1       -0.2262
     16 O          -4.3210   -1.2080    0.0000 O.3     1  LIG1       -0.4345
     17 C          -5.1920   -0.7170    0.0000 C.3     1  LIG1        0.2102
     18 C          -6.0630   -1.2080    0.0000 C.3     1  LIG1        0.0513
     19 C          -2.6000   -2.2380    0.0000 C.3     1  LIG1        0.1182
     20 C          -1.7290   -2.7630    0.0000 C.3     1  LIG1        0.1153
     21 O          -0.0040   -3.7460    0.0000 O.2     1  LIG1       -0.2699
     22 C           0.8670   -1.2460    0.0000 C.ar    1  LIG1        0.0051
     23 C           1.7290   -0.7460    0.0000 C.ar    1  LIG1        0.0081
     24 C           5.2000   -0.7290    0.0000 C.2     1  LIG1        0.0113
     25 C           5.1880    0.2500    0.0000 C.ar    1  LIG1        0.0008
     26 C           4.3250    0.7250    0.0000 C.ar    1  LIG1        0.0031
     27 C           4.3080    1.7210    0.0000 C.ar    1  LIG1        0.0369
     28 C           5.1500    2.2540    0.0000 C.ar    1  LIG1        0.1387
     29 C           6.0380    1.7500    0.0000 C.ar    1  LIG1        0.0369
     30 C           6.0630    0.7500    0.0000 C.ar    1  LIG1        0.0031
     31 O           5.1330    3.2670    0.0000 O.3     1  LIG1       -0.4714
     32 C           4.2750    3.7540    0.0000 C.3     1  LIG1        0.2525
     33 O           5.2000   -2.7630    0.0000 O.2     1  LIG1       -0.2664
     34 C           3.4580   -3.7500    0.0000 C.3     1  LIG1        0.1336
@<TRIPOS>BOND
     1     1     2   ar
     2     1     6   ar
     3     1    34    1
     4     2     3   ar
     5     2    33    2
     6     3     4   ar
     7     3    24    2
     8     4     5   ar
     9     5     6   ar
    10     5    23   ar
    11     6     7   ar
    12     7     8   ar
    13     8     9    1
    14     8    22   ar
    15     9    10   am
    16     9    21    2
    17    10    11    1
    18    10    20    1
    19    11    12    1
    20    12    13    1
    21    13    14   am
    22    13    19    1
    23    14    15    2
    24    14    16    1
    25    16    17    1
    26    17    18    1
    27    19    20    1
    28    22    23   ar
    29    24    25    1
    30    25    26   ar
    31    25    30   ar
    32    26    27   ar
    33    27    28   ar
    34    28    29   ar
    35    28    31    1
    36    29    30   ar
    37    31    32    1
