@<TRIPOS>MOLECULE
36686_ChemDiv_C310-1174
 36 40 0 0 0
SMALL
GASTEIGER
Energy = 0

@<TRIPOS>ATOM
      1 C           2.6130   -0.5000    0.0000 C.ar    1  LIG1        0.0857
      2 C           2.6130   -1.5080    0.0000 C.ar    1  LIG1        0.2669
      3 N           1.7380   -2.0000    0.0000 N.ar    1  LIG1       -0.2926
      4 C           0.8750   -1.5080    0.0000 C.ar    1  LIG1        0.0686
      5 C           0.8750   -0.5000    0.0000 C.ar    1  LIG1        0.0454
      6 S           1.7380    0.0130    0.0000 S.2     1  LIG1       -0.0807
      7 C           0.0080    0.0000    0.0000 C.ar    1  LIG1        0.0081
      8 C          -0.8540   -0.5000    0.0000 C.ar    1  LIG1        0.0051
      9 C          -0.8540   -1.5080    0.0000 C.ar    1  LIG1        0.0550
     10 C          -1.7250   -2.0000    0.0000 C.2     1  LIG1        0.2491
     11 N          -2.5880   -1.5080    0.0000 N.am    1  LIG1       -0.2761
     12 C          -2.5880   -0.5130    0.0000 C.3     1  LIG1        0.0937
     13 C          -3.4500   -0.0080    0.0000 C.3     1  LIG1        0.0219
     14 C          -4.3290   -0.5000    0.0000 C.3     1  LIG1        0.0078
     15 C          -5.2000    0.0130    0.0000 C.3     1  LIG1        0.0265
     16 C          -5.1920    1.0000    0.0000 C.ar    1  LIG1       -0.0222
     17 C          -4.3130    1.4880    0.0000 C.ar    1  LIG1       -0.0043
     18 C          -4.3130    2.4920    0.0000 C.ar    1  LIG1       -0.0003
     19 C          -5.1920    3.0040    0.0000 C.ar    1  LIG1       -0.0000
     20 C          -6.0540    2.4920    0.0000 C.ar    1  LIG1       -0.0003
     21 C          -6.0540    1.4880    0.0000 C.ar    1  LIG1       -0.0043
     22 C          -4.3130   -1.4880    0.0000 C.3     1  LIG1        0.0219
     23 C          -3.4500   -2.0000    0.0000 C.3     1  LIG1        0.0937
     24 O          -1.7250   -3.0000    0.0000 O.2     1  LIG1       -0.2699
     25 C           0.0080   -2.0000    0.0000 C.ar    1  LIG1        0.0223
     26 C           1.7380   -3.0000    0.0000 C.3     1  LIG1        0.1336
     27 O           3.4750   -2.0130    0.0000 O.2     1  LIG1       -0.2664
     28 C           3.4750    0.0130    0.0000 C.2     1  LIG1        0.0143
     29 C           3.4630    1.0040    0.0000 C.ar    1  LIG1        0.0346
     30 C           4.3130    1.5250    0.0000 C.ar    1  LIG1        0.1387
     31 O           5.1880    1.0380    0.0000 O.3     1  LIG1       -0.4714
     32 C           6.0540    1.5380    0.0000 C.3     1  LIG1        0.2525
     33 C           4.3130    2.5170    0.0000 C.ar    1  LIG1        0.0369
     34 C           3.4500    2.9920    0.0000 C.ar    1  LIG1        0.0031
     35 C           2.5880    2.5040    0.0000 C.ar    1  LIG1        0.0002
     36 C           2.5960    1.5040    0.0000 C.ar    1  LIG1        0.0030
@<TRIPOS>BOND
     1     1     2   ar
     2     1     6   ar
     3     1    28    2
     4     2     3   ar
     5     2    27    2
     6     3     4   ar
     7     3    26    1
     8     4     5   ar
     9     4    25   ar
    10     5     6   ar
    11     5     7   ar
    12     7     8   ar
    13     8     9   ar
    14     9    10    1
    15     9    25   ar
    16    10    11   am
    17    10    24    2
    18    11    12    1
    19    11    23    1
    20    12    13    1
    21    13    14    1
    22    14    15    1
    23    14    22    1
    24    15    16    1
    25    16    17   ar
    26    16    21   ar
    27    17    18   ar
    28    18    19   ar
    29    19    20   ar
    30    20    21   ar
    31    22    23    1
    32    28    29    1
    33    29    30   ar
    34    29    36   ar
    35    30    31    1
    36    30    33   ar
    37    31    32    1
    38    33    34   ar
    39    34    35   ar
    40    35    36   ar
