@<TRIPOS>MOLECULE
36683_ChemDiv_E511-2612
 33 36 0 0 0
SMALL
GASTEIGER
Energy = 0

@<TRIPOS>ATOM
      1 S           0.5670    0.0040    0.0000 S.O2    1  LIG1        0.0638
      2 N           1.0670    0.8710    0.0000 N.3     1  LIG1       -0.1447
      3 C           2.0670    0.8710    0.0000 C.3     1  LIG1        0.1825
      4 C           2.5670    1.7380    0.0000 C.2     1  LIG1        0.2636
      5 N           3.5670    1.7380    0.0000 N.am    1  LIG1       -0.1780
      6 C           4.0630    0.8710    0.0000 C.ar    1  LIG1        0.0734
      7 C           5.0670    0.8710    0.0000 C.ar    1  LIG1        0.0167
      8 C           5.5670    0.0040    0.0000 C.ar    1  LIG1        0.0042
      9 C           5.0670   -0.8630    0.0000 C.ar    1  LIG1        0.0348
     10 C           5.5670   -1.7290    0.0000 C.2     1  LIG1        0.1735
     11 O           6.5630   -1.7290    0.0000 O.2     1  LIG1       -0.2913
     12 C           5.0670   -2.5960    0.0000 C.3     1  LIG1        0.0773
     13 C           4.0630   -0.8630    0.0000 C.ar    1  LIG1        0.0042
     14 C           3.5670    0.0040    0.0000 C.ar    1  LIG1        0.0167
     15 O           2.0670    2.6000    0.0000 O.2     1  LIG1       -0.2714
     16 C           0.5670    1.7380    0.0000 C.3     1  LIG1        0.1155
     17 C          -0.3040    0.5000    0.0000 C.ar    1  LIG1        0.1238
     18 C          -1.1670    0.0040    0.0000 C.ar    1  LIG1        0.0406
     19 C          -2.0330    0.5000    0.0000 C.ar    1  LIG1        0.1019
     20 N          -2.9830    0.1920    0.0000 N.ar    1  LIG1       -0.2250
     21 C          -3.5710    1.0000    0.0000 C.ar    1  LIG1        0.1623
     22 N          -2.9830    1.8130    0.0000 N.ar    1  LIG1       -0.2251
     23 C          -2.0330    1.5040    0.0000 C.ar    1  LIG1        0.1007
     24 C          -1.1670    2.0040    0.0000 C.ar    1  LIG1        0.0221
     25 C          -0.3040    1.5040    0.0000 C.ar    1  LIG1        0.0216
     26 C          -4.5710    1.0000    0.0000 C.ar    1  LIG1        0.0358
     27 C          -5.0710    1.8710    0.0000 C.ar    1  LIG1        0.0030
     28 C          -6.0630    1.8710    0.0000 C.ar    1  LIG1        0.0001
     29 C          -6.5630    1.0000    0.0000 C.ar    1  LIG1        0.0000
     30 C          -6.0630    0.1380    0.0000 C.ar    1  LIG1        0.0001
     31 C          -5.0710    0.1380    0.0000 C.ar    1  LIG1        0.0030
     32 O           1.4330   -0.4920    0.0000 O.2     1  LIG1       -0.1528
     33 O           0.0670   -0.8630    0.0000 O.2     1  LIG1       -0.1528
@<TRIPOS>BOND
     1     1     2    1
     2     1    17    1
     3     1    32    2
     4     1    33    2
     5     2     3    1
     6     2    16    1
     7     3     4    1
     8     4     5   am
     9     4    15    2
    10     5     6    1
    11     6     7   ar
    12     6    14   ar
    13     7     8   ar
    14     8     9   ar
    15     9    10    1
    16     9    13   ar
    17    10    11    2
    18    10    12    1
    19    13    14   ar
    20    17    18   ar
    21    17    25   ar
    22    18    19   ar
    23    19    20   ar
    24    19    23   ar
    25    20    21   ar
    26    21    22   ar
    27    21    26    1
    28    22    23   ar
    29    23    24   ar
    30    24    25   ar
    31    26    27   ar
    32    26    31   ar
    33    27    28   ar
    34    28    29   ar
    35    29    30   ar
    36    30    31   ar
