@<TRIPOS>MOLECULE
36687_ChemDiv_E511-3071
 30 33 0 0 0
SMALL
GASTEIGER
Energy = 0

@<TRIPOS>ATOM
      1 S           1.0670   -0.8630    0.0000 S.O2    1  LIG1        0.0638
      2 N           1.5670    0.0000    0.0000 N.3     1  LIG1       -0.1447
      3 C           2.5670    0.0000    0.0000 C.3     1  LIG1        0.1821
      4 C           3.0670    0.8670    0.0000 C.2     1  LIG1        0.2594
      5 N           4.0670    0.8670    0.0000 N.am    1  LIG1       -0.2060
      6 C           4.5670    0.0000    0.0000 C.3     1  LIG1        0.0954
      7 C           5.5670    0.0000    0.0000 C.3     1  LIG1        0.0217
      8 C           6.0670   -0.8630    0.0000 C.3     1  LIG1        0.0018
      9 C           5.5670   -1.7290    0.0000 C.3     1  LIG1        0.0001
     10 C           4.5670   -1.7290    0.0000 C.3     1  LIG1        0.0018
     11 C           4.0670   -0.8630    0.0000 C.3     1  LIG1        0.0217
     12 O           2.5670    1.7330    0.0000 O.2     1  LIG1       -0.2718
     13 C           1.0670    0.8670    0.0000 C.3     1  LIG1        0.1155
     14 C           0.2000   -0.3630    0.0000 C.ar    1  LIG1        0.1238
     15 C          -0.6710   -0.8630    0.0000 C.ar    1  LIG1        0.0406
     16 C          -1.5330   -0.3630    0.0000 C.ar    1  LIG1        0.1019
     17 N          -2.4830   -0.6750    0.0000 N.ar    1  LIG1       -0.2250
     18 C          -3.0750    0.1380    0.0000 C.ar    1  LIG1        0.1623
     19 N          -2.4830    0.9460    0.0000 N.ar    1  LIG1       -0.2251
     20 C          -1.5330    0.6380    0.0000 C.ar    1  LIG1        0.1007
     21 C          -0.6710    1.1380    0.0000 C.ar    1  LIG1        0.0221
     22 C           0.2000    0.6380    0.0000 C.ar    1  LIG1        0.0216
     23 C          -4.0750    0.1380    0.0000 C.ar    1  LIG1        0.0358
     24 C          -4.5710    1.0040    0.0000 C.ar    1  LIG1        0.0030
     25 C          -5.5710    1.0040    0.0000 C.ar    1  LIG1        0.0001
     26 C          -6.0670    0.1380    0.0000 C.ar    1  LIG1        0.0000
     27 C          -5.5710   -0.7290    0.0000 C.ar    1  LIG1        0.0001
     28 C          -4.5710   -0.7290    0.0000 C.ar    1  LIG1        0.0030
     29 O           1.9330   -1.3630    0.0000 O.2     1  LIG1       -0.1528
     30 O           0.5670   -1.7290    0.0000 O.2     1  LIG1       -0.1528
@<TRIPOS>BOND
     1     1     2    1
     2     1    14    1
     3     1    29    2
     4     1    30    2
     5     2     3    1
     6     2    13    1
     7     3     4    1
     8     4     5   am
     9     4    12    2
    10     5     6    1
    11     6     7    1
    12     6    11    1
    13     7     8    1
    14     8     9    1
    15     9    10    1
    16    10    11    1
    17    14    15   ar
    18    14    22   ar
    19    15    16   ar
    20    16    17   ar
    21    16    20   ar
    22    17    18   ar
    23    18    19   ar
    24    18    23    1
    25    19    20   ar
    26    20    21   ar
    27    21    22   ar
    28    23    24   ar
    29    23    28   ar
    30    24    25   ar
    31    25    26   ar
    32    26    27   ar
    33    27    28   ar
