@<TRIPOS>MOLECULE
36696_ChemDiv_C301-2212
 23 25 0 0 0
SMALL
GASTEIGER
Energy = 0

@<TRIPOS>ATOM
      1 C          -0.2210   -0.4380    0.0000 C.2     1  LIG1        0.2657
      2 C           0.7290   -0.1380    0.0000 C.3     1  LIG1        0.1775
      3 N           1.5330   -0.7380    0.0000 N.am    1  LIG1       -0.1974
      4 C           2.3500   -0.1580    0.0000 C.2     1  LIG1        0.2422
      5 C           2.0540    0.8000    0.0000 C.3     1  LIG1        0.0934
      6 C           1.0460    0.8130    0.0000 C.3     1  LIG1        0.0604
      7 C           0.4670    1.6250    0.0000 C.ar    1  LIG1       -0.0199
      8 C           0.8880    2.5420    0.0000 C.ar    1  LIG1       -0.0042
      9 C           0.3080    3.3540    0.0000 C.ar    1  LIG1       -0.0003
     10 C          -0.6790    3.2540    0.0000 C.ar    1  LIG1       -0.0000
     11 C          -1.1040    2.3460    0.0000 C.ar    1  LIG1       -0.0003
     12 C          -0.5210    1.5380    0.0000 C.ar    1  LIG1       -0.0042
     13 O           3.3040   -0.4750    0.0000 O.2     1  LIG1       -0.2733
     14 N          -0.4500   -1.4080    0.0000 N.am    1  LIG1       -0.1784
     15 C          -1.4040   -1.7080    0.0000 C.ar    1  LIG1        0.0655
     16 C          -2.1250   -1.0330    0.0000 C.ar    1  LIG1       -0.0068
     17 C          -3.0830   -1.3210    0.0000 C.ar    1  LIG1       -0.0030
     18 C          -3.3080   -2.3000    0.0000 C.ar    1  LIG1       -0.0006
     19 C          -2.5670   -2.9790    0.0000 C.ar    1  LIG1       -0.0030
     20 C          -1.6170   -2.6790    0.0000 C.ar    1  LIG1       -0.0068
     21 C          -0.8750   -3.3500    0.0000 C.3     1  LIG1        0.0324
     22 C          -1.9170   -0.0500    0.0000 C.3     1  LIG1        0.0324
     23 O          -0.9630    0.2380    0.0000 O.2     1  LIG1       -0.2711
@<TRIPOS>BOND
     1     1     2    1
     2     1    14   am
     3     1    23    2
     4     2     3    1
     5     2     6    1
     6     3     4   am
     7     4     5    1
     8     4    13    2
     9     5     6    1
    10     6     7    1
    11     7     8   ar
    12     7    12   ar
    13     8     9   ar
    14     9    10   ar
    15    10    11   ar
    16    11    12   ar
    17    14    15    1
    18    15    16   ar
    19    15    20   ar
    20    16    17   ar
    21    16    22    1
    22    17    18   ar
    23    18    19   ar
    24    19    20   ar
    25    20    21    1
