@<TRIPOS>MOLECULE
36692_ChemDiv_C301-1963
 24 26 0 0 0
SMALL
GASTEIGER
Energy = 0

@<TRIPOS>ATOM
      1 N           1.4460    2.2250    0.0000 N.am    1  LIG1       -0.2709
      2 C           1.7540    3.1830    0.0000 C.2     1  LIG1        0.2264
      3 C           0.9460    3.7710    0.0000 C.3     1  LIG1        0.0913
      4 C           0.1380    3.1830    0.0000 C.3     1  LIG1        0.0512
      5 C           0.4460    2.2250    0.0000 C.3     1  LIG1        0.0987
      6 C          -0.8080    3.4830    0.0000 C.ar    1  LIG1       -0.0204
      7 C          -1.0170    4.4580    0.0000 C.ar    1  LIG1       -0.0042
      8 C          -1.9670    4.7670    0.0000 C.ar    1  LIG1       -0.0003
      9 C          -2.7130    4.1000    0.0000 C.ar    1  LIG1       -0.0000
     10 C          -2.4960    3.1210    0.0000 C.ar    1  LIG1       -0.0003
     11 C          -1.5460    2.8170    0.0000 C.ar    1  LIG1       -0.0042
     12 O           2.7080    3.4830    0.0000 O.2     1  LIG1       -0.2748
     13 C           2.0330    1.4170    0.0000 C.3     1  LIG1        0.1808
     14 C           1.6250    0.5080    0.0000 C.2     1  LIG1        0.2617
     15 O           0.6290    0.4000    0.0000 O.2     1  LIG1       -0.2715
     16 N           2.2130   -0.3080    0.0000 N.am    1  LIG1       -0.2036
     17 C           1.8040   -1.2170    0.0000 C.3     1  LIG1        0.1195
     18 C           2.3920   -2.0250    0.0000 C.3     1  LIG1        0.0451
     19 C           1.9830   -2.9460    0.0000 C.2     1  LIG1       -0.0467
     20 C           2.5750   -3.7500    0.0000 C.2     1  LIG1       -0.0346
     21 C           2.1540   -4.6580    0.0000 C.3     1  LIG1        0.0254
     22 C           1.1630   -4.7670    0.0000 C.3     1  LIG1        0.0050
     23 C           0.5790   -3.9500    0.0000 C.3     1  LIG1        0.0047
     24 C           0.9880   -3.0460    0.0000 C.3     1  LIG1        0.0218
@<TRIPOS>BOND
     1     1     2   am
     2     1     5    1
     3     1    13    1
     4     2     3    1
     5     2    12    2
     6     3     4    1
     7     4     5    1
     8     4     6    1
     9     6     7   ar
    10     6    11   ar
    11     7     8   ar
    12     8     9   ar
    13     9    10   ar
    14    10    11   ar
    15    13    14    1
    16    14    15    2
    17    14    16   am
    18    16    17    1
    19    17    18    1
    20    18    19    1
    21    19    20    2
    22    19    24    1
    23    20    21    1
    24    21    22    1
    25    22    23    1
    26    23    24    1
