@<TRIPOS>MOLECULE
36699_ChemDiv_C276-0912
 26 30 0 0 0
SMALL
GASTEIGER
Energy = 0

@<TRIPOS>ATOM
      1 C          -1.2130   -0.5080    0.0000 C.ar    1  LIG1        0.0845
      2 N          -0.3500   -1.0080    0.0000 N.ar    1  LIG1       -0.2453
      3 C           0.5170   -0.5080    0.0000 C.ar    1  LIG1        0.0814
      4 C           0.5170    0.4960    0.0000 C.ar    1  LIG1        0.0203
      5 C          -0.3540    0.9920    0.0000 C.ar    1  LIG1        0.0170
      6 C          -1.2130    0.4920    0.0000 C.ar    1  LIG1        0.0220
      7 C          -2.0790    0.9920    0.0000 C.ar    1  LIG1        0.0416
      8 C          -2.9420    0.4750    0.0000 C.ar    1  LIG1        0.1725
      9 C          -2.9460   -0.5170    0.0000 C.ar    1  LIG1        0.1739
     10 C          -2.0790   -1.0170    0.0000 C.ar    1  LIG1        0.0591
     11 O          -3.8080   -1.0170    0.0000 O.3     1  LIG1       -0.4683
     12 C          -4.6670   -0.5080    0.0000 C.3     1  LIG1        0.2526
     13 C          -4.6670    0.4920    0.0000 C.3     1  LIG1        0.2526
     14 O          -3.8040    0.9750    0.0000 O.3     1  LIG1       -0.4684
     15 C          -0.3630    1.9920    0.0000 C.2     1  LIG1        0.0730
     16 O          -1.2290    2.4920    0.0000 O.co2   1  LIG1       -0.5446
     17 O           0.5000    2.4960    0.0000 O.co2   1  LIG1       -0.5446
     18 C           1.3920   -1.0040    0.0000 C.ar    1  LIG1        0.0209
     19 C           2.2420   -0.4920    0.0000 C.ar    1  LIG1        0.0417
     20 C           3.1080   -0.9880    0.0000 C.ar    1  LIG1        0.1765
     21 C           3.1210   -1.9920    0.0000 C.ar    1  LIG1        0.1764
     22 O           4.0790   -2.2920    0.0000 O.3     1  LIG1       -0.4346
     23 C           4.6630   -1.4750    0.0000 C.3     1  LIG1        0.4294
     24 O           4.0630   -0.6710    0.0000 O.3     1  LIG1       -0.4346
     25 C           2.2540   -2.4920    0.0000 C.ar    1  LIG1        0.0402
     26 C           1.3920   -2.0040    0.0000 C.ar    1  LIG1        0.0048
@<TRIPOS>BOND
     1     1     2   ar
     2     1     6   ar
     3     1    10   ar
     4     2     3   ar
     5     3     4   ar
     6     3    18    1
     7     4     5   ar
     8     5     6   ar
     9     5    15    1
    10     6     7   ar
    11     7     8   ar
    12     8     9   ar
    13     8    14    1
    14     9    10   ar
    15     9    11    1
    16    11    12    1
    17    12    13    1
    18    13    14    1
    19    15    16   ar
    20    15    17   ar
    21    18    19   ar
    22    18    26   ar
    23    19    20   ar
    24    20    21   ar
    25    20    24    1
    26    21    22    1
    27    21    25   ar
    28    22    23    1
    29    23    24    1
    30    25    26   ar
