@<TRIPOS>MOLECULE
36694_ChemDiv_C301-1979
 26 29 0 0 0
SMALL
GASTEIGER
Energy = 0

@<TRIPOS>ATOM
      1 N           1.4460    2.2210    0.0000 N.am    1  LIG1       -0.2709
      2 C           1.7500    3.1710    0.0000 C.2     1  LIG1        0.2264
      3 C           0.9460    3.7630    0.0000 C.3     1  LIG1        0.0913
      4 C           0.1330    3.1710    0.0000 C.3     1  LIG1        0.0512
      5 C           0.4420    2.2210    0.0000 C.3     1  LIG1        0.0987
      6 C          -0.8170    3.4750    0.0000 C.ar    1  LIG1       -0.0204
      7 C          -1.0170    4.4540    0.0000 C.ar    1  LIG1       -0.0042
      8 C          -1.9670    4.7710    0.0000 C.ar    1  LIG1       -0.0003
      9 C          -2.7130    4.0960    0.0000 C.ar    1  LIG1       -0.0000
     10 C          -2.5000    3.1130    0.0000 C.ar    1  LIG1       -0.0003
     11 C          -1.5540    2.8130    0.0000 C.ar    1  LIG1       -0.0042
     12 O           2.7080    3.4830    0.0000 O.2     1  LIG1       -0.2748
     13 C           2.0290    1.4170    0.0000 C.3     1  LIG1        0.1812
     14 C           1.6210    0.5000    0.0000 C.2     1  LIG1        0.2658
     15 N           2.2130   -0.3080    0.0000 N.am    1  LIG1       -0.1778
     16 C           1.8040   -1.2250    0.0000 C.ar    1  LIG1        0.0734
     17 C           2.3920   -2.0290    0.0000 C.ar    1  LIG1        0.0166
     18 C           1.9880   -2.9420    0.0000 C.ar    1  LIG1        0.0013
     19 C           0.9960   -3.0460    0.0000 C.ar    1  LIG1        0.0001
     20 C           0.4040   -2.2420    0.0000 C.ar    1  LIG1        0.0013
     21 C           0.8130   -1.3250    0.0000 C.ar    1  LIG1        0.0166
     22 C           0.5880   -3.9580    0.0000 C.ar    1  LIG1        0.0000
     23 C           1.1710   -4.7710    0.0000 C.ar    1  LIG1        0.0000
     24 C           2.1710   -4.6540    0.0000 C.ar    1  LIG1        0.0000
     25 C           2.5750   -3.7460    0.0000 C.ar    1  LIG1        0.0000
     26 O           0.6330    0.3920    0.0000 O.2     1  LIG1       -0.2711
@<TRIPOS>BOND
     1     1     2   am
     2     1     5    1
     3     1    13    1
     4     2     3    1
     5     2    12    2
     6     3     4    1
     7     4     5    1
     8     4     6    1
     9     6     7   ar
    10     6    11   ar
    11     7     8   ar
    12     8     9   ar
    13     9    10   ar
    14    10    11   ar
    15    13    14    1
    16    14    15   am
    17    14    26    2
    18    15    16    1
    19    16    17   ar
    20    16    21   ar
    21    17    18   ar
    22    18    19   ar
    23    18    25   ar
    24    19    20   ar
    25    19    22   ar
    26    20    21   ar
    27    22    23   ar
    28    23    24   ar
    29    24    25   ar
