@<TRIPOS>MOLECULE
36709_ChemDiv_E511-3364
 35 39 0 0 0
SMALL
GASTEIGER
Energy = 0

@<TRIPOS>ATOM
      1 S          -2.1750   -2.2580    0.0000 S.O2    1  LIG1        0.0637
      2 N          -1.5080   -1.5170    0.0000 N.3     1  LIG1       -0.1481
      3 C          -0.5080   -1.6210    0.0000 C.3     1  LIG1        0.1571
      4 C          -0.0080   -2.4880    0.0000 C.2     1  LIG1        0.2578
      5 N           0.9920   -2.4880    0.0000 N.am    1  LIG1       -0.1994
      6 C           1.4960   -3.3540    0.0000 C.3     1  LIG1        0.1415
      7 C           2.4920   -3.3540    0.0000 C.ar    1  LIG1       -0.0004
      8 C           2.9920   -4.2170    0.0000 C.ar    1  LIG1        0.0006
      9 C           3.9920   -4.2170    0.0000 C.ar    1  LIG1        0.0366
     10 C           4.4920   -3.3540    0.0000 C.ar    1  LIG1        0.1387
     11 C           3.9920   -2.4880    0.0000 C.ar    1  LIG1        0.0366
     12 C           2.9920   -2.4880    0.0000 C.ar    1  LIG1        0.0006
     13 O           5.4960   -3.3540    0.0000 O.3     1  LIG1       -0.4714
     14 C           5.9960   -4.2170    0.0000 C.3     1  LIG1        0.2525
     15 O          -0.5080   -3.3540    0.0000 O.2     1  LIG1       -0.2718
     16 C          -0.1040   -0.7080    0.0000 C.3     1  LIG1        0.0286
     17 C          -0.8500   -0.0380    0.0000 C.3     1  LIG1        0.0211
     18 C          -1.7130   -0.5380    0.0000 C.3     1  LIG1        0.0964
     19 C          -2.9210   -1.5920    0.0000 C.ar    1  LIG1        0.1238
     20 C          -2.7080   -0.6130    0.0000 C.ar    1  LIG1        0.0406
     21 C          -3.4580    0.0540    0.0000 C.ar    1  LIG1        0.1019
     22 N          -3.4580    1.0580    0.0000 N.ar    1  LIG1       -0.2250
     23 C          -4.4040    1.3670    0.0000 C.ar    1  LIG1        0.1623
     24 N          -4.9920    0.5580    0.0000 N.ar    1  LIG1       -0.2251
     25 C          -4.4040   -0.2500    0.0000 C.ar    1  LIG1        0.1007
     26 C          -4.6130   -1.2290    0.0000 C.ar    1  LIG1        0.0221
     27 C          -3.8710   -1.9000    0.0000 C.ar    1  LIG1        0.0216
     28 C          -4.7130    2.3210    0.0000 C.ar    1  LIG1        0.0358
     29 C          -5.6920    2.5250    0.0000 C.ar    1  LIG1        0.0030
     30 C          -6.0000    3.4750    0.0000 C.ar    1  LIG1        0.0001
     31 C          -5.3330    4.2170    0.0000 C.ar    1  LIG1        0.0000
     32 C          -4.3500    4.0130    0.0000 C.ar    1  LIG1        0.0001
     33 C          -4.0420    3.0580    0.0000 C.ar    1  LIG1        0.0030
     34 O          -1.4290   -2.9290    0.0000 O.2     1  LIG1       -0.1528
     35 O          -2.8420   -3.0000    0.0000 O.2     1  LIG1       -0.1528
@<TRIPOS>BOND
     1     1     2    1
     2     1    19    1
     3     1    34    2
     4     1    35    2
     5     2     3    1
     6     2    18    1
     7     3     4    1
     8     3    16    1
     9     4     5   am
    10     4    15    2
    11     5     6    1
    12     6     7    1
    13     7     8   ar
    14     7    12   ar
    15     8     9   ar
    16     9    10   ar
    17    10    11   ar
    18    10    13    1
    19    11    12   ar
    20    13    14    1
    21    16    17    1
    22    17    18    1
    23    19    20   ar
    24    19    27   ar
    25    20    21   ar
    26    21    22   ar
    27    21    25   ar
    28    22    23   ar
    29    23    24   ar
    30    23    28    1
    31    24    25   ar
    32    25    26   ar
    33    26    27   ar
    34    28    29   ar
    35    28    33   ar
    36    29    30   ar
    37    30    31   ar
    38    31    32   ar
    39    32    33   ar
