@<TRIPOS>MOLECULE
36700_ChemDiv_C301-1390
 16 18 0 0 0
SMALL
GASTEIGER
Energy = 0

@<TRIPOS>ATOM
      1 C           1.7330   -0.3580    0.0000 C.ar    1  LIG1        0.2284
      2 N           0.8670    0.1500    0.0000 N.ar    1  LIG1       -0.2720
      3 C          -0.0040   -0.3580    0.0000 C.ar    1  LIG1        0.0840
      4 C          -0.0040   -1.3750    0.0000 C.ar    1  LIG1        0.1007
      5 N           0.8580   -1.8670    0.0000 N.ar    1  LIG1       -0.2038
      6 C           1.7330   -1.3750    0.0000 C.ar    1  LIG1        0.3156
      7 O           2.5790   -1.8580    0.0000 O.2     1  LIG1       -0.2618
      8 C          -0.8670   -1.8670    0.0000 C.ar    1  LIG1        0.0204
      9 C          -1.7290   -1.3670    0.0000 C.ar    1  LIG1       -0.0026
     10 C          -1.7290   -0.3710    0.0000 C.ar    1  LIG1       -0.0203
     11 C          -0.8670    0.1380    0.0000 C.ar    1  LIG1        0.0149
     12 C          -2.5830    0.1210    0.0000 C.3     1  LIG1        0.0311
     13 C           1.0830    1.1330    0.0000 C.ar    1  LIG1        0.1477
     14 N           2.0830    1.2380    0.0000 N.ar    1  LIG1       -0.1328
     15 N           2.4880    0.3170    0.0000 N.ar    1  LIG1       -0.1237
     16 C           0.4290    1.8710    0.0000 C.3     1  LIG1        0.0742
@<TRIPOS>BOND
     1     1     2   ar
     2     1     6   ar
     3     1    15   ar
     4     2     3   ar
     5     2    13   ar
     6     3     4   ar
     7     3    11   ar
     8     4     5   ar
     9     4     8   ar
    10     5     6   ar
    11     6     7    2
    12     8     9   ar
    13     9    10   ar
    14    10    11   ar
    15    10    12    1
    16    13    14   ar
    17    13    16    1
    18    14    15   ar
