@<TRIPOS>MOLECULE
36707_ChemDiv_E511-3329
 33 37 0 0 0
SMALL
GASTEIGER
Energy = 0

@<TRIPOS>ATOM
      1 S          -0.1290   -2.4040    0.0000 S.O2    1  LIG1        0.0633
      2 N           0.3710   -1.5420    0.0000 N.3     1  LIG1       -0.1555
      3 C           1.3710   -1.5420    0.0000 C.3     1  LIG1        0.0963
      4 C           1.8710   -0.6750    0.0000 C.3     1  LIG1        0.0283
      5 C           1.3710    0.1960    0.0000 C.3     1  LIG1        0.0796
      6 C           1.8710    1.0630    0.0000 C.2     1  LIG1        0.2252
      7 N           2.8710    1.0630    0.0000 N.am    1  LIG1       -0.2795
      8 C           3.3040    0.1580    0.0000 C.3     1  LIG1        0.0934
      9 C           4.2790   -0.0670    0.0000 C.3     1  LIG1        0.0215
     10 C           5.0580    0.5580    0.0000 C.3     1  LIG1        0.0018
     11 C           5.0580    1.5580    0.0000 C.3     1  LIG1        0.0018
     12 C           4.2790    2.1830    0.0000 C.3     1  LIG1        0.0215
     13 C           3.3040    1.9580    0.0000 C.3     1  LIG1        0.0934
     14 O           1.3710    1.9250    0.0000 O.2     1  LIG1       -0.2749
     15 C           0.3710    0.1960    0.0000 C.3     1  LIG1        0.0283
     16 C          -0.1290   -0.6750    0.0000 C.3     1  LIG1        0.0963
     17 C          -0.9960   -1.9040    0.0000 C.ar    1  LIG1        0.1238
     18 C          -0.9960   -0.9080    0.0000 C.ar    1  LIG1        0.0406
     19 C          -1.8580   -0.4040    0.0000 C.ar    1  LIG1        0.1019
     20 N          -2.0670    0.5750    0.0000 N.ar    1  LIG1       -0.2250
     21 C          -3.0630    0.6790    0.0000 C.ar    1  LIG1        0.1623
     22 N          -3.4670   -0.2380    0.0000 N.ar    1  LIG1       -0.2251
     23 C          -2.7250   -0.9080    0.0000 C.ar    1  LIG1        0.1007
     24 C          -2.7250   -1.9040    0.0000 C.ar    1  LIG1        0.0221
     25 C          -1.8580   -2.4040    0.0000 C.ar    1  LIG1        0.0216
     26 C          -3.5630    1.5420    0.0000 C.ar    1  LIG1        0.0358
     27 C          -3.0630    2.4080    0.0000 C.ar    1  LIG1        0.0030
     28 C          -3.5630    3.2750    0.0000 C.ar    1  LIG1        0.0001
     29 C          -4.5630    3.2750    0.0000 C.ar    1  LIG1        0.0000
     30 C          -5.0630    2.4080    0.0000 C.ar    1  LIG1        0.0001
     31 C          -4.5630    1.5420    0.0000 C.ar    1  LIG1        0.0030
     32 O           0.7380   -2.9040    0.0000 O.2     1  LIG1       -0.1528
     33 O          -0.6290   -3.2710    0.0000 O.2     1  LIG1       -0.1528
@<TRIPOS>BOND
     1     1     2    1
     2     1    17    1
     3     1    32    2
     4     1    33    2
     5     2     3    1
     6     2    16    1
     7     3     4    1
     8     4     5    1
     9     5     6    1
    10     5    15    1
    11     6     7   am
    12     6    14    2
    13     7     8    1
    14     7    13    1
    15     8     9    1
    16     9    10    1
    17    10    11    1
    18    11    12    1
    19    12    13    1
    20    15    16    1
    21    17    18   ar
    22    17    25   ar
    23    18    19   ar
    24    19    20   ar
    25    19    23   ar
    26    20    21   ar
    27    21    22   ar
    28    21    26    1
    29    22    23   ar
    30    23    24   ar
    31    24    25   ar
    32    26    27   ar
    33    26    31   ar
    34    27    28   ar
    35    28    29   ar
    36    29    30   ar
    37    30    31   ar
