@<TRIPOS>MOLECULE
36703_ChemDiv_C278-0012
 24 25 0 0 0
SMALL
GASTEIGER
Energy = 0

@<TRIPOS>ATOM
      1 S          -3.9040    0.7500    0.0000 S.O2    1  LIG1       -0.0082
      2 O          -4.6130    1.4630    0.0000 O.2     1  LIG1       -0.1729
      3 O          -3.1960    1.4630    0.0000 O.2     1  LIG1       -0.1729
      4 C          -3.0420    0.2500    0.0000 C.3     1  LIG1        0.1532
      5 C          -2.1790    0.7500    0.0000 C.3     1  LIG1        0.0564
      6 C          -1.3170    0.2500    0.0000 C.3     1  LIG1        0.1748
      7 C          -0.4460    0.7500    0.0000 C.2     1  LIG1        0.2655
      8 N           0.4170    0.2500    0.0000 N.am    1  LIG1       -0.1777
      9 C           1.2960    0.7630    0.0000 C.ar    1  LIG1        0.0766
     10 C           2.1630    0.2500    0.0000 C.ar    1  LIG1        0.0566
     11 C           3.0250    0.7380    0.0000 C.ar    1  LIG1        0.1737
     12 C           3.0250    1.7460    0.0000 C.ar    1  LIG1        0.1725
     13 O           3.9000    2.2500    0.0000 O.3     1  LIG1       -0.4684
     14 C           4.7630    1.7460    0.0000 C.3     1  LIG1        0.2526
     15 C           4.7630    0.7630    0.0000 C.3     1  LIG1        0.2526
     16 O           3.8960    0.2500    0.0000 O.3     1  LIG1       -0.4683
     17 C           2.1630    2.2420    0.0000 C.ar    1  LIG1        0.0414
     18 C           1.2830    1.7460    0.0000 C.ar    1  LIG1        0.0199
     19 O          -0.4420    1.7500    0.0000 O.2     1  LIG1       -0.2711
     20 N          -1.3170   -0.7500    0.0000 N.am    1  LIG1       -0.1977
     21 C          -2.1790   -1.2500    0.0000 C.2     1  LIG1        0.2423
     22 O          -3.0420   -0.7500    0.0000 O.2     1  LIG1       -0.2733
     23 C          -2.1790   -2.2460    0.0000 C.3     1  LIG1        0.0964
     24 C          -4.7670    0.2500    0.0000 C.3     1  LIG1        0.1760
@<TRIPOS>BOND
     1     1     2    2
     2     1     3    2
     3     1     4    1
     4     1    24    1
     5     4     5    1
     6     5     6    1
     7     6     7    1
     8     6    20    1
     9     7     8   am
    10     7    19    2
    11     8     9    1
    12     9    10   ar
    13     9    18   ar
    14    10    11   ar
    15    11    12   ar
    16    11    16    1
    17    12    13    1
    18    12    17   ar
    19    13    14    1
    20    14    15    1
    21    15    16    1
    22    17    18   ar
    23    20    21   am
    24    21    22    2
    25    21    23    1
