@<TRIPOS>MOLECULE
36715_ChemDiv_E511-3640
 27 29 0 0 0
SMALL
GASTEIGER
Energy = 0

@<TRIPOS>ATOM
      1 S           1.0670   -0.8630    0.0000 S.O2    1  LIG1        0.0638
      2 N           1.5670    0.0000    0.0000 N.3     1  LIG1       -0.1447
      3 C           2.5670    0.0000    0.0000 C.3     1  LIG1        0.1821
      4 C           3.0670    0.8670    0.0000 C.2     1  LIG1        0.2594
      5 O           2.5670    1.7330    0.0000 O.2     1  LIG1       -0.2718
      6 N           4.0670    0.8670    0.0000 N.am    1  LIG1       -0.2042
      7 C           4.5670    0.0000    0.0000 C.3     1  LIG1        0.1152
      8 C           5.5670    0.0000    0.0000 C.3     1  LIG1        0.0234
      9 C           6.0670   -0.8630    0.0000 C.3     1  LIG1        0.0019
     10 C           1.0670    0.8670    0.0000 C.3     1  LIG1        0.1155
     11 C           0.2000   -0.3630    0.0000 C.ar    1  LIG1        0.1238
     12 C          -0.6710   -0.8630    0.0000 C.ar    1  LIG1        0.0406
     13 C          -1.5330   -0.3630    0.0000 C.ar    1  LIG1        0.1019
     14 N          -2.4830   -0.6750    0.0000 N.ar    1  LIG1       -0.2250
     15 C          -3.0750    0.1380    0.0000 C.ar    1  LIG1        0.1623
     16 N          -2.4830    0.9460    0.0000 N.ar    1  LIG1       -0.2251
     17 C          -1.5330    0.6380    0.0000 C.ar    1  LIG1        0.1007
     18 C          -0.6710    1.1380    0.0000 C.ar    1  LIG1        0.0221
     19 C           0.2000    0.6380    0.0000 C.ar    1  LIG1        0.0216
     20 C          -4.0750    0.1380    0.0000 C.ar    1  LIG1        0.0358
     21 C          -4.5710    1.0040    0.0000 C.ar    1  LIG1        0.0030
     22 C          -5.5710    1.0040    0.0000 C.ar    1  LIG1        0.0001
     23 C          -6.0670    0.1380    0.0000 C.ar    1  LIG1        0.0000
     24 C          -5.5710   -0.7290    0.0000 C.ar    1  LIG1        0.0001
     25 C          -4.5710   -0.7290    0.0000 C.ar    1  LIG1        0.0030
     26 O           1.9330   -1.3670    0.0000 O.2     1  LIG1       -0.1528
     27 O           0.5670   -1.7290    0.0000 O.2     1  LIG1       -0.1528
@<TRIPOS>BOND
     1     1     2    1
     2     1    11    1
     3     1    26    2
     4     1    27    2
     5     2     3    1
     6     2    10    1
     7     3     4    1
     8     4     5    2
     9     4     6   am
    10     6     7    1
    11     7     8    1
    12     8     9    1
    13    11    12   ar
    14    11    19   ar
    15    12    13   ar
    16    13    14   ar
    17    13    17   ar
    18    14    15   ar
    19    15    16   ar
    20    15    20    1
    21    16    17   ar
    22    17    18   ar
    23    18    19   ar
    24    20    21   ar
    25    20    25   ar
    26    21    22   ar
    27    22    23   ar
    28    23    24   ar
    29    24    25   ar
