@<TRIPOS>MOLECULE
36719_ChemDiv_E511-3888
 34 38 0 0 0
SMALL
GASTEIGER
Energy = 0

@<TRIPOS>ATOM
      1 S          -1.1710   -1.3920    0.0000 S.O2    1  LIG1        0.0637
      2 N          -0.5040   -0.6460    0.0000 N.3     1  LIG1       -0.1481
      3 C           0.4920   -0.7500    0.0000 C.3     1  LIG1        0.1575
      4 C           0.9880   -1.6210    0.0000 C.2     1  LIG1        0.2617
      5 N           1.9880   -1.6210    0.0000 N.am    1  LIG1       -0.1781
      6 C           2.4920   -2.4830    0.0000 C.ar    1  LIG1        0.0728
      7 C           3.4920   -2.4830    0.0000 C.ar    1  LIG1        0.0123
      8 C           3.9920   -3.3500    0.0000 C.ar    1  LIG1       -0.0209
      9 C           3.4920   -4.2170    0.0000 C.ar    1  LIG1       -0.0084
     10 C           2.4920   -4.2170    0.0000 C.ar    1  LIG1       -0.0209
     11 C           1.9880   -3.3500    0.0000 C.ar    1  LIG1        0.0123
     12 C           1.9880   -5.0830    0.0000 C.3     1  LIG1        0.0311
     13 C           4.9920   -3.3500    0.0000 C.3     1  LIG1        0.0311
     14 O           0.4920   -2.4830    0.0000 O.2     1  LIG1       -0.2715
     15 C           0.8960    0.1630    0.0000 C.3     1  LIG1        0.0286
     16 C           0.1540    0.8330    0.0000 C.3     1  LIG1        0.0211
     17 C          -0.7130    0.3290    0.0000 C.3     1  LIG1        0.0964
     18 C          -1.9170   -0.7210    0.0000 C.ar    1  LIG1        0.1238
     19 C          -1.7130    0.2540    0.0000 C.ar    1  LIG1        0.0406
     20 C          -2.4500    0.9290    0.0000 C.ar    1  LIG1        0.1019
     21 N          -2.4500    1.9250    0.0000 N.ar    1  LIG1       -0.2250
     22 C          -3.4040    2.2330    0.0000 C.ar    1  LIG1        0.1623
     23 N          -3.9920    1.4290    0.0000 N.ar    1  LIG1       -0.2251
     24 C          -3.4040    0.6170    0.0000 C.ar    1  LIG1        0.1007
     25 C          -3.6130   -0.3630    0.0000 C.ar    1  LIG1        0.0221
     26 C          -2.8670   -1.0330    0.0000 C.ar    1  LIG1        0.0216
     27 C          -3.7080    3.1830    0.0000 C.ar    1  LIG1        0.0358
     28 C          -4.6880    3.3960    0.0000 C.ar    1  LIG1        0.0030
     29 C          -4.9960    4.3420    0.0000 C.ar    1  LIG1        0.0001
     30 C          -4.3290    5.0830    0.0000 C.ar    1  LIG1        0.0000
     31 C          -3.3540    4.8790    0.0000 C.ar    1  LIG1        0.0001
     32 C          -3.0420    3.9290    0.0000 C.ar    1  LIG1        0.0030
     33 O          -0.4290   -2.0580    0.0000 O.2     1  LIG1       -0.1528
     34 O          -1.8420   -2.1330    0.0000 O.2     1  LIG1       -0.1528
@<TRIPOS>BOND
     1     1     2    1
     2     1    18    1
     3     1    33    2
     4     1    34    2
     5     2     3    1
     6     2    17    1
     7     3     4    1
     8     3    15    1
     9     4     5   am
    10     4    14    2
    11     5     6    1
    12     6     7   ar
    13     6    11   ar
    14     7     8   ar
    15     8     9   ar
    16     8    13    1
    17     9    10   ar
    18    10    11   ar
    19    10    12    1
    20    15    16    1
    21    16    17    1
    22    18    19   ar
    23    18    26   ar
    24    19    20   ar
    25    20    21   ar
    26    20    24   ar
    27    21    22   ar
    28    22    23   ar
    29    22    27    1
    30    23    24   ar
    31    24    25   ar
    32    25    26   ar
    33    27    28   ar
    34    27    32   ar
    35    28    29   ar
    36    29    30   ar
    37    30    31   ar
    38    31    32   ar
