@<TRIPOS>MOLECULE
36711_ChemDiv_E511-3389
 34 38 0 0 0
SMALL
GASTEIGER
Energy = 0

@<TRIPOS>ATOM
      1 S          -1.9210   -2.2580    0.0000 S.O2    1  LIG1        0.0637
      2 N          -1.2540   -1.5130    0.0000 N.3     1  LIG1       -0.1481
      3 C          -0.2580   -1.6210    0.0000 C.3     1  LIG1        0.1571
      4 C           0.2420   -2.4880    0.0000 C.2     1  LIG1        0.2578
      5 N           1.2420   -2.4880    0.0000 N.am    1  LIG1       -0.1994
      6 C           1.7460   -3.3500    0.0000 C.3     1  LIG1        0.1415
      7 C           2.7420   -3.3500    0.0000 C.ar    1  LIG1       -0.0006
      8 C           3.2420   -4.2170    0.0000 C.ar    1  LIG1       -0.0029
      9 C           4.2420   -4.2170    0.0000 C.ar    1  LIG1       -0.0045
     10 C           4.7420   -3.3500    0.0000 C.ar    1  LIG1       -0.0219
     11 C           4.2420   -2.4880    0.0000 C.ar    1  LIG1       -0.0045
     12 C           3.2420   -2.4880    0.0000 C.ar    1  LIG1       -0.0029
     13 C           5.7460   -3.3500    0.0000 C.3     1  LIG1        0.0310
     14 O          -0.2580   -3.3500    0.0000 O.2     1  LIG1       -0.2718
     15 C           0.1460   -0.7040    0.0000 C.3     1  LIG1        0.0286
     16 C          -0.5960   -0.0380    0.0000 C.3     1  LIG1        0.0211
     17 C          -1.4630   -0.5330    0.0000 C.3     1  LIG1        0.0964
     18 C          -2.6670   -1.5880    0.0000 C.ar    1  LIG1        0.1238
     19 C          -2.4580   -0.6080    0.0000 C.ar    1  LIG1        0.0406
     20 C          -3.2000    0.0630    0.0000 C.ar    1  LIG1        0.1019
     21 N          -3.2000    1.0580    0.0000 N.ar    1  LIG1       -0.2250
     22 C          -4.1500    1.3670    0.0000 C.ar    1  LIG1        0.1623
     23 N          -4.7380    0.5580    0.0000 N.ar    1  LIG1       -0.2251
     24 C          -4.1500   -0.2500    0.0000 C.ar    1  LIG1        0.1007
     25 C          -4.3630   -1.2290    0.0000 C.ar    1  LIG1        0.0221
     26 C          -3.6170   -1.8960    0.0000 C.ar    1  LIG1        0.0216
     27 C          -4.4580    2.3170    0.0000 C.ar    1  LIG1        0.0358
     28 C          -5.4380    2.5290    0.0000 C.ar    1  LIG1        0.0030
     29 C          -5.7500    3.4790    0.0000 C.ar    1  LIG1        0.0001
     30 C          -5.0790    4.2170    0.0000 C.ar    1  LIG1        0.0000
     31 C          -4.1000    4.0080    0.0000 C.ar    1  LIG1        0.0001
     32 C          -3.7880    3.0630    0.0000 C.ar    1  LIG1        0.0030
     33 O          -1.1790   -2.9250    0.0000 O.2     1  LIG1       -0.1528
     34 O          -2.5880   -3.0000    0.0000 O.2     1  LIG1       -0.1528
@<TRIPOS>BOND
     1     1     2    1
     2     1    18    1
     3     1    33    2
     4     1    34    2
     5     2     3    1
     6     2    17    1
     7     3     4    1
     8     3    15    1
     9     4     5   am
    10     4    14    2
    11     5     6    1
    12     6     7    1
    13     7     8   ar
    14     7    12   ar
    15     8     9   ar
    16     9    10   ar
    17    10    11   ar
    18    10    13    1
    19    11    12   ar
    20    15    16    1
    21    16    17    1
    22    18    19   ar
    23    18    26   ar
    24    19    20   ar
    25    20    21   ar
    26    20    24   ar
    27    21    22   ar
    28    22    23   ar
    29    22    27    1
    30    23    24   ar
    31    24    25   ar
    32    25    26   ar
    33    27    28   ar
    34    27    32   ar
    35    28    29   ar
    36    29    30   ar
    37    30    31   ar
    38    31    32   ar
