@<TRIPOS>MOLECULE
36713_ChemDiv_E511-3484
 31 35 0 0 0
SMALL
GASTEIGER
Energy = 0

@<TRIPOS>ATOM
      1 S           0.1960   -2.4040    0.0000 S.O2    1  LIG1        0.0633
      2 N           0.6960   -1.5420    0.0000 N.3     1  LIG1       -0.1555
      3 C           1.6960   -1.5420    0.0000 C.3     1  LIG1        0.0963
      4 C           2.1960   -0.6750    0.0000 C.3     1  LIG1        0.0283
      5 C           1.6960    0.1960    0.0000 C.3     1  LIG1        0.0796
      6 C           2.1960    1.0630    0.0000 C.2     1  LIG1        0.2252
      7 N           3.1960    1.0630    0.0000 N.am    1  LIG1       -0.2795
      8 C           3.7790    0.2540    0.0000 C.3     1  LIG1        0.0935
      9 C           4.7330    0.5580    0.0000 C.3     1  LIG1        0.0233
     10 C           4.7330    1.5580    0.0000 C.3     1  LIG1        0.0233
     11 C           3.7790    1.8710    0.0000 C.3     1  LIG1        0.0935
     12 O           1.6960    1.9250    0.0000 O.2     1  LIG1       -0.2749
     13 C           0.6960    0.1960    0.0000 C.3     1  LIG1        0.0283
     14 C           0.1960   -0.6750    0.0000 C.3     1  LIG1        0.0963
     15 C          -0.6710   -1.9040    0.0000 C.ar    1  LIG1        0.1238
     16 C          -0.6710   -0.9080    0.0000 C.ar    1  LIG1        0.0406
     17 C          -1.5330   -0.4040    0.0000 C.ar    1  LIG1        0.1019
     18 N          -1.7420    0.5750    0.0000 N.ar    1  LIG1       -0.2250
     19 C          -2.7380    0.6790    0.0000 C.ar    1  LIG1        0.1623
     20 N          -3.1420   -0.2380    0.0000 N.ar    1  LIG1       -0.2251
     21 C          -2.4000   -0.9080    0.0000 C.ar    1  LIG1        0.1007
     22 C          -2.4000   -1.9040    0.0000 C.ar    1  LIG1        0.0221
     23 C          -1.5330   -2.4040    0.0000 C.ar    1  LIG1        0.0216
     24 C          -3.2380    1.5420    0.0000 C.ar    1  LIG1        0.0358
     25 C          -2.7380    2.4080    0.0000 C.ar    1  LIG1        0.0030
     26 C          -3.2380    3.2750    0.0000 C.ar    1  LIG1        0.0001
     27 C          -4.2380    3.2750    0.0000 C.ar    1  LIG1        0.0000
     28 C          -4.7380    2.4080    0.0000 C.ar    1  LIG1        0.0001
     29 C          -4.2380    1.5420    0.0000 C.ar    1  LIG1        0.0030
     30 O           1.0630   -2.9040    0.0000 O.2     1  LIG1       -0.1528
     31 O          -0.3040   -3.2710    0.0000 O.2     1  LIG1       -0.1528
@<TRIPOS>BOND
     1     1     2    1
     2     1    15    1
     3     1    30    2
     4     1    31    2
     5     2     3    1
     6     2    14    1
     7     3     4    1
     8     4     5    1
     9     5     6    1
    10     5    13    1
    11     6     7   am
    12     6    12    2
    13     7     8    1
    14     7    11    1
    15     8     9    1
    16     9    10    1
    17    10    11    1
    18    13    14    1
    19    15    16   ar
    20    15    23   ar
    21    16    17   ar
    22    17    18   ar
    23    17    21   ar
    24    18    19   ar
    25    19    20   ar
    26    19    24    1
    27    20    21   ar
    28    21    22   ar
    29    22    23   ar
    30    24    25   ar
    31    24    29   ar
    32    25    26   ar
    33    26    27   ar
    34    27    28   ar
    35    28    29   ar
