@<TRIPOS>MOLECULE
36726_ChemDiv_C301-2822
 32 37 0 0 0
SMALL
GASTEIGER
Energy = 0

@<TRIPOS>ATOM
      1 C          -1.6130    0.2920    0.0000 C.ar    1  LIG1        0.1298
      2 C          -2.0080   -0.6290    0.0000 C.ar    1  LIG1        0.2881
      3 N          -1.4170   -1.4210    0.0000 N.ar    1  LIG1       -0.2196
      4 C          -1.8130   -2.3420    0.0000 C.3     1  LIG1        0.0899
      5 C          -0.9000   -2.7080    0.0000 C.3     1  LIG1        0.0278
      6 C          -0.9080   -3.7130    0.0000 C.3     1  LIG1        0.0339
      7 C           0.0960   -3.6670    0.0000 C.2     1  LIG1        0.0497
      8 O           0.5630   -2.7790    0.0000 O.co2   1  LIG1       -0.5492
      9 O           0.6290   -4.5130    0.0000 O.co2   1  LIG1       -0.5492
     10 C          -1.8170   -3.9330    0.0000 C.3     1  LIG1        0.0053
     11 C          -2.6750   -3.6130    0.0000 C.3     1  LIG1        0.0022
     12 C          -2.6790   -2.6500    0.0000 C.3     1  LIG1        0.0226
     13 C          -3.4540   -4.4380    0.0000 C.3     1  LIG1        0.0001
     14 C          -2.4790   -4.1670    0.0000 C.3     1  LIG1        0.0022
     15 C          -2.4830   -3.1330    0.0000 C.3     1  LIG1        0.0226
     16 C          -1.5710   -4.5380    0.0000 C.3     1  LIG1        0.0053
     17 N          -0.4170   -1.3130    0.0000 N.ar    1  LIG1       -0.1640
     18 C          -0.0210   -0.4000    0.0000 C.ar    1  LIG1        0.1357
     19 C          -0.6130    0.4040    0.0000 C.ar    1  LIG1        0.0844
     20 N          -0.2080    1.3250    0.0000 N.pl3   1  LIG1       -0.3051
     21 C           0.7670    1.5420    0.0000 C.3     1  LIG1        0.0952
     22 C           0.8580    2.5380    0.0000 C.3     1  LIG1        0.0438
     23 C          -0.0540    2.9380    0.0000 C.3     1  LIG1        0.0275
     24 C          -0.7210    2.1880    0.0000 C.3     1  LIG1        0.0912
     25 C           1.7210    3.0420    0.0000 C.ar    1  LIG1       -0.0208
     26 C           2.5880    2.5420    0.0000 C.ar    1  LIG1       -0.0042
     27 C           3.4500    3.0540    0.0000 C.ar    1  LIG1       -0.0003
     28 C           3.4500    4.0500    0.0000 C.ar    1  LIG1       -0.0000
     29 C           2.5710    4.5380    0.0000 C.ar    1  LIG1       -0.0003
     30 C           1.7170    4.0330    0.0000 C.ar    1  LIG1       -0.0042
     31 O          -3.0080   -0.7380    0.0000 O.2     1  LIG1       -0.2645
     32 CL         -2.2040    1.0960    0.0000 Cl      1  LIG1       -0.0759
@<TRIPOS>BOND
     1     1     2   ar
     2     1    19   ar
     3     1    32    1
     4     2     3   ar
     5     2    31    2
     6     3     4    1
     7     3    17   ar
     8     4     5    1
     9     4    12    1
    10     4    15    1
    11     5     6    1
    12     6     7    1
    13     6    10    1
    14     6    16    1
    15     7     8   ar
    16     7     9   ar
    17    10    11    1
    18    11    12    1
    19    11    13    1
    20    13    14    1
    21    14    15    1
    22    14    16    1
    23    17    18   ar
    24    18    19   ar
    25    19    20    1
    26    20    21    1
    27    20    24    1
    28    21    22    1
    29    22    23    1
    30    22    25    1
    31    23    24    1
    32    25    26   ar
    33    25    30   ar
    34    26    27   ar
    35    27    28   ar
    36    28    29   ar
    37    29    30   ar
