@<TRIPOS>MOLECULE
36722_ChemDiv_C301-2158
 32 37 0 0 0
SMALL
GASTEIGER
Energy = 0

@<TRIPOS>ATOM
      1 N           0.3290    2.1630    0.0000 N.ar    1  LIG1       -0.2196
      2 C          -0.5420    2.6580    0.0000 C.ar    1  LIG1        0.2881
      3 C          -1.3960    2.1630    0.0000 C.ar    1  LIG1        0.1318
      4 C          -1.3960    1.1630    0.0000 C.ar    1  LIG1        0.1065
      5 C          -0.5420    0.6540    0.0000 C.ar    1  LIG1        0.1376
      6 N           0.3290    1.1630    0.0000 N.ar    1  LIG1       -0.1639
      7 N          -2.3670    0.9000    0.0000 N.pl3   1  LIG1       -0.2097
      8 C          -2.6290   -0.0670    0.0000 C.ar    1  LIG1        0.0738
      9 C          -1.9170   -0.7630    0.0000 C.ar    1  LIG1        0.0565
     10 C          -2.1750   -1.7290    0.0000 C.ar    1  LIG1        0.1737
     11 C          -3.1420   -1.9830    0.0000 C.ar    1  LIG1        0.1725
     12 O          -3.3920   -2.9500    0.0000 O.3     1  LIG1       -0.4684
     13 C          -2.6920   -3.6540    0.0000 C.3     1  LIG1        0.2526
     14 C          -1.7250   -3.4000    0.0000 C.3     1  LIG1        0.2526
     15 O          -1.4580   -2.4330    0.0000 O.3     1  LIG1       -0.4683
     16 C          -3.8460   -1.2830    0.0000 C.ar    1  LIG1        0.0414
     17 C          -3.5960   -0.3290    0.0000 C.ar    1  LIG1        0.0198
     18 CL         -2.2710    2.6580    0.0000 Cl      1  LIG1       -0.0758
     19 O          -0.5420    3.6580    0.0000 O.2     1  LIG1       -0.2645
     20 C           1.2040    2.6580    0.0000 C.3     1  LIG1        0.0899
     21 C           1.0500    1.6670    0.0000 C.3     1  LIG1        0.0278
     22 C           1.8920    1.1630    0.0000 C.3     1  LIG1        0.0339
     23 C           1.3630    0.3210    0.0000 C.2     1  LIG1        0.0497
     24 O           1.8290   -0.5670    0.0000 O.co2   1  LIG1       -0.5492
     25 O           0.3630    0.3540    0.0000 O.co2   1  LIG1       -0.5492
     26 C           2.6830    1.8540    0.0000 C.3     1  LIG1        0.0053
     27 C           2.8290    2.8790    0.0000 C.3     1  LIG1        0.0022
     28 C           1.9790    3.3750    0.0000 C.3     1  LIG1        0.0226
     29 C           3.8420    3.0040    0.0000 C.3     1  LIG1        0.0001
     30 C           2.9460    2.3000    0.0000 C.3     1  LIG1        0.0022
     31 C           2.1380    2.7380    0.0000 C.3     1  LIG1        0.0226
     32 C           2.8040    1.3420    0.0000 C.3     1  LIG1        0.0053
@<TRIPOS>BOND
     1     1     2   ar
     2     1     6   ar
     3     1    20    1
     4     2     3   ar
     5     2    19    2
     6     3     4   ar
     7     3    18    1
     8     4     5   ar
     9     4     7    1
    10     5     6   ar
    11     7     8    1
    12     8     9   ar
    13     8    17   ar
    14     9    10   ar
    15    10    11   ar
    16    10    15    1
    17    11    12    1
    18    11    16   ar
    19    12    13    1
    20    13    14    1
    21    14    15    1
    22    16    17   ar
    23    20    21    1
    24    20    28    1
    25    20    31    1
    26    21    22    1
    27    22    23    1
    28    22    26    1
    29    22    32    1
    30    23    24   ar
    31    23    25   ar
    32    26    27    1
    33    27    28    1
    34    27    29    1
    35    29    30    1
    36    30    31    1
    37    30    32    1
