@<TRIPOS>MOLECULE
36724_ChemDiv_C301-2286
 31 36 0 0 0
SMALL
GASTEIGER
Energy = 0

@<TRIPOS>ATOM
      1 N           0.3330    2.0040    0.0000 N.ar    1  LIG1       -0.2196
      2 C          -0.5250    2.5040    0.0000 C.ar    1  LIG1        0.2881
      3 C          -1.3830    2.0130    0.0000 C.ar    1  LIG1        0.1318
      4 C          -1.3750    1.0080    0.0000 C.ar    1  LIG1        0.1065
      5 C          -0.5250    0.5130    0.0000 C.ar    1  LIG1        0.1376
      6 N           0.3330    1.0080    0.0000 N.ar    1  LIG1       -0.1639
      7 N          -2.3500    0.7540    0.0000 N.pl3   1  LIG1       -0.2097
      8 C          -2.6210   -0.2130    0.0000 C.ar    1  LIG1        0.0738
      9 C          -1.9130   -0.9040    0.0000 C.ar    1  LIG1        0.0567
     10 C          -2.1750   -1.8710    0.0000 C.ar    1  LIG1        0.1777
     11 C          -3.1500   -2.1420    0.0000 C.ar    1  LIG1        0.1765
     12 O          -3.1960   -3.1380    0.0000 O.3     1  LIG1       -0.4346
     13 C          -2.2580   -3.5000    0.0000 C.3     1  LIG1        0.4294
     14 O          -1.6250   -2.7170    0.0000 O.3     1  LIG1       -0.4346
     15 C          -3.8500   -1.4330    0.0000 C.ar    1  LIG1        0.0415
     16 C          -3.5880   -0.4630    0.0000 C.ar    1  LIG1        0.0198
     17 CL         -2.2580    2.5080    0.0000 Cl      1  LIG1       -0.0758
     18 O          -0.5250    3.5040    0.0000 O.2     1  LIG1       -0.2645
     19 C           1.2080    2.5040    0.0000 C.3     1  LIG1        0.0899
     20 C           1.0580    1.5250    0.0000 C.3     1  LIG1        0.0278
     21 C           1.9040    1.0170    0.0000 C.3     1  LIG1        0.0339
     22 C           1.3750    0.1790    0.0000 C.2     1  LIG1        0.0497
     23 O           1.8380   -0.7080    0.0000 O.co2   1  LIG1       -0.5492
     24 O           0.3790    0.2130    0.0000 O.co2   1  LIG1       -0.5492
     25 C           2.6880    1.7040    0.0000 C.3     1  LIG1        0.0053
     26 C           2.8380    2.7290    0.0000 C.3     1  LIG1        0.0022
     27 C           1.9880    3.2290    0.0000 C.3     1  LIG1        0.0226
     28 C           3.8460    2.8500    0.0000 C.3     1  LIG1        0.0001
     29 C           2.9540    2.1580    0.0000 C.3     1  LIG1        0.0022
     30 C           2.1460    2.5960    0.0000 C.3     1  LIG1        0.0226
     31 C           2.8080    1.1920    0.0000 C.3     1  LIG1        0.0053
@<TRIPOS>BOND
     1     1     2   ar
     2     1     6   ar
     3     1    19    1
     4     2     3   ar
     5     2    18    2
     6     3     4   ar
     7     3    17    1
     8     4     5   ar
     9     4     7    1
    10     5     6   ar
    11     7     8    1
    12     8     9   ar
    13     8    16   ar
    14     9    10   ar
    15    10    11   ar
    16    10    14    1
    17    11    12    1
    18    11    15   ar
    19    12    13    1
    20    13    14    1
    21    15    16   ar
    22    19    20    1
    23    19    27    1
    24    19    30    1
    25    20    21    1
    26    21    22    1
    27    21    25    1
    28    21    31    1
    29    22    23   ar
    30    22    24   ar
    31    25    26    1
    32    26    27    1
    33    26    28    1
    34    28    29    1
    35    29    30    1
    36    29    31    1
