@<TRIPOS>MOLECULE
36723_ChemDiv_C279-0801
 20 21 0 0 0
SMALL
GASTEIGER
Energy = 0

@<TRIPOS>ATOM
      1 S           3.5420    0.3880    0.0000 S.O2    1  LIG1        0.0592
      2 O           2.8290   -0.3210    0.0000 O.2     1  LIG1       -0.1561
      3 O           4.2460   -0.3210    0.0000 O.2     1  LIG1       -0.1561
      4 N           2.6710    0.8880    0.0000 N.3     1  LIG1       -0.0816
      5 C           1.8080    0.3880    0.0000 C.3     1  LIG1        0.1199
      6 C           0.9460    0.8880    0.0000 C.3     1  LIG1        0.0520
      7 C           0.0790    0.3880    0.0000 C.ar    1  LIG1        0.0372
      8 C           0.0790   -0.6130    0.0000 C.ar    1  LIG1        0.2752
      9 N          -0.7880   -1.1130    0.0000 N.ar    1  LIG1       -0.2081
     10 C          -1.6580   -0.6130    0.0000 C.ar    1  LIG1        0.0842
     11 C          -1.6500    0.3880    0.0000 C.ar    1  LIG1        0.0173
     12 C          -0.7880    0.8920    0.0000 C.ar    1  LIG1        0.0020
     13 C          -2.5250    0.8880    0.0000 C.ar    1  LIG1       -0.0031
     14 C          -3.3830    0.3880    0.0000 C.ar    1  LIG1       -0.0257
     15 C          -3.3830   -0.6130    0.0000 C.ar    1  LIG1       -0.0243
     16 C          -2.5250   -1.1130    0.0000 C.ar    1  LIG1        0.0146
     17 C          -4.2500   -1.1130    0.0000 C.3     1  LIG1        0.0307
     18 C          -4.2500    0.8880    0.0000 C.3     1  LIG1        0.0307
     19 O           0.9460   -1.1130    0.0000 O.2     1  LIG1       -0.2655
     20 C           4.2290    1.1170    0.0000 C.3     1  LIG1        0.1975
@<TRIPOS>BOND
     1     1     2    2
     2     1     3    2
     3     1     4    1
     4     1    20    1
     5     4     5    1
     6     5     6    1
     7     6     7    1
     8     7     8   ar
     9     7    12   ar
    10     8     9   ar
    11     8    19    2
    12     9    10   ar
    13    10    11   ar
    14    10    16   ar
    15    11    12   ar
    16    11    13   ar
    17    13    14   ar
    18    14    15   ar
    19    14    18    1
    20    15    16   ar
    21    15    17    1
