@<TRIPOS>MOLECULE
36725_ChemDiv_C279-0825
 22 23 0 0 0
SMALL
GASTEIGER
Energy = 0

@<TRIPOS>ATOM
      1 N          -1.2170   -1.0000    0.0000 N.ar    1  LIG1       -0.2050
      2 C          -2.0920   -0.4920    0.0000 C.ar    1  LIG1        0.1212
      3 C          -2.0830    0.5080    0.0000 C.ar    1  LIG1        0.0545
      4 C          -1.2170    1.0080    0.0000 C.ar    1  LIG1        0.0052
      5 C          -0.3500    0.5080    0.0000 C.ar    1  LIG1        0.0373
      6 C          -0.3500   -0.5000    0.0000 C.ar    1  LIG1        0.2753
      7 O           0.5130   -1.0000    0.0000 O.2     1  LIG1       -0.2655
      8 C           0.5130    1.0000    0.0000 C.3     1  LIG1        0.0520
      9 C           1.3750    0.5000    0.0000 C.3     1  LIG1        0.1199
     10 N           2.2500    1.0000    0.0000 N.3     1  LIG1       -0.0816
     11 S           3.1130    0.4960    0.0000 S.O2    1  LIG1        0.0592
     12 O           3.8170   -0.2130    0.0000 O.2     1  LIG1       -0.1561
     13 O           2.4000   -0.2130    0.0000 O.2     1  LIG1       -0.1561
     14 C           3.8000    1.2210    0.0000 C.3     1  LIG1        0.1975
     15 C          -2.9540    1.0080    0.0000 C.ar    1  LIG1        0.1403
     16 C          -3.8210    0.5000    0.0000 C.ar    1  LIG1        0.0401
     17 C          -3.8210   -0.5000    0.0000 C.ar    1  LIG1        0.0416
     18 C          -2.9540   -1.0000    0.0000 C.ar    1  LIG1        0.1565
     19 O          -2.9460   -1.9920    0.0000 O.3     1  LIG1       -0.4699
     20 C          -2.0750   -2.4880    0.0000 C.3     1  LIG1        0.2525
     21 O          -2.9540    1.9960    0.0000 O.3     1  LIG1       -0.4714
     22 C          -3.8210    2.4920    0.0000 C.3     1  LIG1        0.2525
@<TRIPOS>BOND
     1     1     2   ar
     2     1     6   ar
     3     2     3   ar
     4     2    18   ar
     5     3     4   ar
     6     3    15   ar
     7     4     5   ar
     8     5     6   ar
     9     5     8    1
    10     6     7    2
    11     8     9    1
    12     9    10    1
    13    10    11    1
    14    11    12    2
    15    11    13    2
    16    11    14    1
    17    15    16   ar
    18    15    21    1
    19    16    17   ar
    20    17    18   ar
    21    18    19    1
    22    19    20    1
    23    21    22    1
