@<TRIPOS>MOLECULE
36727_ChemDiv_K844-0789
 19 20 0 0 0
SMALL
GASTEIGER
Energy = 0

@<TRIPOS>ATOM
      1 C          -0.8630    0.0080    0.0000 C.ar    1  LIG1        0.0837
      2 C          -1.7380    0.5080    0.0000 C.ar    1  LIG1        0.1982
      3 C          -2.5880    0.0080    0.0000 C.ar    1  LIG1        0.0565
      4 C          -2.5880   -0.9920    0.0000 C.ar    1  LIG1        0.0876
      5 N          -1.7380   -1.4920    0.0000 N.ar    1  LIG1       -0.2079
      6 C          -0.8630   -0.9920    0.0000 C.ar    1  LIG1        0.2787
      7 O           0.0040   -1.5040    0.0000 O.2     1  LIG1       -0.2654
      8 C          -3.4630   -1.4920    0.0000 C.ar    1  LIG1        0.0193
      9 C          -4.3250   -0.9920    0.0000 C.ar    1  LIG1        0.0015
     10 C          -4.3250    0.0080    0.0000 C.ar    1  LIG1        0.0002
     11 C          -3.4630    0.5080    0.0000 C.ar    1  LIG1        0.0047
     12 O          -1.7380    1.5080    0.0000 O.3     1  LIG1       -0.2867
     13 C           0.0040    0.5080    0.0000 C.3     1  LIG1        0.1212
     14 C           0.8710    0.0000    0.0000 C.2     1  LIG1        0.2462
     15 O           0.8710   -1.0040    0.0000 O.2     1  LIG1       -0.2730
     16 N           1.7330    0.5000    0.0000 N.am    1  LIG1       -0.2023
     17 C           2.5960    0.0080    0.0000 C.3     1  LIG1        0.1506
     18 C           3.4580    0.5080    0.0000 C.3     1  LIG1        0.2054
     19 O           4.3210    0.0170    0.0000 O.3     1  LIG1       -0.2184
@<TRIPOS>BOND
     1     1     2   ar
     2     1     6   ar
     3     1    13    1
     4     2     3   ar
     5     2    12    1
     6     3     4   ar
     7     3    11   ar
     8     4     5   ar
     9     4     8   ar
    10     5     6   ar
    11     6     7    2
    12     8     9   ar
    13     9    10   ar
    14    10    11   ar
    15    13    14    1
    16    14    15    2
    17    14    16   am
    18    16    17    1
    19    17    18    1
    20    18    19    1
