@<TRIPOS>MOLECULE
36728_ChemDiv_C719-0224
 32 37 0 0 0
SMALL
GASTEIGER
Energy = 0

@<TRIPOS>ATOM
      1 N          -0.0250    0.4880    0.0000 N.ar    1  LIG1       -0.2196
      2 C          -0.8790    0.9830    0.0000 C.ar    1  LIG1        0.2881
      3 C          -1.7500    0.5040    0.0000 C.ar    1  LIG1        0.1318
      4 C          -1.7500   -0.5000    0.0000 C.ar    1  LIG1        0.1065
      5 C          -0.8960   -1.0170    0.0000 C.ar    1  LIG1        0.1376
      6 N          -0.0250   -0.5040    0.0000 N.ar    1  LIG1       -0.1639
      7 N          -2.6250   -1.0000    0.0000 N.pl3   1  LIG1       -0.2097
      8 C          -2.6380   -2.0000    0.0000 C.ar    1  LIG1        0.0738
      9 C          -1.7670   -2.5130    0.0000 C.ar    1  LIG1        0.0567
     10 C          -1.7830   -3.5210    0.0000 C.ar    1  LIG1        0.1777
     11 C          -2.6540   -4.0040    0.0000 C.ar    1  LIG1        0.1765
     12 O          -2.4670   -4.9830    0.0000 O.3     1  LIG1       -0.4346
     13 C          -1.4710   -5.1080    0.0000 C.3     1  LIG1        0.4294
     14 O          -1.0500   -4.2080    0.0000 O.3     1  LIG1       -0.4346
     15 C          -3.5130   -3.4920    0.0000 C.ar    1  LIG1        0.0415
     16 C          -3.5040   -2.4920    0.0000 C.ar    1  LIG1        0.0198
     17 CL         -2.6080    1.0000    0.0000 Cl      1  LIG1       -0.0758
     18 O          -0.8710    1.9830    0.0000 O.2     1  LIG1       -0.2645
     19 C           0.8460    0.9790    0.0000 C.3     1  LIG1        0.0896
     20 C           0.6630    1.9380    0.0000 C.3     1  LIG1        0.0230
     21 C           1.5000    2.4790    0.0000 C.3     1  LIG1        0.0070
     22 C           1.2330    3.4380    0.0000 C.3     1  LIG1        0.0417
     23 C           1.9330    4.1500    0.0000 C.2     1  LIG1        0.0503
     24 O           1.6710    5.1080    0.0000 O.co2   1  LIG1       -0.5492
     25 O           2.9000    3.8960    0.0000 O.co2   1  LIG1       -0.5492
     26 C           2.5580    2.3830    0.0000 C.3     1  LIG1        0.0005
     27 C           2.7420    1.4210    0.0000 C.3     1  LIG1        0.0019
     28 C           1.8880    0.8460    0.0000 C.3     1  LIG1        0.0226
     29 C           3.5080    0.7420    0.0000 C.3     1  LIG1        0.0001
     30 C           2.3830    0.9420    0.0000 C.3     1  LIG1        0.0019
     31 C           1.5790    0.4170    0.0000 C.3     1  LIG1        0.0226
     32 C           2.1830    1.8420    0.0000 C.3     1  LIG1        0.0005
@<TRIPOS>BOND
     1     1     2   ar
     2     1     6   ar
     3     1    19    1
     4     2     3   ar
     5     2    18    2
     6     3     4   ar
     7     3    17    1
     8     4     5   ar
     9     4     7    1
    10     5     6   ar
    11     7     8    1
    12     8     9   ar
    13     8    16   ar
    14     9    10   ar
    15    10    11   ar
    16    10    14    1
    17    11    12    1
    18    11    15   ar
    19    12    13    1
    20    13    14    1
    21    15    16   ar
    22    19    20    1
    23    19    28    1
    24    19    31    1
    25    20    21    1
    26    21    22    1
    27    21    26    1
    28    21    32    1
    29    22    23    1
    30    23    24   ar
    31    23    25   ar
    32    26    27    1
    33    27    28    1
    34    27    29    1
    35    29    30    1
    36    30    31    1
    37    30    32    1
