@<TRIPOS>MOLECULE
36731_ChemDiv_C281-0089
 28 32 0 0 0
SMALL
GASTEIGER
Energy = 0

@<TRIPOS>ATOM
      1 C          -0.0250   -2.1170    0.0000 C.3     1  LIG1        0.1284
      2 C           0.8420   -2.5960    0.0000 C.ar    1  LIG1        0.0250
      3 C           0.8580   -3.6000    0.0000 C.ar    1  LIG1        0.1420
      4 O           0.0040   -4.1250    0.0000 O.3     1  LIG1       -0.4541
      5 C          -0.8790   -3.6290    0.0000 C.ar    1  LIG1        0.1420
      6 C          -0.8790   -2.6290    0.0000 C.ar    1  LIG1        0.0250
      7 C          -1.7460   -2.1330    0.0000 C.ar    1  LIG1       -0.0005
      8 C          -2.6040   -2.6420    0.0000 C.ar    1  LIG1       -0.0001
      9 C          -2.6040   -3.6380    0.0000 C.ar    1  LIG1        0.0031
     10 C          -1.7290   -4.1290    0.0000 C.ar    1  LIG1        0.0372
     11 C           1.7380   -4.0880    0.0000 C.ar    1  LIG1        0.0372
     12 C           2.6000   -3.5790    0.0000 C.ar    1  LIG1        0.0031
     13 C           2.5830   -2.5670    0.0000 C.ar    1  LIG1       -0.0001
     14 C           1.7040   -2.0880    0.0000 C.ar    1  LIG1       -0.0005
     15 C          -0.0330   -1.1130    0.0000 C.2     1  LIG1        0.2494
     16 O          -0.9130   -0.6290    0.0000 O.2     1  LIG1       -0.2726
     17 N           0.8250   -0.6040    0.0000 N.am    1  LIG1       -0.2028
     18 C           0.8080    0.3960    0.0000 C.3     1  LIG1        0.1396
     19 C          -0.0630    0.8790    0.0000 C.3     1  LIG1        0.1294
     20 N          -0.0790    1.8750    0.0000 N.ar    1  LIG1       -0.3242
     21 C           0.7210    2.4710    0.0000 C.ar    1  LIG1        0.0760
     22 C           0.4080    3.4210    0.0000 C.ar    1  LIG1        0.0201
     23 C          -0.5920    3.4040    0.0000 C.ar    1  LIG1        0.0173
     24 C          -0.8960    2.4500    0.0000 C.ar    1  LIG1        0.0600
     25 C          -1.8670    2.2210    0.0000 C.ar    1  LIG1        0.0172
     26 C          -2.5420    2.9540    0.0000 C.ar    1  LIG1        0.0015
     27 C          -2.2460    3.9210    0.0000 C.ar    1  LIG1        0.0001
     28 C          -1.2750    4.1290    0.0000 C.ar    1  LIG1        0.0015
@<TRIPOS>BOND
     1     1     2    1
     2     1     6    1
     3     1    15    1
     4     2     3   ar
     5     2    14   ar
     6     3     4    1
     7     3    11   ar
     8     4     5    1
     9     5     6   ar
    10     5    10   ar
    11     6     7   ar
    12     7     8   ar
    13     8     9   ar
    14     9    10   ar
    15    11    12   ar
    16    12    13   ar
    17    13    14   ar
    18    15    16    2
    19    15    17   am
    20    17    18    1
    21    18    19    1
    22    19    20    1
    23    20    21   ar
    24    20    24   ar
    25    21    22   ar
    26    22    23   ar
    27    23    24   ar
    28    23    28   ar
    29    24    25   ar
    30    25    26   ar
    31    26    27   ar
    32    27    28   ar
