@<TRIPOS>MOLECULE
36730_ChemDiv_C719-0225
 34 38 0 0 0
SMALL
GASTEIGER
Energy = 0

@<TRIPOS>ATOM
      1 N           0.8420    0.4500    0.0000 N.ar    1  LIG1       -0.2196
      2 C          -0.0170    0.9460    0.0000 C.ar    1  LIG1        0.2881
      3 C          -0.8880    0.4630    0.0000 C.ar    1  LIG1        0.1318
      4 C          -0.8880   -0.5380    0.0000 C.ar    1  LIG1        0.1066
      5 C          -0.0330   -1.0540    0.0000 C.ar    1  LIG1        0.1376
      6 N           0.8420   -0.5460    0.0000 N.ar    1  LIG1       -0.1639
      7 N          -1.7630   -1.0380    0.0000 N.pl3   1  LIG1       -0.2068
      8 C          -1.7710   -2.0380    0.0000 C.ar    1  LIG1        0.1044
      9 C          -0.9000   -2.5500    0.0000 C.ar    1  LIG1        0.0207
     10 C          -0.9170   -3.5540    0.0000 C.ar    1  LIG1        0.0155
     11 C          -0.0500   -4.0750    0.0000 C.2     1  LIG1        0.0729
     12 O           0.8250   -3.5750    0.0000 O.co2   1  LIG1       -0.5446
     13 O          -0.0670   -5.0710    0.0000 O.co2   1  LIG1       -0.5446
     14 C          -1.7880   -4.0420    0.0000 C.ar    1  LIG1        0.0043
     15 C          -2.6460   -3.5330    0.0000 C.ar    1  LIG1        0.0383
     16 C          -2.6420   -2.5290    0.0000 C.ar    1  LIG1        0.1538
     17 O          -3.5040   -2.0250    0.0000 O.3     1  LIG1       -0.4701
     18 C          -4.3710   -2.5170    0.0000 C.3     1  LIG1        0.2525
     19 CL         -1.7460    0.9630    0.0000 Cl      1  LIG1       -0.0758
     20 O          -0.0080    1.9460    0.0000 O.2     1  LIG1       -0.2645
     21 C           1.7080    0.9420    0.0000 C.3     1  LIG1        0.0896
     22 C           1.5250    1.9000    0.0000 C.3     1  LIG1        0.0230
     23 C           2.3630    2.4380    0.0000 C.3     1  LIG1        0.0070
     24 C           2.0960    3.4000    0.0000 C.3     1  LIG1        0.0417
     25 C           2.7960    4.1130    0.0000 C.2     1  LIG1        0.0503
     26 O           2.5330    5.0710    0.0000 O.co2   1  LIG1       -0.5492
     27 O           3.7630    3.8580    0.0000 O.co2   1  LIG1       -0.5492
     28 C           3.4210    2.3460    0.0000 C.3     1  LIG1        0.0005
     29 C           3.6040    1.3790    0.0000 C.3     1  LIG1        0.0019
     30 C           2.7500    0.8080    0.0000 C.3     1  LIG1        0.0226
     31 C           4.3670    0.7040    0.0000 C.3     1  LIG1        0.0001
     32 C           3.2460    0.9040    0.0000 C.3     1  LIG1        0.0019
     33 C           2.4420    0.3790    0.0000 C.3     1  LIG1        0.0226
     34 C           3.0460    1.8040    0.0000 C.3     1  LIG1        0.0005
@<TRIPOS>BOND
     1     1     2   ar
     2     1     6   ar
     3     1    21    1
     4     2     3   ar
     5     2    20    2
     6     3     4   ar
     7     3    19    1
     8     4     5   ar
     9     4     7    1
    10     5     6   ar
    11     7     8    1
    12     8     9   ar
    13     8    16   ar
    14     9    10   ar
    15    10    11    1
    16    10    14   ar
    17    11    12   ar
    18    11    13   ar
    19    14    15   ar
    20    15    16   ar
    21    16    17    1
    22    17    18    1
    23    21    22    1
    24    21    30    1
    25    21    33    1
    26    22    23    1
    27    23    24    1
    28    23    28    1
    29    23    34    1
    30    24    25    1
    31    25    26   ar
    32    25    27   ar
    33    28    29    1
    34    29    30    1
    35    29    31    1
    36    31    32    1
    37    32    33    1
    38    32    34    1
