@<TRIPOS>MOLECULE
36738_ChemDiv_C312-0611
 33 36 0 0 0
SMALL
GASTEIGER
Energy = 0

@<TRIPOS>ATOM
      1 N          -1.3170    2.7580    0.0000 N.ar    1  LIG1       -0.2858
      2 C          -0.4420    3.2540    0.0000 C.ar    1  LIG1        0.2672
      3 C          -0.4420    4.2630    0.0000 C.ar    1  LIG1        0.0856
      4 S          -1.3080    4.7710    0.0000 S.2     1  LIG1       -0.0807
      5 C          -2.1790    4.2630    0.0000 C.ar    1  LIG1        0.0455
      6 C          -2.1790    3.2540    0.0000 C.ar    1  LIG1        0.0689
      7 C          -3.0420    2.7630    0.0000 C.ar    1  LIG1        0.0178
      8 C          -3.9040    3.2580    0.0000 C.ar    1  LIG1        0.0015
      9 C          -3.9040    4.2540    0.0000 C.ar    1  LIG1        0.0006
     10 C          -3.0420    4.7630    0.0000 C.ar    1  LIG1        0.0079
     11 C           0.4290    4.7630    0.0000 C.2     1  LIG1        0.0113
     12 C           1.2920    4.2540    0.0000 C.ar    1  LIG1        0.0006
     13 C           2.1460    4.7500    0.0000 C.ar    1  LIG1       -0.0003
     14 C           3.0040    4.2500    0.0000 C.ar    1  LIG1       -0.0043
     15 C           3.0040    3.2540    0.0000 C.ar    1  LIG1       -0.0218
     16 C           2.1540    2.7630    0.0000 C.ar    1  LIG1       -0.0043
     17 C           1.2830    3.2710    0.0000 C.ar    1  LIG1       -0.0003
     18 C           3.9000    2.7580    0.0000 C.3     1  LIG1        0.0310
     19 O           0.4210    2.7580    0.0000 O.2     1  LIG1       -0.2664
     20 C          -1.3170    1.7580    0.0000 C.3     1  LIG1        0.1943
     21 C          -2.1790    1.2630    0.0000 C.2     1  LIG1        0.2489
     22 N          -2.1790    0.2630    0.0000 N.am    1  LIG1       -0.2744
     23 C          -3.0290   -0.2170    0.0000 C.3     1  LIG1        0.1151
     24 C          -3.0580   -1.2330    0.0000 C.3     1  LIG1        0.1182
     25 N          -2.2000   -1.7500    0.0000 N.am    1  LIG1       -0.2425
     26 C          -2.2080   -2.7250    0.0000 C.2     1  LIG1        0.4050
     27 O          -3.0710   -3.2290    0.0000 O.2     1  LIG1       -0.2262
     28 O          -1.3500   -3.2460    0.0000 O.3     1  LIG1       -0.4345
     29 C          -1.3500   -4.2460    0.0000 C.3     1  LIG1        0.2102
     30 C          -0.4920   -4.7710    0.0000 C.3     1  LIG1        0.0513
     31 C          -1.3210   -1.2500    0.0000 C.3     1  LIG1        0.1182
     32 C          -1.3080   -0.2380    0.0000 C.3     1  LIG1        0.1151
     33 O          -3.0420    1.7630    0.0000 O.2     1  LIG1       -0.2728
@<TRIPOS>BOND
     1     1     2   ar
     2     1     6   ar
     3     1    20    1
     4     2     3   ar
     5     2    19    2
     6     3     4   ar
     7     3    11    2
     8     4     5   ar
     9     5     6   ar
    10     5    10   ar
    11     6     7   ar
    12     7     8   ar
    13     8     9   ar
    14     9    10   ar
    15    11    12    1
    16    12    13   ar
    17    12    17   ar
    18    13    14   ar
    19    14    15   ar
    20    15    16   ar
    21    15    18    1
    22    16    17   ar
    23    20    21    1
    24    21    22   am
    25    21    33    2
    26    22    23    1
    27    22    32    1
    28    23    24    1
    29    24    25    1
    30    25    26   am
    31    25    31    1
    32    26    27    2
    33    26    28    1
    34    28    29    1
    35    29    30    1
    36    31    32    1
