@<TRIPOS>MOLECULE
36732_ChemDiv_C719-0229
 33 37 0 0 0
SMALL
GASTEIGER
Energy = 0

@<TRIPOS>ATOM
      1 N           0.4210    1.1880    0.0000 N.ar    1  LIG1       -0.2196
      2 C          -0.4380    1.6830    0.0000 C.ar    1  LIG1        0.2881
      3 C          -1.3080    1.2000    0.0000 C.ar    1  LIG1        0.1318
      4 C          -1.3080    0.1960    0.0000 C.ar    1  LIG1        0.1065
      5 C          -0.4500   -0.3170    0.0000 C.ar    1  LIG1        0.1376
      6 N           0.4210    0.1920    0.0000 N.ar    1  LIG1       -0.1639
      7 N          -2.1830   -0.3000    0.0000 N.pl3   1  LIG1       -0.2098
      8 C          -2.1920   -1.3040    0.0000 C.ar    1  LIG1        0.0707
      9 C          -1.3210   -1.8130    0.0000 C.ar    1  LIG1        0.0178
     10 C          -1.3380   -2.8210    0.0000 C.ar    1  LIG1        0.0179
     11 C          -2.2080   -3.3040    0.0000 C.ar    1  LIG1        0.0734
     12 N          -2.2250   -4.3130    0.0000 N.am    1  LIG1       -0.1792
     13 C          -3.0960   -4.8000    0.0000 C.2     1  LIG1        0.2461
     14 O          -3.1080   -5.8040    0.0000 O.2     1  LIG1       -0.2730
     15 C          -3.9540   -4.2830    0.0000 C.3     1  LIG1        0.0968
     16 C          -3.0670   -2.7960    0.0000 C.ar    1  LIG1        0.0179
     17 C          -3.0580   -1.7960    0.0000 C.ar    1  LIG1        0.0178
     18 CL         -2.1670    1.6960    0.0000 Cl      1  LIG1       -0.0758
     19 O          -0.4250    2.6830    0.0000 O.2     1  LIG1       -0.2645
     20 C           1.2920    1.6790    0.0000 C.3     1  LIG1        0.0896
     21 C           1.1040    2.6330    0.0000 C.3     1  LIG1        0.0230
     22 C           1.9420    3.1750    0.0000 C.3     1  LIG1        0.0070
     23 C           1.6790    4.1330    0.0000 C.3     1  LIG1        0.0417
     24 C           2.3750    4.8460    0.0000 C.2     1  LIG1        0.0503
     25 O           2.1130    5.8040    0.0000 O.co2   1  LIG1       -0.5492
     26 O           3.3420    4.5880    0.0000 O.co2   1  LIG1       -0.5492
     27 C           2.6290    2.5380    0.0000 C.3     1  LIG1        0.0005
     28 C           2.8290    1.6420    0.0000 C.3     1  LIG1        0.0019
     29 C           2.0210    1.1170    0.0000 C.3     1  LIG1        0.0226
     30 C           3.9500    1.4380    0.0000 C.3     1  LIG1        0.0001
     31 C           3.1880    2.1170    0.0000 C.3     1  LIG1        0.0019
     32 C           2.3330    1.5420    0.0000 C.3     1  LIG1        0.0226
     33 C           3.0000    3.0830    0.0000 C.3     1  LIG1        0.0005
@<TRIPOS>BOND
     1     1     2   ar
     2     1     6   ar
     3     1    20    1
     4     2     3   ar
     5     2    19    2
     6     3     4   ar
     7     3    18    1
     8     4     5   ar
     9     4     7    1
    10     5     6   ar
    11     7     8    1
    12     8     9   ar
    13     8    17   ar
    14     9    10   ar
    15    10    11   ar
    16    11    12    1
    17    11    16   ar
    18    12    13   am
    19    13    14    2
    20    13    15    1
    21    16    17   ar
    22    20    21    1
    23    20    29    1
    24    20    32    1
    25    21    22    1
    26    22    23    1
    27    22    27    1
    28    22    33    1
    29    23    24    1
    30    24    25   ar
    31    24    26   ar
    32    27    28    1
    33    28    29    1
    34    28    30    1
    35    30    31    1
    36    31    32    1
    37    31    33    1
