@<TRIPOS>MOLECULE
36735_ChemDiv_C614-0998
 36 39 0 0 0
SMALL
GASTEIGER
Energy = 0

@<TRIPOS>ATOM
      1 C           2.7420    1.9380    0.0000 C.ar    1  LIG1        0.1657
      2 N           1.7380    1.9380    0.0000 N.ar    1  LIG1       -0.2151
      3 N           1.4250    2.8790    0.0000 N.ar    1  LIG1       -0.1445
      4 C           2.2380    3.4630    0.0000 C.ar    1  LIG1        0.1844
      5 C           3.0420    2.8790    0.0000 C.ar    1  LIG1        0.0693
      6 C           3.9580    3.2830    0.0000 C.ar    1  LIG1       -0.0147
      7 C           4.0670    4.2750    0.0000 C.ar    1  LIG1        0.0107
      8 C           3.2500    4.8630    0.0000 C.ar    1  LIG1        0.0608
      9 N           2.3330    4.4540    0.0000 N.ar    1  LIG1       -0.2295
     10 C           3.3630    5.8630    0.0000 C.3     1  LIG1        0.0521
     11 C           4.7670    2.6920    0.0000 C.3     1  LIG1        0.0313
     12 C           1.2290    1.0750    0.0000 C.ar    1  LIG1        0.0597
     13 C           1.7380    0.2000    0.0000 C.ar    1  LIG1        0.0056
     14 C           2.7420    0.2000    0.0000 C.ar    1  LIG1        0.0582
     15 N           3.2380    1.0750    0.0000 N.ar    1  LIG1       -0.2311
     16 C           3.2380   -0.6630    0.0000 C.3     1  LIG1        0.0518
     17 C           1.2290   -0.6630    0.0000 C.3     1  LIG1        0.0384
     18 C           0.2330   -0.6630    0.0000 C.3     1  LIG1        0.0919
     19 C          -0.2670   -1.5380    0.0000 C.2     1  LIG1        0.2459
     20 N          -1.2710   -1.5380    0.0000 N.am    1  LIG1       -0.1792
     21 C          -1.7670   -2.4130    0.0000 C.ar    1  LIG1        0.0738
     22 C          -2.7750   -2.4130    0.0000 C.ar    1  LIG1        0.0230
     23 C          -3.2750   -3.2710    0.0000 C.ar    1  LIG1        0.0771
     24 C          -4.2710   -3.2630    0.0000 C.2     1  LIG1        0.3414
     25 O          -4.7710   -2.4000    0.0000 O.2     1  LIG1       -0.2449
     26 O          -4.7710   -4.1250    0.0000 O.3     1  LIG1       -0.4413
     27 C          -4.2750   -4.9960    0.0000 C.3     1  LIG1        0.2560
     28 C          -2.7750   -4.1380    0.0000 C.ar    1  LIG1        0.0130
     29 C          -1.7670   -4.1380    0.0000 C.ar    1  LIG1        0.0771
     30 C          -1.2710   -5.0000    0.0000 C.2     1  LIG1        0.3414
     31 O          -1.7670   -5.8630    0.0000 O.2     1  LIG1       -0.2449
     32 O          -0.2710   -5.0000    0.0000 O.3     1  LIG1       -0.4413
     33 C           0.2170   -4.1380    0.0000 C.3     1  LIG1        0.2560
     34 C          -1.2710   -3.2710    0.0000 C.ar    1  LIG1        0.0230
     35 O           0.2330   -2.4130    0.0000 O.2     1  LIG1       -0.2730
     36 C           0.2330    1.0750    0.0000 C.3     1  LIG1        0.0519
@<TRIPOS>BOND
     1     1     2   ar
     2     1     5   ar
     3     1    15   ar
     4     2     3   ar
     5     2    12   ar
     6     3     4   ar
     7     4     5   ar
     8     4     9   ar
     9     5     6   ar
    10     6     7   ar
    11     6    11    1
    12     7     8   ar
    13     8     9   ar
    14     8    10    1
    15    12    13   ar
    16    12    36    1
    17    13    14   ar
    18    13    17    1
    19    14    15   ar
    20    14    16    1
    21    17    18    1
    22    18    19    1
    23    19    20   am
    24    19    35    2
    25    20    21    1
    26    21    22   ar
    27    21    34   ar
    28    22    23   ar
    29    23    24    1
    30    23    28   ar
    31    24    25    2
    32    24    26    1
    33    26    27    1
    34    28    29   ar
    35    29    30    1
    36    29    34   ar
    37    30    31    2
    38    30    32    1
    39    32    33    1
