@<TRIPOS>MOLECULE
36736_ChemDiv_C850-0005
 36 40 0 0 0
SMALL
GASTEIGER
Energy = 0

@<TRIPOS>ATOM
      1 N          -0.8670   -1.6460    0.0000 N.ar    1  LIG1       -0.2193
      2 C          -1.7420   -2.1460    0.0000 C.3     1  LIG1        0.0943
      3 C          -2.6460   -2.3210    0.0000 C.3     1  LIG1        0.0573
      4 C          -2.7880   -3.2830    0.0000 C.3     1  LIG1        0.0070
      5 C          -3.6750   -3.9920    0.0000 C.3     1  LIG1        0.0005
      6 C          -2.6790   -3.8580    0.0000 C.3     1  LIG1        0.0019
      7 C          -2.5210   -2.8330    0.0000 C.3     1  LIG1        0.0230
      8 C          -1.8170   -4.3580    0.0000 C.3     1  LIG1        0.0001
      9 C          -1.0420   -3.6290    0.0000 C.3     1  LIG1        0.0019
     10 C          -0.8960   -2.6460    0.0000 C.3     1  LIG1        0.0230
     11 C          -1.9790   -3.7250    0.0000 C.3     1  LIG1        0.0005
     12 C          -3.3790   -1.6330    0.0000 C.2     1  LIG1        0.0518
     13 O          -4.3330   -1.9130    0.0000 O.co2   1  LIG1       -0.5491
     14 O          -3.1460   -0.6630    0.0000 O.co2   1  LIG1       -0.5491
     15 C          -0.0130   -2.1420    0.0000 C.ar    1  LIG1        0.2881
     16 C           0.8500   -1.6460    0.0000 C.ar    1  LIG1        0.1318
     17 C           0.8500   -0.6500    0.0000 C.ar    1  LIG1        0.1065
     18 C          -0.0130   -0.1420    0.0000 C.ar    1  LIG1        0.1376
     19 N          -0.8670   -0.6500    0.0000 N.ar    1  LIG1       -0.1639
     20 N           1.7250   -0.1500    0.0000 N.pl3   1  LIG1       -0.2098
     21 C           1.7250    0.8500    0.0000 C.ar    1  LIG1        0.0710
     22 C           2.5960    1.3500    0.0000 C.ar    1  LIG1        0.0229
     23 C           2.5960    2.3500    0.0000 C.ar    1  LIG1        0.0771
     24 C           3.4710    2.8500    0.0000 C.2     1  LIG1        0.3414
     25 O           3.4710    3.8500    0.0000 O.2     1  LIG1       -0.2449
     26 O           4.3290    2.3380    0.0000 O.3     1  LIG1       -0.4413
     27 C           4.3290    1.3420    0.0000 C.3     1  LIG1        0.2560
     28 C           1.7380    2.8540    0.0000 C.ar    1  LIG1        0.0130
     29 C           0.8670    2.3670    0.0000 C.ar    1  LIG1        0.0771
     30 C           0.0040    2.8710    0.0000 C.2     1  LIG1        0.3414
     31 O          -0.8670    2.3790    0.0000 O.2     1  LIG1       -0.2449
     32 O           0.0080    3.8710    0.0000 O.3     1  LIG1       -0.4413
     33 C           0.8830    4.3580    0.0000 C.3     1  LIG1        0.2560
     34 C           0.8630    1.3670    0.0000 C.ar    1  LIG1        0.0229
     35 CL          1.7210   -2.1460    0.0000 Cl      1  LIG1       -0.0758
     36 O          -0.0210   -3.1420    0.0000 O.2     1  LIG1       -0.2645
@<TRIPOS>BOND
     1     1     2    1
     2     1    15   ar
     3     1    19   ar
     4     2     3    1
     5     2     7    1
     6     2    10    1
     7     3     4    1
     8     3    12    1
     9     4     5    1
    10     4    11    1
    11     5     6    1
    12     6     7    1
    13     6     8    1
    14     8     9    1
    15     9    10    1
    16     9    11    1
    17    12    13   ar
    18    12    14   ar
    19    15    16   ar
    20    15    36    2
    21    16    17   ar
    22    16    35    1
    23    17    18   ar
    24    17    20    1
    25    18    19   ar
    26    20    21    1
    27    21    22   ar
    28    21    34   ar
    29    22    23   ar
    30    23    24    1
    31    23    28   ar
    32    24    25    2
    33    24    26    1
    34    26    27    1
    35    28    29   ar
    36    29    30    1
    37    29    34   ar
    38    30    31    2
    39    30    32    1
    40    32    33    1
