@<TRIPOS>MOLECULE
36739_ChemDiv_E511-4051
 35 39 0 0 0
SMALL
GASTEIGER
Energy = 0

@<TRIPOS>ATOM
      1 S          -1.1710   -0.9540    0.0000 S.O2    1  LIG1        0.0637
      2 N          -0.5000   -0.2130    0.0000 N.3     1  LIG1       -0.1481
      3 C           0.4920   -0.3170    0.0000 C.3     1  LIG1        0.1575
      4 C           0.9960   -1.1790    0.0000 C.2     1  LIG1        0.2617
      5 N           1.9920   -1.1790    0.0000 N.am    1  LIG1       -0.1780
      6 C           2.4920   -2.0500    0.0000 C.ar    1  LIG1        0.0734
      7 C           1.9920   -2.9170    0.0000 C.ar    1  LIG1        0.0163
      8 C           2.4920   -3.7830    0.0000 C.ar    1  LIG1       -0.0029
      9 C           3.4960   -3.7830    0.0000 C.ar    1  LIG1       -0.0224
     10 C           3.9920   -2.9170    0.0000 C.ar    1  LIG1       -0.0029
     11 C           3.4960   -2.0500    0.0000 C.ar    1  LIG1        0.0163
     12 C           3.9920   -4.6500    0.0000 C.3     1  LIG1        0.0224
     13 C           4.9920   -4.6500    0.0000 C.3     1  LIG1        0.0047
     14 C           3.4960   -5.5170    0.0000 C.3     1  LIG1        0.0047
     15 O           0.4920   -2.0500    0.0000 O.2     1  LIG1       -0.2715
     16 C           0.9000    0.5960    0.0000 C.3     1  LIG1        0.0286
     17 C           0.1580    1.2630    0.0000 C.3     1  LIG1        0.0211
     18 C          -0.7080    0.7670    0.0000 C.3     1  LIG1        0.0964
     19 C          -1.9130   -0.2830    0.0000 C.ar    1  LIG1        0.1238
     20 C          -1.7080    0.6920    0.0000 C.ar    1  LIG1        0.0406
     21 C          -2.4500    1.3580    0.0000 C.ar    1  LIG1        0.1019
     22 N          -2.4500    2.3630    0.0000 N.ar    1  LIG1       -0.2250
     23 C          -3.4000    2.6670    0.0000 C.ar    1  LIG1        0.1623
     24 N          -3.9880    1.8580    0.0000 N.ar    1  LIG1       -0.2251
     25 C          -3.4000    1.0500    0.0000 C.ar    1  LIG1        0.1007
     26 C          -3.6080    0.0710    0.0000 C.ar    1  LIG1        0.0221
     27 C          -2.8670   -0.6000    0.0000 C.ar    1  LIG1        0.0216
     28 C          -3.7080    3.6210    0.0000 C.ar    1  LIG1        0.0358
     29 C          -4.6880    3.8250    0.0000 C.ar    1  LIG1        0.0030
     30 C          -4.9960    4.7790    0.0000 C.ar    1  LIG1        0.0001
     31 C          -4.3250    5.5170    0.0000 C.ar    1  LIG1        0.0000
     32 C          -3.3460    5.3080    0.0000 C.ar    1  LIG1        0.0001
     33 C          -3.0420    4.3630    0.0000 C.ar    1  LIG1        0.0030
     34 O          -0.4290   -1.6250    0.0000 O.2     1  LIG1       -0.1528
     35 O          -1.8380   -1.7000    0.0000 O.2     1  LIG1       -0.1528
@<TRIPOS>BOND
     1     1     2    1
     2     1    19    1
     3     1    34    2
     4     1    35    2
     5     2     3    1
     6     2    18    1
     7     3     4    1
     8     3    16    1
     9     4     5   am
    10     4    15    2
    11     5     6    1
    12     6     7   ar
    13     6    11   ar
    14     7     8   ar
    15     8     9   ar
    16     9    10   ar
    17     9    12    1
    18    10    11   ar
    19    12    13    1
    20    12    14    1
    21    16    17    1
    22    17    18    1
    23    19    20   ar
    24    19    27   ar
    25    20    21   ar
    26    21    22   ar
    27    21    25   ar
    28    22    23   ar
    29    23    24   ar
    30    23    28    1
    31    24    25   ar
    32    25    26   ar
    33    26    27   ar
    34    28    29   ar
    35    28    33   ar
    36    29    30   ar
    37    30    31   ar
    38    31    32   ar
    39    32    33   ar
