@<TRIPOS>MOLECULE
36737_ChemDiv_E511-3891
 33 36 0 0 0
SMALL
GASTEIGER
Energy = 0

@<TRIPOS>ATOM
      1 S           0.3130   -0.8630    0.0000 S.O2    1  LIG1        0.0638
      2 N           0.8130    0.0000    0.0000 N.3     1  LIG1       -0.1447
      3 C           1.8130    0.0000    0.0000 C.3     1  LIG1        0.1825
      4 C           2.3130    0.8670    0.0000 C.2     1  LIG1        0.2636
      5 N           3.3130    0.8670    0.0000 N.am    1  LIG1       -0.1780
      6 C           3.8130    0.0000    0.0000 C.ar    1  LIG1        0.0735
      7 C           4.8130    0.0000    0.0000 C.ar    1  LIG1        0.0194
      8 C           5.3130   -0.8630    0.0000 C.ar    1  LIG1        0.0360
      9 C           6.3130   -0.8630    0.0000 C.2     1  LIG1        0.1735
     10 O           6.8130    0.0000    0.0000 O.2     1  LIG1       -0.2913
     11 C           6.8130   -1.7330    0.0000 C.3     1  LIG1        0.0773
     12 C           4.8130   -1.7330    0.0000 C.ar    1  LIG1        0.0029
     13 C           3.8130   -1.7330    0.0000 C.ar    1  LIG1        0.0014
     14 C           3.3130   -0.8630    0.0000 C.ar    1  LIG1        0.0166
     15 O           1.8130    1.7380    0.0000 O.2     1  LIG1       -0.2714
     16 C           0.3130    0.8670    0.0000 C.3     1  LIG1        0.1155
     17 C          -0.5500   -0.3670    0.0000 C.ar    1  LIG1        0.1238
     18 C          -1.4170   -0.8630    0.0000 C.ar    1  LIG1        0.0406
     19 C          -2.2830   -0.3670    0.0000 C.ar    1  LIG1        0.1019
     20 N          -3.2380   -0.6750    0.0000 N.ar    1  LIG1       -0.2250
     21 C          -3.8210    0.1330    0.0000 C.ar    1  LIG1        0.1623
     22 N          -3.2380    0.9460    0.0000 N.ar    1  LIG1       -0.2251
     23 C          -2.2830    0.6380    0.0000 C.ar    1  LIG1        0.1007
     24 C          -1.4170    1.1380    0.0000 C.ar    1  LIG1        0.0221
     25 C          -0.5500    0.6380    0.0000 C.ar    1  LIG1        0.0216
     26 C          -4.8250    0.1330    0.0000 C.ar    1  LIG1        0.0358
     27 C          -5.3210    1.0000    0.0000 C.ar    1  LIG1        0.0030
     28 C          -6.3170    1.0000    0.0000 C.ar    1  LIG1        0.0001
     29 C          -6.8130    0.1330    0.0000 C.ar    1  LIG1        0.0000
     30 C          -6.3170   -0.7290    0.0000 C.ar    1  LIG1        0.0001
     31 C          -5.3210   -0.7290    0.0000 C.ar    1  LIG1        0.0030
     32 O           1.1790   -1.3670    0.0000 O.2     1  LIG1       -0.1528
     33 O          -0.1880   -1.7330    0.0000 O.2     1  LIG1       -0.1528
@<TRIPOS>BOND
     1     1     2    1
     2     1    17    1
     3     1    32    2
     4     1    33    2
     5     2     3    1
     6     2    16    1
     7     3     4    1
     8     4     5   am
     9     4    15    2
    10     5     6    1
    11     6     7   ar
    12     6    14   ar
    13     7     8   ar
    14     8     9    1
    15     8    12   ar
    16     9    10    2
    17     9    11    1
    18    12    13   ar
    19    13    14   ar
    20    17    18   ar
    21    17    25   ar
    22    18    19   ar
    23    19    20   ar
    24    19    23   ar
    25    20    21   ar
    26    21    22   ar
    27    21    26    1
    28    22    23   ar
    29    23    24   ar
    30    24    25   ar
    31    26    27   ar
    32    26    31   ar
    33    27    28   ar
    34    28    29   ar
    35    29    30   ar
    36    30    31   ar
