@<TRIPOS>MOLECULE
36747_ChemDiv_E511-4586
 31 34 0 0 0
SMALL
GASTEIGER
Energy = 0

@<TRIPOS>ATOM
      1 S           0.3130   -1.2960    0.0000 S.O2    1  LIG1        0.0638
      2 N           0.8130   -0.4290    0.0000 N.3     1  LIG1       -0.1447
      3 C           1.8130   -0.4290    0.0000 C.3     1  LIG1        0.1821
      4 C           2.3130    0.4330    0.0000 C.2     1  LIG1        0.2598
      5 N           3.3130    0.4330    0.0000 N.am    1  LIG1       -0.1993
      6 C           3.8130    1.3040    0.0000 C.3     1  LIG1        0.1415
      7 C           4.8130    1.3040    0.0000 C.ar    1  LIG1       -0.0006
      8 C           5.3130    2.1670    0.0000 C.ar    1  LIG1       -0.0026
      9 C           6.3130    2.1670    0.0000 C.ar    1  LIG1       -0.0003
     10 C           6.8130    1.3040    0.0000 C.ar    1  LIG1       -0.0000
     11 C           6.3130    0.4330    0.0000 C.ar    1  LIG1       -0.0003
     12 C           5.3130    0.4330    0.0000 C.ar    1  LIG1       -0.0026
     13 O           1.8130    1.3040    0.0000 O.2     1  LIG1       -0.2718
     14 C           0.3130    0.4330    0.0000 C.3     1  LIG1        0.1155
     15 C          -0.5500   -0.7960    0.0000 C.ar    1  LIG1        0.1238
     16 C          -1.4170   -1.2960    0.0000 C.ar    1  LIG1        0.0406
     17 C          -2.2830   -0.7960    0.0000 C.ar    1  LIG1        0.1019
     18 N          -3.2380   -1.1080    0.0000 N.ar    1  LIG1       -0.2250
     19 C          -3.8210   -0.3000    0.0000 C.ar    1  LIG1        0.1623
     20 N          -3.2380    0.5130    0.0000 N.ar    1  LIG1       -0.2251
     21 C          -2.2830    0.2040    0.0000 C.ar    1  LIG1        0.1007
     22 C          -1.4170    0.7040    0.0000 C.ar    1  LIG1        0.0221
     23 C          -0.5500    0.2040    0.0000 C.ar    1  LIG1        0.0216
     24 C          -4.8250   -0.3000    0.0000 C.ar    1  LIG1        0.0358
     25 C          -5.3210    0.5670    0.0000 C.ar    1  LIG1        0.0030
     26 C          -6.3170    0.5670    0.0000 C.ar    1  LIG1        0.0001
     27 C          -6.8130   -0.3000    0.0000 C.ar    1  LIG1        0.0000
     28 C          -6.3170   -1.1630    0.0000 C.ar    1  LIG1        0.0001
     29 C          -5.3210   -1.1630    0.0000 C.ar    1  LIG1        0.0030
     30 O           1.1790   -1.7960    0.0000 O.2     1  LIG1       -0.1528
     31 O          -0.1880   -2.1630    0.0000 O.2     1  LIG1       -0.1528
@<TRIPOS>BOND
     1     1     2    1
     2     1    15    1
     3     1    30    2
     4     1    31    2
     5     2     3    1
     6     2    14    1
     7     3     4    1
     8     4     5   am
     9     4    13    2
    10     5     6    1
    11     6     7    1
    12     7     8   ar
    13     7    12   ar
    14     8     9   ar
    15     9    10   ar
    16    10    11   ar
    17    11    12   ar
    18    15    16   ar
    19    15    23   ar
    20    16    17   ar
    21    17    18   ar
    22    17    21   ar
    23    18    19   ar
    24    19    20   ar
    25    19    24    1
    26    20    21   ar
    27    21    22   ar
    28    22    23   ar
    29    24    25   ar
    30    24    29   ar
    31    25    26   ar
    32    26    27   ar
    33    27    28   ar
    34    28    29   ar
