@<TRIPOS>MOLECULE
36749_ChemDiv_C263-0010
 31 34 0 0 0
SMALL
GASTEIGER
Energy = 0

@<TRIPOS>ATOM
      1 C           1.3540   -0.3630    0.0000 C.ar    1  LIG1        0.2489
      2 C           1.6540    0.5920    0.0000 C.ar    1  LIG1        0.1784
      3 S           1.1880    1.4830    0.0000 S.O2    1  LIG1        0.0331
      4 O           0.3790    0.8960    0.0000 O.2     1  LIG1       -0.1641
      5 O           1.9960    2.0750    0.0000 O.2     1  LIG1       -0.1641
      6 C           0.7330    2.3670    0.0000 C.ar    1  LIG1        0.1105
      7 C           1.2750    3.1920    0.0000 C.ar    1  LIG1        0.0187
      8 C           0.8250    4.0790    0.0000 C.ar    1  LIG1        0.0013
      9 C          -0.1750    4.1420    0.0000 C.ar    1  LIG1        0.0001
     10 C          -0.7210    3.2960    0.0000 C.ar    1  LIG1        0.0013
     11 C          -0.2670    2.4130    0.0000 C.ar    1  LIG1        0.0187
     12 C           2.6540    0.6040    0.0000 C.ar    1  LIG1        0.1010
     13 N           2.9670   -0.3460    0.0000 N.ar    1  LIG1       -0.1699
     14 N           2.1630   -0.9380    0.0000 N.ar    1  LIG1       -0.2229
     15 C           2.1710   -1.9380    0.0000 C.3     1  LIG1        0.0896
     16 C           3.1670   -1.9290    0.0000 C.3     1  LIG1        0.0245
     17 C           1.1710   -1.9500    0.0000 C.3     1  LIG1        0.0245
     18 C           2.1710   -2.9380    0.0000 C.3     1  LIG1        0.0245
     19 C           3.2290    1.4250    0.0000 C.3     1  LIG1        0.0555
     20 O           0.3960   -0.6750    0.0000 O.3     1  LIG1       -0.4018
     21 C          -0.5580   -0.4040    0.0000 C.2     1  LIG1        0.3470
     22 C          -1.2830   -1.1130    0.0000 C.ar    1  LIG1        0.0793
     23 C          -1.0170   -2.0710    0.0000 C.ar    1  LIG1        0.0466
     24 C          -1.7380   -2.7830    0.0000 C.ar    1  LIG1        0.1766
     25 C          -2.6960   -2.5210    0.0000 C.ar    1  LIG1        0.1764
     26 O          -3.2330   -3.3540    0.0000 O.3     1  LIG1       -0.4346
     27 C          -2.6290   -4.1420    0.0000 C.3     1  LIG1        0.4294
     28 O          -1.6920   -3.8000    0.0000 O.3     1  LIG1       -0.4346
     29 C          -2.9500   -1.5580    0.0000 C.ar    1  LIG1        0.0404
     30 C          -2.2500   -0.8460    0.0000 C.ar    1  LIG1        0.0098
     31 O          -0.8290    0.5630    0.0000 O.2     1  LIG1       -0.2444
@<TRIPOS>BOND
     1     1     2   ar
     2     1    14   ar
     3     1    20    1
     4     2     3    1
     5     2    12   ar
     6     3     4    2
     7     3     5    2
     8     3     6    1
     9     6     7   ar
    10     6    11   ar
    11     7     8   ar
    12     8     9   ar
    13     9    10   ar
    14    10    11   ar
    15    12    13   ar
    16    12    19    1
    17    13    14   ar
    18    14    15    1
    19    15    16    1
    20    15    17    1
    21    15    18    1
    22    20    21    1
    23    21    22    1
    24    21    31    2
    25    22    23   ar
    26    22    30   ar
    27    23    24   ar
    28    24    25   ar
    29    24    28    1
    30    25    26    1
    31    25    29   ar
    32    26    27    1
    33    27    28    1
    34    29    30   ar
