@<TRIPOS>MOLECULE
36743_ChemDiv_E511-4062
 35 39 0 0 0
SMALL
GASTEIGER
Energy = 0

@<TRIPOS>ATOM
      1 S          -0.7880   -2.4040    0.0000 S.O2    1  LIG1        0.0633
      2 N          -0.2880   -1.5420    0.0000 N.3     1  LIG1       -0.1555
      3 C           0.7130   -1.5420    0.0000 C.3     1  LIG1        0.0963
      4 C           1.2170   -0.6710    0.0000 C.3     1  LIG1        0.0283
      5 C           0.7130    0.1920    0.0000 C.3     1  LIG1        0.0814
      6 C           1.2170    1.0580    0.0000 C.2     1  LIG1        0.2452
      7 N           2.2130    1.0580    0.0000 N.am    1  LIG1       -0.1792
      8 C           2.7130    0.1920    0.0000 C.ar    1  LIG1        0.0731
      9 C           3.7170    0.1920    0.0000 C.ar    1  LIG1        0.0123
     10 C           4.2130   -0.6710    0.0000 C.ar    1  LIG1       -0.0209
     11 C           3.7170   -1.5420    0.0000 C.ar    1  LIG1       -0.0042
     12 C           2.7130   -1.5420    0.0000 C.ar    1  LIG1        0.0010
     13 C           2.2130   -0.6710    0.0000 C.ar    1  LIG1        0.0166
     14 C           5.2130   -0.6710    0.0000 C.3     1  LIG1        0.0264
     15 C           5.7170    0.1920    0.0000 C.3     1  LIG1        0.0050
     16 O           0.7130    1.9290    0.0000 O.2     1  LIG1       -0.2730
     17 C          -0.2880    0.1920    0.0000 C.3     1  LIG1        0.0283
     18 C          -0.7880   -0.6710    0.0000 C.3     1  LIG1        0.0963
     19 C          -1.6500   -1.9040    0.0000 C.ar    1  LIG1        0.1238
     20 C          -1.6500   -0.9040    0.0000 C.ar    1  LIG1        0.0406
     21 C          -2.5170   -0.4040    0.0000 C.ar    1  LIG1        0.1019
     22 N          -2.7290    0.5710    0.0000 N.ar    1  LIG1       -0.2250
     23 C          -3.7210    0.6790    0.0000 C.ar    1  LIG1        0.1623
     24 N          -4.1250   -0.2330    0.0000 N.ar    1  LIG1       -0.2251
     25 C          -3.3830   -0.9040    0.0000 C.ar    1  LIG1        0.1007
     26 C          -3.3830   -1.9040    0.0000 C.ar    1  LIG1        0.0221
     27 C          -2.5170   -2.4040    0.0000 C.ar    1  LIG1        0.0216
     28 C          -4.2210    1.5460    0.0000 C.ar    1  LIG1        0.0358
     29 C          -3.7210    2.4080    0.0000 C.ar    1  LIG1        0.0030
     30 C          -4.2210    3.2750    0.0000 C.ar    1  LIG1        0.0001
     31 C          -5.2210    3.2750    0.0000 C.ar    1  LIG1        0.0000
     32 C          -5.7210    2.4080    0.0000 C.ar    1  LIG1        0.0001
     33 C          -5.2210    1.5460    0.0000 C.ar    1  LIG1        0.0030
     34 O           0.0790   -2.9040    0.0000 O.2     1  LIG1       -0.1528
     35 O          -1.2880   -3.2710    0.0000 O.2     1  LIG1       -0.1528
@<TRIPOS>BOND
     1     1     2    1
     2     1    19    1
     3     1    34    2
     4     1    35    2
     5     2     3    1
     6     2    18    1
     7     3     4    1
     8     4     5    1
     9     5     6    1
    10     5    17    1
    11     6     7   am
    12     6    16    2
    13     7     8    1
    14     8     9   ar
    15     8    13   ar
    16     9    10   ar
    17    10    11   ar
    18    10    14    1
    19    11    12   ar
    20    12    13   ar
    21    14    15    1
    22    17    18    1
    23    19    20   ar
    24    19    27   ar
    25    20    21   ar
    26    21    22   ar
    27    21    25   ar
    28    22    23   ar
    29    23    24   ar
    30    23    28    1
    31    24    25   ar
    32    25    26   ar
    33    26    27   ar
    34    28    29   ar
    35    28    33   ar
    36    29    30   ar
    37    30    31   ar
    38    31    32   ar
    39    32    33   ar
