@<TRIPOS>MOLECULE
36740_ChemDiv_K783-5185
 18 20 0 0 0
SMALL
GASTEIGER
Energy = 0

@<TRIPOS>ATOM
      1 C           0.0130    0.5080    0.0000 C.ar    1  LIG1        0.0873
      2 C           0.0130   -0.5080    0.0000 C.ar    1  LIG1        0.2852
      3 N          -0.8670   -1.0080    0.0000 N.ar    1  LIG1       -0.2069
      4 C          -1.7330   -0.5080    0.0000 C.ar    1  LIG1        0.0905
      5 C          -1.7290    0.5080    0.0000 C.ar    1  LIG1        0.0473
      6 S          -0.8670    1.0130    0.0000 S.2     1  LIG1       -0.0806
      7 C          -2.5960    1.0040    0.0000 C.ar    1  LIG1        0.0080
      8 C          -3.4580    0.4960    0.0000 C.ar    1  LIG1        0.0006
      9 C          -3.4580   -0.5040    0.0000 C.ar    1  LIG1        0.0016
     10 C          -2.5960   -1.0000    0.0000 C.ar    1  LIG1        0.0197
     11 O           0.8750   -1.0080    0.0000 O.2     1  LIG1       -0.2646
     12 C           0.8750    0.9960    0.0000 C.2     1  LIG1        0.0113
     13 C           1.7380    0.4960    0.0000 C.ar    1  LIG1        0.0006
     14 C           1.7290   -0.4920    0.0000 C.ar    1  LIG1        0.0000
     15 C           2.5920   -0.9920    0.0000 C.ar    1  LIG1        0.0000
     16 C           3.4540   -0.5040    0.0000 C.ar    1  LIG1        0.0000
     17 C           3.4540    0.5080    0.0000 C.ar    1  LIG1        0.0000
     18 C           2.5920    0.9960    0.0000 C.ar    1  LIG1        0.0000
@<TRIPOS>BOND
     1     1     2   ar
     2     1     6   ar
     3     1    12    2
     4     2     3   ar
     5     2    11    2
     6     3     4   ar
     7     4     5   ar
     8     4    10   ar
     9     5     6   ar
    10     5     7   ar
    11     7     8   ar
    12     8     9   ar
    13     9    10   ar
    14    12    13    1
    15    13    14   ar
    16    13    18   ar
    17    14    15   ar
    18    15    16   ar
    19    16    17   ar
    20    17    18   ar
