@<TRIPOS>MOLECULE
36741_ChemDiv_E511-4052
 32 35 0 0 0
SMALL
GASTEIGER
Energy = 0

@<TRIPOS>ATOM
      1 S           0.3130   -0.8630    0.0000 S.O2    1  LIG1        0.0638
      2 N           0.8130    0.0000    0.0000 N.3     1  LIG1       -0.1447
      3 C           1.8130    0.0000    0.0000 C.3     1  LIG1        0.1825
      4 C           2.3130    0.8670    0.0000 C.2     1  LIG1        0.2636
      5 N           3.3130    0.8670    0.0000 N.am    1  LIG1       -0.1780
      6 C           3.8130    0.0000    0.0000 C.ar    1  LIG1        0.0731
      7 C           4.8170    0.0000    0.0000 C.ar    1  LIG1        0.0123
      8 C           5.3130   -0.8630    0.0000 C.ar    1  LIG1       -0.0209
      9 C           4.8170   -1.7330    0.0000 C.ar    1  LIG1       -0.0042
     10 C           3.8130   -1.7330    0.0000 C.ar    1  LIG1        0.0010
     11 C           3.3130   -0.8630    0.0000 C.ar    1  LIG1        0.0166
     12 C           6.3130   -0.8630    0.0000 C.3     1  LIG1        0.0264
     13 C           6.8170    0.0000    0.0000 C.3     1  LIG1        0.0050
     14 O           1.8130    1.7380    0.0000 O.2     1  LIG1       -0.2714
     15 C           0.3130    0.8670    0.0000 C.3     1  LIG1        0.1155
     16 C          -0.5500   -0.3670    0.0000 C.ar    1  LIG1        0.1238
     17 C          -1.4170   -0.8630    0.0000 C.ar    1  LIG1        0.0406
     18 C          -2.2830   -0.3670    0.0000 C.ar    1  LIG1        0.1019
     19 N          -3.2380   -0.6750    0.0000 N.ar    1  LIG1       -0.2250
     20 C          -3.8210    0.1330    0.0000 C.ar    1  LIG1        0.1623
     21 N          -3.2380    0.9460    0.0000 N.ar    1  LIG1       -0.2251
     22 C          -2.2830    0.6380    0.0000 C.ar    1  LIG1        0.1007
     23 C          -1.4170    1.1380    0.0000 C.ar    1  LIG1        0.0221
     24 C          -0.5500    0.6380    0.0000 C.ar    1  LIG1        0.0216
     25 C          -4.8250    0.1330    0.0000 C.ar    1  LIG1        0.0358
     26 C          -5.3210    1.0000    0.0000 C.ar    1  LIG1        0.0030
     27 C          -6.3170    1.0000    0.0000 C.ar    1  LIG1        0.0001
     28 C          -6.8170    0.1330    0.0000 C.ar    1  LIG1        0.0000
     29 C          -6.3170   -0.7290    0.0000 C.ar    1  LIG1        0.0001
     30 C          -5.3210   -0.7290    0.0000 C.ar    1  LIG1        0.0030
     31 O           1.1790   -1.3670    0.0000 O.2     1  LIG1       -0.1528
     32 O          -0.1880   -1.7330    0.0000 O.2     1  LIG1       -0.1528
@<TRIPOS>BOND
     1     1     2    1
     2     1    16    1
     3     1    31    2
     4     1    32    2
     5     2     3    1
     6     2    15    1
     7     3     4    1
     8     4     5   am
     9     4    14    2
    10     5     6    1
    11     6     7   ar
    12     6    11   ar
    13     7     8   ar
    14     8     9   ar
    15     8    12    1
    16     9    10   ar
    17    10    11   ar
    18    12    13    1
    19    16    17   ar
    20    16    24   ar
    21    17    18   ar
    22    18    19   ar
    23    18    22   ar
    24    19    20   ar
    25    20    21   ar
    26    20    25    1
    27    21    22   ar
    28    22    23   ar
    29    23    24   ar
    30    25    26   ar
    31    25    30   ar
    32    26    27   ar
    33    27    28   ar
    34    28    29   ar
    35    29    30   ar
