@<TRIPOS>MOLECULE
36744_ChemDiv_K783-6584
 22 24 0 0 0
SMALL
GASTEIGER
Energy = 0

@<TRIPOS>ATOM
      1 C           0.4460    1.0000    0.0000 C.ar    1  LIG1        0.0873
      2 C           0.4460   -0.0080    0.0000 C.ar    1  LIG1        0.2852
      3 N          -0.4330   -0.5080    0.0000 N.ar    1  LIG1       -0.2069
      4 C          -1.3000   -0.0080    0.0000 C.ar    1  LIG1        0.0905
      5 C          -1.2960    1.0000    0.0000 C.ar    1  LIG1        0.0473
      6 S          -0.4290    1.5080    0.0000 S.2     1  LIG1       -0.0806
      7 C          -2.1630    1.5000    0.0000 C.ar    1  LIG1        0.0080
      8 C          -3.0290    1.0000    0.0000 C.ar    1  LIG1        0.0017
      9 C          -3.0290   -0.0040    0.0000 C.ar    1  LIG1        0.0155
     10 C          -3.8920   -0.5000    0.0000 C.2     1  LIG1        0.0729
     11 O          -3.8920   -1.5040    0.0000 O.co2   1  LIG1       -0.5446
     12 O          -4.7580   -0.0040    0.0000 O.co2   1  LIG1       -0.5446
     13 C          -2.1630   -0.5000    0.0000 C.ar    1  LIG1        0.0208
     14 O           1.3040   -0.5080    0.0000 O.2     1  LIG1       -0.2646
     15 C           1.3130    1.4960    0.0000 C.2     1  LIG1        0.0113
     16 C           2.1750    1.0000    0.0000 C.ar    1  LIG1        0.0006
     17 C           3.0290    1.4960    0.0000 C.ar    1  LIG1       -0.0003
     18 C           3.8880    1.0000    0.0000 C.ar    1  LIG1       -0.0043
     19 C           3.8880   -0.0040    0.0000 C.ar    1  LIG1       -0.0218
     20 C           3.0290   -0.5000    0.0000 C.ar    1  LIG1       -0.0043
     21 C           2.1630    0.0000    0.0000 C.ar    1  LIG1       -0.0003
     22 C           4.7540   -0.5000    0.0000 C.3     1  LIG1        0.0310
@<TRIPOS>BOND
     1     1     2   ar
     2     1     6   ar
     3     1    15    2
     4     2     3   ar
     5     2    14    2
     6     3     4   ar
     7     4     5   ar
     8     4    13   ar
     9     5     6   ar
    10     5     7   ar
    11     7     8   ar
    12     8     9   ar
    13     9    10    1
    14     9    13   ar
    15    10    11   ar
    16    10    12   ar
    17    15    16    1
    18    16    17   ar
    19    16    21   ar
    20    17    18   ar
    21    18    19   ar
    22    19    20   ar
    23    19    22    1
    24    20    21   ar
