@<TRIPOS>MOLECULE
36758_ChemDiv_C301-2144
 24 28 0 0 0
SMALL
GASTEIGER
Energy = 0

@<TRIPOS>ATOM
      1 C          -2.1380    1.2170    0.0000 C.ar    1  LIG1        0.2215
      2 N          -3.0000    0.7210    0.0000 N.ar    1  LIG1       -0.1873
      3 N          -3.8380    1.4380    0.0000 N.ar    1  LIG1       -0.0384
      4 N          -3.3380    2.2920    0.0000 N.ar    1  LIG1       -0.0222
      5 N          -2.3540    2.1830    0.0000 N.ar    1  LIG1       -0.1048
      6 C          -3.0130   -0.2790    0.0000 C.ar    1  LIG1        0.1038
      7 C          -2.1540   -0.7920    0.0000 C.ar    1  LIG1        0.1006
      8 N          -1.2710   -0.3040    0.0000 N.ar    1  LIG1       -0.2245
      9 C          -1.2710    0.7040    0.0000 C.ar    1  LIG1        0.1901
     10 N          -0.4080    1.1880    0.0000 N.pl3   1  LIG1       -0.1914
     11 C           0.4460    0.6790    0.0000 C.ar    1  LIG1        0.0754
     12 C           1.3080    1.1710    0.0000 C.ar    1  LIG1        0.0566
     13 C           2.1580    0.6630    0.0000 C.ar    1  LIG1        0.1737
     14 C           2.1420   -0.3250    0.0000 C.ar    1  LIG1        0.1725
     15 O           2.9920   -0.8380    0.0000 O.3     1  LIG1       -0.4684
     16 C           3.8630   -0.3580    0.0000 C.3     1  LIG1        0.2526
     17 C           3.8790    0.6420    0.0000 C.3     1  LIG1        0.2526
     18 O           3.0210    1.1540    0.0000 O.3     1  LIG1       -0.4683
     19 C           1.2880   -0.8250    0.0000 C.ar    1  LIG1        0.0414
     20 C           0.4290   -0.3080    0.0000 C.ar    1  LIG1        0.0199
     21 C          -2.1580   -1.7920    0.0000 C.ar    1  LIG1        0.0207
     22 C          -3.0250   -2.2880    0.0000 C.ar    1  LIG1        0.0016
     23 C          -3.8830   -1.7750    0.0000 C.ar    1  LIG1        0.0016
     24 C          -3.8710   -0.7710    0.0000 C.ar    1  LIG1        0.0208
@<TRIPOS>BOND
     1     1     2   ar
     2     1     5   ar
     3     1     9   ar
     4     2     3   ar
     5     2     6   ar
     6     3     4   ar
     7     4     5   ar
     8     6     7   ar
     9     6    24   ar
    10     7     8   ar
    11     7    21   ar
    12     8     9   ar
    13     9    10    1
    14    10    11    1
    15    11    12   ar
    16    11    20   ar
    17    12    13   ar
    18    13    14   ar
    19    13    18    1
    20    14    15    1
    21    14    19   ar
    22    15    16    1
    23    16    17    1
    24    17    18    1
    25    19    20   ar
    26    21    22   ar
    27    22    23   ar
    28    23    24   ar
