@<TRIPOS>MOLECULE
36755_ChemDiv_C919-0415
 28 31 0 0 0
SMALL
GASTEIGER
Energy = 0

@<TRIPOS>ATOM
      1 C           2.2960    0.2080    0.0000 C.ar    1  LIG1        0.1657
      2 N           1.2960    0.2080    0.0000 N.ar    1  LIG1       -0.2151
      3 N           0.9830    1.1540    0.0000 N.ar    1  LIG1       -0.1445
      4 C           1.7960    1.7330    0.0000 C.ar    1  LIG1        0.1844
      5 C           2.6040    1.1540    0.0000 C.ar    1  LIG1        0.0693
      6 C           3.5170    1.5580    0.0000 C.ar    1  LIG1       -0.0147
      7 C           3.6210    2.5460    0.0000 C.ar    1  LIG1        0.0107
      8 C           2.8080    3.1420    0.0000 C.ar    1  LIG1        0.0608
      9 N           1.8960    2.7330    0.0000 N.ar    1  LIG1       -0.2295
     10 C           2.9170    4.1290    0.0000 C.3     1  LIG1        0.0521
     11 C           4.3210    0.9710    0.0000 C.3     1  LIG1        0.0313
     12 C           0.7960   -0.6540    0.0000 C.ar    1  LIG1        0.0597
     13 C           1.2960   -1.5290    0.0000 C.ar    1  LIG1        0.0056
     14 C           2.2960   -1.5290    0.0000 C.ar    1  LIG1        0.0582
     15 N           2.7960   -0.6540    0.0000 N.ar    1  LIG1       -0.2311
     16 C           2.7960   -2.3920    0.0000 C.3     1  LIG1        0.0518
     17 C           0.7960   -2.3920    0.0000 C.3     1  LIG1        0.0384
     18 C          -0.2080   -2.3920    0.0000 C.3     1  LIG1        0.0920
     19 C          -0.7080   -3.2630    0.0000 C.2     1  LIG1        0.2476
     20 N          -1.7080   -3.2630    0.0000 N.am    1  LIG1       -0.1543
     21 C          -2.2080   -2.3920    0.0000 C.ar    1  LIG1        0.1855
     22 N          -3.2080   -2.2920    0.0000 N.ar    1  LIG1       -0.2269
     23 C          -3.4130   -1.3130    0.0000 C.ar    1  LIG1        0.0679
     24 C          -2.5460   -0.8130    0.0000 C.ar    1  LIG1        0.0529
     25 S          -1.8080   -1.4790    0.0000 S.2     1  LIG1       -0.0495
     26 C          -4.3250   -0.9040    0.0000 C.3     1  LIG1        0.0527
     27 O          -0.2080   -4.1290    0.0000 O.2     1  LIG1       -0.2729
     28 C          -0.2080   -0.6540    0.0000 C.3     1  LIG1        0.0519
@<TRIPOS>BOND
     1     1     2   ar
     2     1     5   ar
     3     1    15   ar
     4     2     3   ar
     5     2    12   ar
     6     3     4   ar
     7     4     5   ar
     8     4     9   ar
     9     5     6   ar
    10     6     7   ar
    11     6    11    1
    12     7     8   ar
    13     8     9   ar
    14     8    10    1
    15    12    13   ar
    16    12    28    1
    17    13    14   ar
    18    13    17    1
    19    14    15   ar
    20    14    16    1
    21    17    18    1
    22    18    19    1
    23    19    20   am
    24    19    27    2
    25    20    21    1
    26    21    22   ar
    27    21    25   ar
    28    22    23   ar
    29    23    24   ar
    30    23    26    1
    31    24    25   ar
