@<TRIPOS>MOLECULE
36757_ChemDiv_C919-0449
 33 36 0 0 0
SMALL
GASTEIGER
Energy = 0

@<TRIPOS>ATOM
      1 C           3.4880    0.2080    0.0000 C.ar    1  LIG1        0.1657
      2 N           2.4880    0.2080    0.0000 N.ar    1  LIG1       -0.2151
      3 N           2.1750    1.1540    0.0000 N.ar    1  LIG1       -0.1445
      4 C           2.9880    1.7330    0.0000 C.ar    1  LIG1        0.1844
      5 C           3.7960    1.1540    0.0000 C.ar    1  LIG1        0.0693
      6 C           4.7080    1.5580    0.0000 C.ar    1  LIG1       -0.0147
      7 C           4.8130    2.5460    0.0000 C.ar    1  LIG1        0.0107
      8 C           4.0000    3.1420    0.0000 C.ar    1  LIG1        0.0608
      9 N           3.0880    2.7330    0.0000 N.ar    1  LIG1       -0.2295
     10 C           4.1080    4.1290    0.0000 C.3     1  LIG1        0.0521
     11 C           5.5130    0.9710    0.0000 C.3     1  LIG1        0.0313
     12 C           1.9880   -0.6540    0.0000 C.ar    1  LIG1        0.0597
     13 C           2.4880   -1.5290    0.0000 C.ar    1  LIG1        0.0056
     14 C           3.4880   -1.5290    0.0000 C.ar    1  LIG1        0.0582
     15 N           3.9880   -0.6540    0.0000 N.ar    1  LIG1       -0.2311
     16 C           3.9880   -2.3920    0.0000 C.3     1  LIG1        0.0518
     17 C           1.9880   -2.3920    0.0000 C.3     1  LIG1        0.0384
     18 C           0.9880   -2.3920    0.0000 C.3     1  LIG1        0.0919
     19 C           0.4880   -3.2630    0.0000 C.2     1  LIG1        0.2459
     20 N          -0.5130   -3.2630    0.0000 N.am    1  LIG1       -0.1792
     21 C          -1.0170   -2.3920    0.0000 C.ar    1  LIG1        0.0736
     22 C          -2.0170   -2.3920    0.0000 C.ar    1  LIG1        0.0230
     23 C          -2.5170   -1.5290    0.0000 C.ar    1  LIG1        0.0769
     24 C          -3.5170   -1.5290    0.0000 C.2     1  LIG1        0.3412
     25 O          -4.0170   -2.3920    0.0000 O.2     1  LIG1       -0.2449
     26 O          -4.0170   -0.6540    0.0000 O.3     1  LIG1       -0.4454
     27 C          -5.0170   -0.6540    0.0000 C.3     1  LIG1        0.2089
     28 C          -5.5170    0.2080    0.0000 C.3     1  LIG1        0.0513
     29 C          -2.0170   -0.6540    0.0000 C.ar    1  LIG1        0.0065
     30 C          -1.0170   -0.6540    0.0000 C.ar    1  LIG1        0.0015
     31 C          -0.5130   -1.5290    0.0000 C.ar    1  LIG1        0.0166
     32 O           0.9880   -4.1290    0.0000 O.2     1  LIG1       -0.2730
     33 C           0.9880   -0.6540    0.0000 C.3     1  LIG1        0.0519
@<TRIPOS>BOND
     1     1     2   ar
     2     1     5   ar
     3     1    15   ar
     4     2     3   ar
     5     2    12   ar
     6     3     4   ar
     7     4     5   ar
     8     4     9   ar
     9     5     6   ar
    10     6     7   ar
    11     6    11    1
    12     7     8   ar
    13     8     9   ar
    14     8    10    1
    15    12    13   ar
    16    12    33    1
    17    13    14   ar
    18    13    17    1
    19    14    15   ar
    20    14    16    1
    21    17    18    1
    22    18    19    1
    23    19    20   am
    24    19    32    2
    25    20    21    1
    26    21    22   ar
    27    21    31   ar
    28    22    23   ar
    29    23    24    1
    30    23    29   ar
    31    24    25    2
    32    24    26    1
    33    26    27    1
    34    27    28    1
    35    29    30   ar
    36    30    31   ar
