@<TRIPOS>MOLECULE
36759_ChemDiv_C919-0506
 27 30 0 0 0
SMALL
GASTEIGER
Energy = 0

@<TRIPOS>ATOM
      1 C           1.9880    0.2080    0.0000 C.ar    1  LIG1        0.1657
      2 N           0.9880    0.2080    0.0000 N.ar    1  LIG1       -0.2151
      3 N           0.6750    1.1540    0.0000 N.ar    1  LIG1       -0.1445
      4 C           1.4880    1.7330    0.0000 C.ar    1  LIG1        0.1844
      5 C           2.2960    1.1540    0.0000 C.ar    1  LIG1        0.0693
      6 C           3.2080    1.5580    0.0000 C.ar    1  LIG1       -0.0147
      7 C           3.3130    2.5460    0.0000 C.ar    1  LIG1        0.0107
      8 C           2.5000    3.1420    0.0000 C.ar    1  LIG1        0.0608
      9 N           1.5880    2.7330    0.0000 N.ar    1  LIG1       -0.2295
     10 C           2.6080    4.1290    0.0000 C.3     1  LIG1        0.0521
     11 C           4.0130    0.9710    0.0000 C.3     1  LIG1        0.0313
     12 C           0.4880   -0.6540    0.0000 C.ar    1  LIG1        0.0597
     13 C           0.9880   -1.5290    0.0000 C.ar    1  LIG1        0.0056
     14 C           1.9880   -1.5290    0.0000 C.ar    1  LIG1        0.0582
     15 N           2.4880   -0.6540    0.0000 N.ar    1  LIG1       -0.2311
     16 C           2.4880   -2.3920    0.0000 C.3     1  LIG1        0.0518
     17 C           0.4880   -2.3920    0.0000 C.3     1  LIG1        0.0383
     18 C          -0.5170   -2.3920    0.0000 C.3     1  LIG1        0.0900
     19 C          -1.0170   -3.2630    0.0000 C.2     1  LIG1        0.2261
     20 N          -2.0170   -3.2630    0.0000 N.am    1  LIG1       -0.2744
     21 C          -2.5170   -2.3920    0.0000 C.3     1  LIG1        0.1255
     22 C          -3.5170   -2.3920    0.0000 C.3     1  LIG1        0.1636
     23 O          -4.0170   -3.2630    0.0000 O.3     1  LIG1       -0.3501
     24 C          -3.5170   -4.1290    0.0000 C.3     1  LIG1        0.1636
     25 C          -2.5170   -4.1290    0.0000 C.3     1  LIG1        0.1255
     26 O          -0.5170   -4.1290    0.0000 O.2     1  LIG1       -0.2749
     27 C          -0.5170   -0.6540    0.0000 C.3     1  LIG1        0.0519
@<TRIPOS>BOND
     1     1     2   ar
     2     1     5   ar
     3     1    15   ar
     4     2     3   ar
     5     2    12   ar
     6     3     4   ar
     7     4     5   ar
     8     4     9   ar
     9     5     6   ar
    10     6     7   ar
    11     6    11    1
    12     7     8   ar
    13     8     9   ar
    14     8    10    1
    15    12    13   ar
    16    12    27    1
    17    13    14   ar
    18    13    17    1
    19    14    15   ar
    20    14    16    1
    21    17    18    1
    22    18    19    1
    23    19    20   am
    24    19    26    2
    25    20    21    1
    26    20    25    1
    27    21    22    1
    28    22    23    1
    29    23    24    1
    30    24    25    1
