@<TRIPOS>MOLECULE
36761_ChemDiv_C919-0508
 31 34 0 0 0
SMALL
GASTEIGER
Energy = 0

@<TRIPOS>ATOM
      1 C           3.2580    1.5210    0.0000 C.ar    1  LIG1        0.1657
      2 N           2.2580    1.5210    0.0000 N.ar    1  LIG1       -0.2151
      3 N           1.9460    2.4630    0.0000 N.ar    1  LIG1       -0.1445
      4 C           2.7580    3.0420    0.0000 C.ar    1  LIG1        0.1844
      5 C           3.5670    2.4630    0.0000 C.ar    1  LIG1        0.0693
      6 C           4.4790    2.8670    0.0000 C.ar    1  LIG1       -0.0147
      7 C           4.5830    3.8540    0.0000 C.ar    1  LIG1        0.0107
      8 C           3.7710    4.4460    0.0000 C.ar    1  LIG1        0.0608
      9 N           2.8580    4.0370    0.0000 N.ar    1  LIG1       -0.2295
     10 C           3.8790    5.4380    0.0000 C.3     1  LIG1        0.0521
     11 C           5.2830    2.2790    0.0000 C.3     1  LIG1        0.0313
     12 C           1.7580    0.6580    0.0000 C.ar    1  LIG1        0.0597
     13 C           2.2580   -0.2130    0.0000 C.ar    1  LIG1        0.0056
     14 C           3.2580   -0.2130    0.0000 C.ar    1  LIG1        0.0582
     15 N           3.7580    0.6580    0.0000 N.ar    1  LIG1       -0.2311
     16 C           3.7580   -1.0750    0.0000 C.3     1  LIG1        0.0518
     17 C           1.7580   -1.0750    0.0000 C.3     1  LIG1        0.0384
     18 C           0.7580   -1.0750    0.0000 C.3     1  LIG1        0.0916
     19 C           0.2580   -1.9460    0.0000 C.2     1  LIG1        0.2417
     20 O           0.7580   -2.8130    0.0000 O.2     1  LIG1       -0.2733
     21 N          -0.7380   -1.9460    0.0000 N.am    1  LIG1       -0.2054
     22 C          -1.2380   -2.8130    0.0000 C.3     1  LIG1        0.1169
     23 C          -2.2380   -2.8130    0.0000 C.3     1  LIG1        0.0449
     24 C          -2.7380   -3.6750    0.0000 C.3     1  LIG1        0.0952
     25 N          -3.7380   -3.6750    0.0000 N.am    1  LIG1       -0.2795
     26 C          -4.3250   -4.4880    0.0000 C.2     1  LIG1        0.2257
     27 O          -4.0170   -5.4380    0.0000 O.2     1  LIG1       -0.2749
     28 C          -5.2880   -4.1750    0.0000 C.3     1  LIG1        0.0870
     29 C          -5.2880   -3.1750    0.0000 C.3     1  LIG1        0.0311
     30 C          -4.3250   -2.8630    0.0000 C.3     1  LIG1        0.0939
     31 C           0.7580    0.6580    0.0000 C.3     1  LIG1        0.0519
@<TRIPOS>BOND
     1     1     2   ar
     2     1     5   ar
     3     1    15   ar
     4     2     3   ar
     5     2    12   ar
     6     3     4   ar
     7     4     5   ar
     8     4     9   ar
     9     5     6   ar
    10     6     7   ar
    11     6    11    1
    12     7     8   ar
    13     8     9   ar
    14     8    10    1
    15    12    13   ar
    16    12    31    1
    17    13    14   ar
    18    13    17    1
    19    14    15   ar
    20    14    16    1
    21    17    18    1
    22    18    19    1
    23    19    20    2
    24    19    21   am
    25    21    22    1
    26    22    23    1
    27    23    24    1
    28    24    25    1
    29    25    26   am
    30    25    30    1
    31    26    27    2
    32    26    28    1
    33    28    29    1
    34    29    30    1
