@<TRIPOS>MOLECULE
36762_ChemDiv_C301-3795
 36 41 0 0 0
SMALL
GASTEIGER
Energy = 0

@<TRIPOS>ATOM
      1 C          -1.3420    3.9460    0.0000 C.ar    1  LIG1        0.2215
      2 N          -2.2080    4.4540    0.0000 N.ar    1  LIG1       -0.1873
      3 N          -1.9960    5.4290    0.0000 N.ar    1  LIG1       -0.0384
      4 N          -0.9960    5.5290    0.0000 N.ar    1  LIG1       -0.0222
      5 N          -0.5920    4.6080    0.0000 N.ar    1  LIG1       -0.1048
      6 C          -3.0710    3.9460    0.0000 C.ar    1  LIG1        0.1038
      7 C          -3.0710    2.9460    0.0000 C.ar    1  LIG1        0.1006
      8 N          -2.2080    2.4420    0.0000 N.ar    1  LIG1       -0.2245
      9 C          -1.3330    2.9420    0.0000 C.ar    1  LIG1        0.1901
     10 N          -0.3750    2.6830    0.0000 N.pl3   1  LIG1       -0.1915
     11 C          -0.1170    1.7210    0.0000 C.ar    1  LIG1        0.0724
     12 C           0.8540    1.4710    0.0000 C.ar    1  LIG1        0.0211
     13 C           1.1130    0.5080    0.0000 C.ar    1  LIG1        0.0549
     14 C           2.0830    0.2540    0.0000 C.2     1  LIG1        0.2492
     15 N           2.3540   -0.7080    0.0000 N.am    1  LIG1       -0.2726
     16 C           3.3210   -0.9630    0.0000 C.3     1  LIG1        0.1151
     17 C           3.5830   -1.9330    0.0000 C.3     1  LIG1        0.1124
     18 N           2.8710   -2.6330    0.0000 N.pl3   1  LIG1       -0.3017
     19 C           3.1290   -3.6040    0.0000 C.ar    1  LIG1        0.0824
     20 C           4.0960   -3.8580    0.0000 C.ar    1  LIG1        0.1519
     21 O           4.7960   -3.1500    0.0000 O.3     1  LIG1       -0.4702
     22 C           4.5380   -2.1920    0.0000 C.3     1  LIG1        0.2525
     23 C           4.3540   -4.8170    0.0000 C.ar    1  LIG1        0.0382
     24 C           3.6540   -5.5290    0.0000 C.ar    1  LIG1        0.0032
     25 C           2.6880   -5.2710    0.0000 C.ar    1  LIG1        0.0015
     26 C           2.4250   -4.3130    0.0000 C.ar    1  LIG1        0.0176
     27 C           1.9080   -2.3750    0.0000 C.3     1  LIG1        0.1124
     28 C           1.6420   -1.4210    0.0000 C.3     1  LIG1        0.1151
     29 O           2.7880    0.9630    0.0000 O.2     1  LIG1       -0.2699
     30 C           0.4080   -0.2080    0.0000 C.ar    1  LIG1        0.0046
     31 C          -0.5540    0.0460    0.0000 C.ar    1  LIG1        0.0015
     32 C          -0.8170    1.0170    0.0000 C.ar    1  LIG1        0.0166
     33 C          -3.9330    2.4420    0.0000 C.ar    1  LIG1        0.0207
     34 C          -4.8000    2.9420    0.0000 C.ar    1  LIG1        0.0016
     35 C          -4.8000    3.9460    0.0000 C.ar    1  LIG1        0.0016
     36 C          -3.9330    4.4420    0.0000 C.ar    1  LIG1        0.0208
@<TRIPOS>BOND
     1     1     2   ar
     2     1     5   ar
     3     1     9   ar
     4     2     3   ar
     5     2     6   ar
     6     3     4   ar
     7     4     5   ar
     8     6     7   ar
     9     6    36   ar
    10     7     8   ar
    11     7    33   ar
    12     8     9   ar
    13     9    10    1
    14    10    11    1
    15    11    12   ar
    16    11    32   ar
    17    12    13   ar
    18    13    14    1
    19    13    30   ar
    20    14    15   am
    21    14    29    2
    22    15    16    1
    23    15    28    1
    24    16    17    1
    25    17    18    1
    26    18    19    1
    27    18    27    1
    28    19    20   ar
    29    19    26   ar
    30    20    21    1
    31    20    23   ar
    32    21    22    1
    33    23    24   ar
    34    24    25   ar
    35    25    26   ar
    36    27    28    1
    37    30    31   ar
    38    31    32   ar
    39    33    34   ar
    40    34    35   ar
    41    35    36   ar
