@<TRIPOS>MOLECULE
36763_ChemDiv_C919-0521
 31 35 0 0 0
SMALL
GASTEIGER
Energy = 0

@<TRIPOS>ATOM
      1 C           2.5290    0.2080    0.0000 C.ar    1  LIG1        0.1657
      2 N           1.5290    0.2080    0.0000 N.ar    1  LIG1       -0.2151
      3 N           1.2170    1.1540    0.0000 N.ar    1  LIG1       -0.1445
      4 C           2.0290    1.7330    0.0000 C.ar    1  LIG1        0.1844
      5 C           2.8380    1.1540    0.0000 C.ar    1  LIG1        0.0693
      6 C           3.7500    1.5580    0.0000 C.ar    1  LIG1       -0.0147
      7 C           3.8540    2.5460    0.0000 C.ar    1  LIG1        0.0107
      8 C           3.0420    3.1420    0.0000 C.ar    1  LIG1        0.0608
      9 N           2.1290    2.7330    0.0000 N.ar    1  LIG1       -0.2295
     10 C           3.1500    4.1290    0.0000 C.3     1  LIG1        0.0521
     11 C           4.5540    0.9710    0.0000 C.3     1  LIG1        0.0313
     12 C           1.0290   -0.6540    0.0000 C.ar    1  LIG1        0.0597
     13 C           1.5290   -1.5290    0.0000 C.ar    1  LIG1        0.0056
     14 C           2.5290   -1.5290    0.0000 C.ar    1  LIG1        0.0582
     15 N           3.0290   -0.6540    0.0000 N.ar    1  LIG1       -0.2311
     16 C           3.0290   -2.3920    0.0000 C.3     1  LIG1        0.0518
     17 C           1.0290   -2.3920    0.0000 C.3     1  LIG1        0.0384
     18 C           0.0290   -2.3920    0.0000 C.3     1  LIG1        0.0919
     19 C          -0.4710   -3.2630    0.0000 C.2     1  LIG1        0.2459
     20 N          -1.4710   -3.2630    0.0000 N.am    1  LIG1       -0.1791
     21 C          -1.9710   -2.3920    0.0000 C.ar    1  LIG1        0.0766
     22 C          -2.9710   -2.3920    0.0000 C.ar    1  LIG1        0.0568
     23 C          -3.4710   -1.5290    0.0000 C.ar    1  LIG1        0.1777
     24 C          -2.9710   -0.6540    0.0000 C.ar    1  LIG1        0.1765
     25 O          -3.6460    0.0830    0.0000 O.3     1  LIG1       -0.4346
     26 C          -4.5580   -0.3290    0.0000 C.3     1  LIG1        0.4294
     27 O          -4.4500   -1.3170    0.0000 O.3     1  LIG1       -0.4346
     28 C          -1.9710   -0.6540    0.0000 C.ar    1  LIG1        0.0415
     29 C          -1.4710   -1.5290    0.0000 C.ar    1  LIG1        0.0199
     30 O           0.0290   -4.1290    0.0000 O.2     1  LIG1       -0.2730
     31 C           0.0290   -0.6540    0.0000 C.3     1  LIG1        0.0519
@<TRIPOS>BOND
     1     1     2   ar
     2     1     5   ar
     3     1    15   ar
     4     2     3   ar
     5     2    12   ar
     6     3     4   ar
     7     4     5   ar
     8     4     9   ar
     9     5     6   ar
    10     6     7   ar
    11     6    11    1
    12     7     8   ar
    13     8     9   ar
    14     8    10    1
    15    12    13   ar
    16    12    31    1
    17    13    14   ar
    18    13    17    1
    19    14    15   ar
    20    14    16    1
    21    17    18    1
    22    18    19    1
    23    19    20   am
    24    19    30    2
    25    20    21    1
    26    21    22   ar
    27    21    29   ar
    28    22    23   ar
    29    23    24   ar
    30    23    27    1
    31    24    25    1
    32    24    28   ar
    33    25    26    1
    34    26    27    1
    35    28    29   ar
