@<TRIPOS>MOLECULE
36768_ChemDiv_C301-1921
 32 37 0 0 0
SMALL
GASTEIGER
Energy = 0

@<TRIPOS>ATOM
      1 C           1.4080   -0.0500    0.0000 C.ar    1  LIG1        0.2037
      2 N           1.4080   -1.0500    0.0000 N.ar    1  LIG1       -0.2677
      3 C           0.5250   -1.5460    0.0000 C.ar    1  LIG1        0.0847
      4 C          -0.3380   -1.0290    0.0000 C.ar    1  LIG1        0.0990
      5 N          -0.3250   -0.0250    0.0000 N.ar    1  LIG1       -0.2249
      6 C           0.5380    0.4710    0.0000 C.ar    1  LIG1        0.1847
      7 N           0.5460    1.4670    0.0000 N.pl3   1  LIG1       -0.2129
      8 C           1.4170    1.9580    0.0000 C.3     1  LIG1        0.1404
      9 C           1.4210    2.9500    0.0000 C.ar    1  LIG1        0.0026
     10 C           0.5710    3.4460    0.0000 C.ar    1  LIG1        0.0376
     11 C           0.5710    4.4330    0.0000 C.ar    1  LIG1        0.1762
     12 C           1.4380    4.9290    0.0000 C.ar    1  LIG1        0.1764
     13 O           1.2330    5.9080    0.0000 O.3     1  LIG1       -0.4346
     14 C           0.2420    6.0170    0.0000 C.3     1  LIG1        0.4294
     15 O          -0.1670    5.1000    0.0000 O.3     1  LIG1       -0.4346
     16 C           2.2960    4.4210    0.0000 C.ar    1  LIG1        0.0399
     17 C           2.2920    3.4330    0.0000 C.ar    1  LIG1        0.0008
     18 C          -1.2000   -1.5250    0.0000 C.ar    1  LIG1        0.0207
     19 C          -1.2080   -2.5290    0.0000 C.ar    1  LIG1        0.0048
     20 C          -0.3460   -3.0330    0.0000 C.ar    1  LIG1        0.0405
     21 C           0.5210   -2.5460    0.0000 C.ar    1  LIG1        0.0223
     22 C          -0.3580   -4.0370    0.0000 C.2     1  LIG1        0.1956
     23 O           0.5040   -4.5460    0.0000 O.2     1  LIG1       -0.2866
     24 C          -1.2290   -4.5210    0.0000 C.ar    1  LIG1        0.0390
     25 C          -1.2330   -5.5210    0.0000 C.ar    1  LIG1        0.0032
     26 C          -2.0960   -6.0170    0.0000 C.ar    1  LIG1        0.0001
     27 C          -2.9670   -5.5130    0.0000 C.ar    1  LIG1        0.0000
     28 C          -2.9580   -4.5080    0.0000 C.ar    1  LIG1        0.0001
     29 C          -2.0880   -4.0170    0.0000 C.ar    1  LIG1        0.0032
     30 C           2.3580   -1.3630    0.0000 C.ar    1  LIG1        0.2069
     31 N           2.9630   -0.5540    0.0000 N.ar    1  LIG1       -0.1251
     32 N           2.3710    0.2580    0.0000 N.ar    1  LIG1       -0.1253
@<TRIPOS>BOND
     1     1     2   ar
     2     1     6   ar
     3     1    32   ar
     4     2     3   ar
     5     2    30   ar
     6     3     4   ar
     7     3    21   ar
     8     4     5   ar
     9     4    18   ar
    10     5     6   ar
    11     6     7    1
    12     7     8    1
    13     8     9    1
    14     9    10   ar
    15     9    17   ar
    16    10    11   ar
    17    11    12   ar
    18    11    15    1
    19    12    13    1
    20    12    16   ar
    21    13    14    1
    22    14    15    1
    23    16    17   ar
    24    18    19   ar
    25    19    20   ar
    26    20    21   ar
    27    20    22    1
    28    22    23    2
    29    22    24    1
    30    24    25   ar
    31    24    29   ar
    32    25    26   ar
    33    26    27   ar
    34    27    28   ar
    35    28    29   ar
    36    30    31   ar
    37    31    32   ar
