@<TRIPOS>MOLECULE
36760_ChemDiv_C301-3751
 31 35 0 0 0
SMALL
GASTEIGER
Energy = 0

@<TRIPOS>ATOM
      1 C          -0.3830    4.1420    0.0000 C.ar    1  LIG1        0.2215
      2 N          -1.2670    4.6460    0.0000 N.ar    1  LIG1       -0.1873
      3 N          -1.0540    5.6460    0.0000 N.ar    1  LIG1       -0.0384
      4 N          -0.0420    5.7630    0.0000 N.ar    1  LIG1       -0.0222
      5 N           0.3710    4.8250    0.0000 N.ar    1  LIG1       -0.1048
      6 C          -2.1420    4.1290    0.0000 C.ar    1  LIG1        0.1038
      7 C          -2.1420    3.1170    0.0000 C.ar    1  LIG1        0.1006
      8 N          -1.2630    2.6210    0.0000 N.ar    1  LIG1       -0.2245
      9 C          -0.4040    3.1170    0.0000 C.ar    1  LIG1        0.1901
     10 N           0.4460    2.6210    0.0000 N.pl3   1  LIG1       -0.1915
     11 C           0.4460    1.6380    0.0000 C.ar    1  LIG1        0.0724
     12 C           1.2960    1.1500    0.0000 C.ar    1  LIG1        0.0211
     13 C           1.2960    0.1670    0.0000 C.ar    1  LIG1        0.0563
     14 C           2.1540   -0.3170    0.0000 C.2     1  LIG1        0.2651
     15 N           2.1540   -1.3080    0.0000 N.am    1  LIG1       -0.1968
     16 C           3.0170   -1.8000    0.0000 C.3     1  LIG1        0.1418
     17 C           3.0290   -2.7830    0.0000 C.ar    1  LIG1       -0.0006
     18 C           2.1710   -3.2790    0.0000 C.ar    1  LIG1       -0.0029
     19 C           2.1710   -4.2630    0.0000 C.ar    1  LIG1       -0.0045
     20 C           3.0330   -4.7630    0.0000 C.ar    1  LIG1       -0.0219
     21 C           3.8920   -4.2580    0.0000 C.ar    1  LIG1       -0.0045
     22 C           3.8790   -3.2670    0.0000 C.ar    1  LIG1       -0.0029
     23 C           3.0330   -5.7630    0.0000 C.3     1  LIG1        0.0310
     24 O           3.0130    0.1830    0.0000 O.2     1  LIG1       -0.2684
     25 C           0.4460   -0.3250    0.0000 C.ar    1  LIG1        0.0046
     26 C          -0.4170    0.1670    0.0000 C.ar    1  LIG1        0.0015
     27 C          -0.4170    1.1500    0.0000 C.ar    1  LIG1        0.0166
     28 C          -3.0170    2.6080    0.0000 C.ar    1  LIG1        0.0207
     29 C          -3.8960    3.1170    0.0000 C.ar    1  LIG1        0.0016
     30 C          -3.8960    4.1290    0.0000 C.ar    1  LIG1        0.0016
     31 C          -3.0170    4.6420    0.0000 C.ar    1  LIG1        0.0208
@<TRIPOS>BOND
     1     1     2   ar
     2     1     5   ar
     3     1     9   ar
     4     2     3   ar
     5     2     6   ar
     6     3     4   ar
     7     4     5   ar
     8     6     7   ar
     9     6    31   ar
    10     7     8   ar
    11     7    28   ar
    12     8     9   ar
    13     9    10    1
    14    10    11    1
    15    11    12   ar
    16    11    27   ar
    17    12    13   ar
    18    13    14    1
    19    13    25   ar
    20    14    15   am
    21    14    24    2
    22    15    16    1
    23    16    17    1
    24    17    18   ar
    25    17    22   ar
    26    18    19   ar
    27    19    20   ar
    28    20    21   ar
    29    20    23    1
    30    21    22   ar
    31    25    26   ar
    32    26    27   ar
    33    28    29   ar
    34    29    30   ar
    35    30    31   ar
