@<TRIPOS>MOLECULE
36783_ChemDiv_C270-0472
 29 31 0 0 0
SMALL
GASTEIGER
Energy = 0

@<TRIPOS>ATOM
      1 N          -3.4710   -0.4790    0.0000 N.pl3   1  LIG1       -0.2972
      2 C          -4.3330   -0.9670    0.0000 C.ar    1  LIG1        0.0483
      3 C          -4.3460   -1.9790    0.0000 C.ar    1  LIG1        0.0176
      4 C          -5.2080   -2.4670    0.0000 C.ar    1  LIG1        0.0382
      5 C          -6.0670   -1.9670    0.0000 C.ar    1  LIG1        0.1388
      6 C          -6.0670   -0.9670    0.0000 C.ar    1  LIG1        0.0382
      7 C          -5.2080   -0.4670    0.0000 C.ar    1  LIG1        0.0176
      8 O          -6.9380   -2.4670    0.0000 O.3     1  LIG1       -0.4714
      9 C          -7.8000   -1.9630    0.0000 C.3     1  LIG1        0.2525
     10 C          -2.6040   -0.9830    0.0000 C.3     1  LIG1        0.1544
     11 C          -1.7380   -0.4920    0.0000 C.3     1  LIG1        0.1605
     12 N          -1.7290    0.5080    0.0000 N.4     1  LIG1        0.3800
     13 C          -2.6040    1.0170    0.0000 C.3     1  LIG1        0.1605
     14 C          -3.4670    0.5170    0.0000 C.3     1  LIG1        0.1544
     15 C          -0.8580    1.0080    0.0000 C.3     1  LIG1        0.1406
     16 C           0.0040    0.5000    0.0000 C.3     1  LIG1        0.0861
     17 C           0.8670    1.0000    0.0000 C.3     1  LIG1        0.1230
     18 N           1.7290    0.4920    0.0000 N.am    1  LIG1       -0.1867
     19 C           2.6040    0.9880    0.0000 C.2     1  LIG1        0.3435
     20 N           3.4580    0.4880    0.0000 N.am    1  LIG1       -0.1610
     21 C           4.3290    0.9750    0.0000 C.ar    1  LIG1        0.0749
     22 C           5.1960    0.4710    0.0000 C.ar    1  LIG1        0.0163
     23 C           6.0630    0.9630    0.0000 C.ar    1  LIG1       -0.0029
     24 C           6.0630    1.9630    0.0000 C.ar    1  LIG1       -0.0221
     25 C           5.2000    2.4710    0.0000 C.ar    1  LIG1       -0.0029
     26 C           4.3380    1.9710    0.0000 C.ar    1  LIG1        0.0163
     27 C           6.9380    2.4630    0.0000 C.3     1  LIG1        0.0264
     28 C           7.8000    1.9580    0.0000 C.3     1  LIG1        0.0050
     29 O           2.6080    1.9880    0.0000 O.2     1  LIG1       -0.2488
@<TRIPOS>BOND
     1     1     2    1
     2     1    10    1
     3     1    14    1
     4     2     3   ar
     5     2     7   ar
     6     3     4   ar
     7     4     5   ar
     8     5     6   ar
     9     5     8    1
    10     6     7   ar
    11     8     9    1
    12    10    11    1
    13    11    12    1
    14    12    13    1
    15    12    15    1
    16    13    14    1
    17    15    16    1
    18    16    17    1
    19    17    18    1
    20    18    19   am
    21    19    20   am
    22    19    29    2
    23    20    21    1
    24    21    22   ar
    25    21    26   ar
    26    22    23   ar
    27    23    24   ar
    28    24    25   ar
    29    24    27    1
    30    25    26   ar
    31    27    28    1
