@<TRIPOS>MOLECULE
36794_ChemDiv_C735-0150
 17 20 0 0 0
SMALL
GASTEIGER
Energy = 0

@<TRIPOS>ATOM
      1 C           1.0670    0.8630    0.0000 C.ar    1  LIG1        0.2037
      2 N           0.2000    1.3540    0.0000 N.ar    1  LIG1       -0.2677
      3 C          -0.6580    0.8500    0.0000 C.ar    1  LIG1        0.0846
      4 C          -0.6580   -0.1460    0.0000 C.ar    1  LIG1        0.0990
      5 N           0.2000   -0.6500    0.0000 N.ar    1  LIG1       -0.2249
      6 C           1.0670   -0.1460    0.0000 C.ar    1  LIG1        0.1843
      7 N           1.9000   -0.6330    0.0000 N.pl3   1  LIG1       -0.2195
      8 C           1.9000   -1.6000    0.0000 C.3     1  LIG1        0.0942
      9 C           1.2210   -2.2790    0.0000 C.3     1  LIG1        0.0234
     10 C           2.3790   -2.4330    0.0000 C.3     1  LIG1        0.0234
     11 C          -1.5170   -0.6500    0.0000 C.ar    1  LIG1        0.0206
     12 C          -2.3830   -0.1460    0.0000 C.ar    1  LIG1        0.0016
     13 C          -2.3830    0.8500    0.0000 C.ar    1  LIG1        0.0016
     14 C          -1.5170    1.3460    0.0000 C.ar    1  LIG1        0.0191
     15 C           0.4130    2.3290    0.0000 C.ar    1  LIG1        0.2069
     16 N           1.4040    2.4380    0.0000 N.ar    1  LIG1       -0.1251
     17 N           1.8080    1.5250    0.0000 N.ar    1  LIG1       -0.1253
@<TRIPOS>BOND
     1     1     2   ar
     2     1     6   ar
     3     1    17   ar
     4     2     3   ar
     5     2    15   ar
     6     3     4   ar
     7     3    14   ar
     8     4     5   ar
     9     4    11   ar
    10     5     6   ar
    11     6     7    1
    12     7     8    1
    13     8     9    1
    14     8    10    1
    15     9    10    1
    16    11    12   ar
    17    12    13   ar
    18    13    14   ar
    19    15    16   ar
    20    16    17   ar
