@<TRIPOS>MOLECULE
36790_ChemDiv_C735-0046
 24 27 0 0 0
SMALL
GASTEIGER
Energy = 0

@<TRIPOS>ATOM
      1 C          -0.8040    1.9290    0.0000 C.ar    1  LIG1        0.2037
      2 N          -1.6830    2.4330    0.0000 N.ar    1  LIG1       -0.2677
      3 C          -2.5500    1.9210    0.0000 C.ar    1  LIG1        0.0846
      4 C          -2.5500    0.9080    0.0000 C.ar    1  LIG1        0.0990
      5 N          -1.6830    0.3960    0.0000 N.ar    1  LIG1       -0.2249
      6 C          -0.8040    0.9080    0.0000 C.ar    1  LIG1        0.1847
      7 N           0.0460    0.4130    0.0000 N.pl3   1  LIG1       -0.2129
      8 C           0.0460   -0.5670    0.0000 C.3     1  LIG1        0.1403
      9 C           0.8920   -1.0630    0.0000 C.ar    1  LIG1       -0.0006
     10 C           1.7500   -0.5670    0.0000 C.ar    1  LIG1       -0.0025
     11 C           2.6040   -1.0670    0.0000 C.ar    1  LIG1        0.0009
     12 C           2.6000   -2.0420    0.0000 C.ar    1  LIG1        0.0140
     13 C           3.4460   -2.5460    0.0000 C.2     1  LIG1        0.0729
     14 O           4.3000   -2.0580    0.0000 O.co2   1  LIG1       -0.5446
     15 O           3.4380   -3.5290    0.0000 O.co2   1  LIG1       -0.5446
     16 C           1.7420   -2.5380    0.0000 C.ar    1  LIG1        0.0009
     17 C           0.8920   -2.0420    0.0000 C.ar    1  LIG1       -0.0025
     18 C          -3.4250    0.3960    0.0000 C.ar    1  LIG1        0.0206
     19 C          -4.3040    0.9080    0.0000 C.ar    1  LIG1        0.0016
     20 C          -4.3040    1.9210    0.0000 C.ar    1  LIG1        0.0016
     21 C          -3.4250    2.4210    0.0000 C.ar    1  LIG1        0.0191
     22 C          -1.4670    3.4210    0.0000 C.ar    1  LIG1        0.2069
     23 N          -0.4580    3.5330    0.0000 N.ar    1  LIG1       -0.1251
     24 N          -0.0500    2.6040    0.0000 N.ar    1  LIG1       -0.1253
@<TRIPOS>BOND
     1     1     2   ar
     2     1     6   ar
     3     1    24   ar
     4     2     3   ar
     5     2    22   ar
     6     3     4   ar
     7     3    21   ar
     8     4     5   ar
     9     4    18   ar
    10     5     6   ar
    11     6     7    1
    12     7     8    1
    13     8     9    1
    14     9    10   ar
    15     9    17   ar
    16    10    11   ar
    17    11    12   ar
    18    12    13    1
    19    12    16   ar
    20    13    14   ar
    21    13    15   ar
    22    16    17   ar
    23    18    19   ar
    24    19    20   ar
    25    20    21   ar
    26    22    23   ar
    27    23    24   ar
