@<TRIPOS>MOLECULE
36796_ChemDiv_C735-0263
 29 32 0 0 0
SMALL
GASTEIGER
Energy = 0

@<TRIPOS>ATOM
      1 C           0.9250    3.3920    0.0000 C.ar    1  LIG1        0.2037
      2 N           0.0420    3.9000    0.0000 N.ar    1  LIG1       -0.2677
      3 C          -0.8500    3.3920    0.0000 C.ar    1  LIG1        0.0843
      4 C          -0.8500    2.3750    0.0000 C.ar    1  LIG1        0.0990
      5 N           0.0420    1.8540    0.0000 N.ar    1  LIG1       -0.2249
      6 C           0.9250    2.3670    0.0000 C.ar    1  LIG1        0.1844
      7 N           1.7710    1.8710    0.0000 N.pl3   1  LIG1       -0.2174
      8 C           1.7710    0.9000    0.0000 C.3     1  LIG1        0.1186
      9 C           2.6210    0.4080    0.0000 C.3     1  LIG1        0.0498
     10 C           2.6210   -0.5750    0.0000 C.ar    1  LIG1       -0.0172
     11 C           1.7630   -1.0670    0.0000 C.ar    1  LIG1        0.0358
     12 C           1.7630   -2.0630    0.0000 C.ar    1  LIG1        0.1719
     13 C           2.6210   -2.5540    0.0000 C.ar    1  LIG1        0.1722
     14 C           3.4790   -2.0500    0.0000 C.ar    1  LIG1        0.0397
     15 C           3.4670   -1.0670    0.0000 C.ar    1  LIG1       -0.0009
     16 O           2.6210   -3.5250    0.0000 O.3     1  LIG1       -0.4724
     17 C           3.4670   -4.0130    0.0000 C.3     1  LIG1        0.2057
     18 C           3.4670   -4.9960    0.0000 C.3     1  LIG1        0.0512
     19 O           0.9130   -2.5420    0.0000 O.3     1  LIG1       -0.4724
     20 C           0.9130   -3.5250    0.0000 C.3     1  LIG1        0.2057
     21 C           0.0670   -4.0130    0.0000 C.3     1  LIG1        0.0512
     22 C          -1.7210    1.8540    0.0000 C.ar    1  LIG1        0.0203
     23 C          -2.6000    2.3670    0.0000 C.ar    1  LIG1       -0.0026
     24 C          -2.6000    3.3830    0.0000 C.ar    1  LIG1       -0.0203
     25 C          -1.7210    3.8880    0.0000 C.ar    1  LIG1        0.0149
     26 C          -3.4830    3.9000    0.0000 C.3     1  LIG1        0.0311
     27 C           0.2460    4.8830    0.0000 C.ar    1  LIG1        0.2069
     28 N           1.2630    4.9960    0.0000 N.ar    1  LIG1       -0.1251
     29 N           1.6750    4.0710    0.0000 N.ar    1  LIG1       -0.1253
@<TRIPOS>BOND
     1     1     2   ar
     2     1     6   ar
     3     1    29   ar
     4     2     3   ar
     5     2    27   ar
     6     3     4   ar
     7     3    25   ar
     8     4     5   ar
     9     4    22   ar
    10     5     6   ar
    11     6     7    1
    12     7     8    1
    13     8     9    1
    14     9    10    1
    15    10    11   ar
    16    10    15   ar
    17    11    12   ar
    18    12    13   ar
    19    12    19    1
    20    13    14   ar
    21    13    16    1
    22    14    15   ar
    23    16    17    1
    24    17    18    1
    25    19    20    1
    26    20    21    1
    27    22    23   ar
    28    23    24   ar
    29    24    25   ar
    30    24    26    1
    31    27    28   ar
    32    28    29   ar
