@<TRIPOS>MOLECULE
36798_ChemDiv_E208-0038
 28 32 0 0 0
SMALL
GASTEIGER
Energy = 0

@<TRIPOS>ATOM
      1 C          -1.7170   -0.3460    0.0000 C.ar    1  LIG1        0.2034
      2 N          -2.5880    0.1500    0.0000 N.ar    1  LIG1       -0.2735
      3 C          -2.3830    1.1330    0.0000 C.ar    1  LIG1        0.1476
      4 N          -1.3880    1.2460    0.0000 N.ar    1  LIG1       -0.1329
      5 N          -0.9790    0.3250    0.0000 N.ar    1  LIG1       -0.1257
      6 C          -3.0500    1.8790    0.0000 C.3     1  LIG1        0.0742
      7 C          -3.4540   -0.3500    0.0000 C.ar    1  LIG1        0.0842
      8 C          -3.4540   -1.3460    0.0000 C.ar    1  LIG1        0.0990
      9 N          -2.5880   -1.8630    0.0000 N.ar    1  LIG1       -0.2249
     10 C          -1.7170   -1.3540    0.0000 C.ar    1  LIG1        0.1843
     11 N          -0.8540   -1.8540    0.0000 N.pl3   1  LIG1       -0.2191
     12 C          -0.0040   -1.3540    0.0000 C.3     1  LIG1        0.1060
     13 C          -0.0040   -0.3580    0.0000 C.3     1  LIG1        0.0845
     14 C           0.8710    0.1380    0.0000 C.3     1  LIG1        0.1408
     15 N           1.7380   -0.3670    0.0000 N.4     1  LIG1        0.3808
     16 C           2.5960    0.1290    0.0000 C.3     1  LIG1        0.1662
     17 C           3.4540   -0.3670    0.0000 C.ar    1  LIG1        0.0344
     18 C           4.3130    0.1210    0.0000 C.ar    1  LIG1        0.0014
     19 C           5.1830   -0.3670    0.0000 C.ar    1  LIG1       -0.0001
     20 C           5.1750   -1.3790    0.0000 C.ar    1  LIG1       -0.0000
     21 C           4.3130   -1.8750    0.0000 C.ar    1  LIG1       -0.0001
     22 C           3.4540   -1.3750    0.0000 C.ar    1  LIG1        0.0014
     23 C           1.7250   -1.3540    0.0000 C.3     1  LIG1        0.1408
     24 C           0.8540   -1.8540    0.0000 C.3     1  LIG1        0.0845
     25 C          -4.3290   -1.8630    0.0000 C.ar    1  LIG1        0.0206
     26 C          -5.1880   -1.3540    0.0000 C.ar    1  LIG1        0.0016
     27 C          -5.1880   -0.3500    0.0000 C.ar    1  LIG1        0.0016
     28 C          -4.3290    0.1500    0.0000 C.ar    1  LIG1        0.0191
@<TRIPOS>BOND
     1     1     2   ar
     2     1     5   ar
     3     1    10   ar
     4     2     3   ar
     5     2     7   ar
     6     3     4   ar
     7     3     6    1
     8     4     5   ar
     9     7     8   ar
    10     7    28   ar
    11     8     9   ar
    12     8    25   ar
    13     9    10   ar
    14    10    11    1
    15    11    12    1
    16    12    13    1
    17    12    24    1
    18    13    14    1
    19    14    15    1
    20    15    16    1
    21    15    23    1
    22    16    17    1
    23    17    18   ar
    24    17    22   ar
    25    18    19   ar
    26    19    20   ar
    27    20    21   ar
    28    21    22   ar
    29    23    24    1
    30    25    26   ar
    31    26    27   ar
    32    27    28   ar
