@<TRIPOS>MOLECULE
36807_ChemDiv_C270-0440
 23 25 0 0 0
SMALL
GASTEIGER
Energy = 0

@<TRIPOS>ATOM
      1 N           0.0080   -1.0080    0.0000 N.ar    1  LIG1       -0.2748
      2 C          -0.8630   -0.5130    0.0000 C.ar    1  LIG1        0.1838
      3 N          -1.7250   -1.0170    0.0000 N.ar    1  LIG1       -0.2217
      4 C          -1.7080   -2.0250    0.0000 C.ar    1  LIG1        0.0880
      5 C          -0.8420   -2.5130    0.0000 C.ar    1  LIG1        0.0739
      6 C           0.0290   -2.0040    0.0000 C.ar    1  LIG1        0.2637
      7 O           0.8960   -2.4920    0.0000 O.2     1  LIG1       -0.2669
      8 C          -0.8290   -3.5080    0.0000 C.ar    1  LIG1        0.0063
      9 C          -1.6830   -4.0170    0.0000 C.ar    1  LIG1        0.0003
     10 C          -2.5580   -3.5290    0.0000 C.ar    1  LIG1        0.0015
     11 C          -2.5710   -2.5330    0.0000 C.ar    1  LIG1        0.0193
     12 S          -0.8750    0.4830    0.0000 S.2     1  LIG1       -0.0109
     13 C           0.8710   -0.4960    0.0000 C.3     1  LIG1        0.1171
     14 C           0.8580    0.5080    0.0000 C.3     1  LIG1        0.0873
     15 C           1.7210    1.0210    0.0000 C.3     1  LIG1        0.1403
     16 N           1.7040    2.0250    0.0000 N.4     1  LIG1        0.3730
     17 C           0.8330    2.5170    0.0000 C.3     1  LIG1        0.0869
     18 C          -0.0210    2.0040    0.0000 C.3     1  LIG1        0.0567
     19 C          -0.8920    2.4920    0.0000 C.3     1  LIG1        0.0061
     20 C           0.8170    3.5130    0.0000 C.3     1  LIG1        0.0569
     21 C           1.6790    4.0170    0.0000 C.3     1  LIG1        0.0120
     22 C           2.5540    3.5460    0.0000 C.3     1  LIG1        0.0629
     23 C           2.5670    2.5380    0.0000 C.3     1  LIG1        0.1383
@<TRIPOS>BOND
     1     1     2   ar
     2     1     6   ar
     3     1    13    1
     4     2     3   ar
     5     2    12    2
     6     3     4   ar
     7     4     5   ar
     8     4    11   ar
     9     5     6   ar
    10     5     8   ar
    11     6     7    2
    12     8     9   ar
    13     9    10   ar
    14    10    11   ar
    15    13    14    1
    16    14    15    1
    17    15    16    1
    18    16    17    1
    19    16    23    1
    20    17    18    1
    21    17    20    1
    22    18    19    1
    23    20    21    1
    24    21    22    1
    25    22    23    1
