@<TRIPOS>MOLECULE
36801_ChemDiv_C270-0478
 31 33 0 0 0
SMALL
GASTEIGER
Energy = 0

@<TRIPOS>ATOM
      1 N          -2.5880    2.2580    0.0000 N.pl3   1  LIG1       -0.2972
      2 C          -3.4630    2.7580    0.0000 C.ar    1  LIG1        0.0483
      3 C          -3.4630    3.7580    0.0000 C.ar    1  LIG1        0.0176
      4 C          -4.3250    4.2540    0.0000 C.ar    1  LIG1        0.0382
      5 C          -5.1880    3.7580    0.0000 C.ar    1  LIG1        0.1388
      6 C          -5.1880    2.7580    0.0000 C.ar    1  LIG1        0.0382
      7 C          -4.3250    2.2580    0.0000 C.ar    1  LIG1        0.0176
      8 O          -6.0460    4.2540    0.0000 O.3     1  LIG1       -0.4714
      9 C          -6.0460    5.2540    0.0000 C.3     1  LIG1        0.2525
     10 C          -1.7330    2.7580    0.0000 C.3     1  LIG1        0.1544
     11 C          -0.8580    2.2500    0.0000 C.3     1  LIG1        0.1605
     12 N          -0.8580    1.2500    0.0000 N.4     1  LIG1        0.3800
     13 C          -1.7330    0.7500    0.0000 C.3     1  LIG1        0.1605
     14 C          -2.5960    1.2500    0.0000 C.3     1  LIG1        0.1544
     15 C           0.0040    0.7500    0.0000 C.3     1  LIG1        0.1406
     16 C           0.0040   -0.2500    0.0000 C.3     1  LIG1        0.0861
     17 C           0.8670   -0.7540    0.0000 C.3     1  LIG1        0.1230
     18 N           0.8540   -1.7540    0.0000 N.am    1  LIG1       -0.1867
     19 C           1.7290   -2.2540    0.0000 C.2     1  LIG1        0.3436
     20 N           1.7210   -3.2540    0.0000 N.am    1  LIG1       -0.1578
     21 C           2.5920   -3.7540    0.0000 C.ar    1  LIG1        0.1118
     22 C           3.4460   -3.2540    0.0000 C.ar    1  LIG1        0.0566
     23 C           4.3080   -3.7540    0.0000 C.ar    1  LIG1        0.1402
     24 C           4.3080   -4.7540    0.0000 C.ar    1  LIG1        0.0401
     25 C           3.4460   -5.2540    0.0000 C.ar    1  LIG1        0.0414
     26 C           2.5830   -4.7540    0.0000 C.ar    1  LIG1        0.1541
     27 O           1.7210   -5.2540    0.0000 O.3     1  LIG1       -0.4701
     28 C           0.8500   -4.7500    0.0000 C.3     1  LIG1        0.2525
     29 O           5.1830   -3.2540    0.0000 O.3     1  LIG1       -0.4714
     30 C           6.0460   -3.7540    0.0000 C.3     1  LIG1        0.2525
     31 O           2.5920   -1.7540    0.0000 O.2     1  LIG1       -0.2488
@<TRIPOS>BOND
     1     1     2    1
     2     1    10    1
     3     1    14    1
     4     2     3   ar
     5     2     7   ar
     6     3     4   ar
     7     4     5   ar
     8     5     6   ar
     9     5     8    1
    10     6     7   ar
    11     8     9    1
    12    10    11    1
    13    11    12    1
    14    12    13    1
    15    12    15    1
    16    13    14    1
    17    15    16    1
    18    16    17    1
    19    17    18    1
    20    18    19   am
    21    19    20   am
    22    19    31    2
    23    20    21    1
    24    21    22   ar
    25    21    26   ar
    26    22    23   ar
    27    23    24   ar
    28    23    29    1
    29    24    25   ar
    30    25    26   ar
    31    26    27    1
    32    27    28    1
    33    29    30    1
