@<TRIPOS>MOLECULE
36809_ChemDiv_K284-1138
 34 37 0 0 0
SMALL
GASTEIGER
Energy = 0

@<TRIPOS>ATOM
      1 N          -4.0960   -0.0040    0.0000 N.ar    1  LIG1       -0.2750
      2 C          -4.9580   -0.5040    0.0000 C.ar    1  LIG1        0.1838
      3 N          -5.8330   -0.0040    0.0000 N.ar    1  LIG1       -0.2217
      4 C          -5.8330    0.9920    0.0000 C.ar    1  LIG1        0.0880
      5 C          -4.9710    1.4920    0.0000 C.ar    1  LIG1        0.0739
      6 C          -4.0960    0.9920    0.0000 C.ar    1  LIG1        0.2637
      7 O          -3.2330    1.4920    0.0000 O.2     1  LIG1       -0.2669
      8 C          -4.9710    2.4880    0.0000 C.ar    1  LIG1        0.0063
      9 C          -5.8330    2.9880    0.0000 C.ar    1  LIG1        0.0003
     10 C          -6.6920    2.4880    0.0000 C.ar    1  LIG1        0.0015
     11 C          -6.6920    1.4920    0.0000 C.ar    1  LIG1        0.0193
     12 S          -4.9710   -1.5170    0.0000 S.2     1  LIG1       -0.0109
     13 C          -3.2330   -0.5130    0.0000 C.3     1  LIG1        0.1110
     14 C          -2.3710   -0.0040    0.0000 C.3     1  LIG1        0.0247
     15 C          -1.4960   -0.5130    0.0000 C.3     1  LIG1        0.0025
     16 C          -0.6330   -0.0040    0.0000 C.3     1  LIG1        0.0096
     17 C           0.2250   -0.5040    0.0000 C.3     1  LIG1        0.0853
     18 C           1.0880   -0.0040    0.0000 C.2     1  LIG1        0.2256
     19 N           1.9670   -0.5000    0.0000 N.am    1  LIG1       -0.2791
     20 C           1.9670   -1.5000    0.0000 C.3     1  LIG1        0.0997
     21 C           2.8380   -1.9960    0.0000 C.3     1  LIG1        0.0819
     22 C           3.7040   -1.4880    0.0000 C.3     1  LIG1        0.1216
     23 N           4.6960   -1.4500    0.0000 N.4     1  LIG1        0.3754
     24 C           5.1670   -0.5670    0.0000 C.3     1  LIG1        0.1386
     25 C           6.1630   -0.5330    0.0000 C.3     1  LIG1        0.0629
     26 C           6.6920   -1.3920    0.0000 C.3     1  LIG1        0.0123
     27 C           6.2130   -2.2670    0.0000 C.3     1  LIG1        0.0629
     28 C           5.2250   -2.3040    0.0000 C.3     1  LIG1        0.1386
     29 C           3.7000   -2.4830    0.0000 C.2     1  LIG1        0.3061
     30 O           2.8250   -2.9830    0.0000 O.2     1  LIG1       -0.2657
     31 N           4.5580   -2.9830    0.0000 N.am    1  LIG1       -0.0830
     32 C           3.6880   -0.4880    0.0000 C.3     1  LIG1        0.0819
     33 C           2.8210    0.0170    0.0000 C.3     1  LIG1        0.0997
     34 O           1.0880    0.9920    0.0000 O.2     1  LIG1       -0.2749
@<TRIPOS>BOND
     1     1     2   ar
     2     1     6   ar
     3     1    13    1
     4     2     3   ar
     5     2    12    2
     6     3     4   ar
     7     4     5   ar
     8     4    11   ar
     9     5     6   ar
    10     5     8   ar
    11     6     7    2
    12     8     9   ar
    13     9    10   ar
    14    10    11   ar
    15    13    14    1
    16    14    15    1
    17    15    16    1
    18    16    17    1
    19    17    18    1
    20    18    19   am
    21    18    34    2
    22    19    20    1
    23    19    33    1
    24    20    21    1
    25    21    22    1
    26    22    23    1
    27    22    29    1
    28    22    32    1
    29    23    24    1
    30    23    28    1
    31    24    25    1
    32    25    26    1
    33    26    27    1
    34    27    28    1
    35    29    30    2
    36    29    31   am
    37    32    33    1
