@<TRIPOS>MOLECULE
36802_ChemDiv_K788-8853
 33 36 0 0 0
SMALL
GASTEIGER
Energy = 0

@<TRIPOS>ATOM
      1 C           0.0080    2.0290    0.0000 C.ar    1  LIG1        0.0873
      2 C           0.0080    1.0250    0.0000 C.ar    1  LIG1        0.2852
      3 N          -0.8710    0.5250    0.0000 N.ar    1  LIG1       -0.2069
      4 C          -1.7290    1.0250    0.0000 C.ar    1  LIG1        0.0907
      5 C          -1.7290    2.0290    0.0000 C.ar    1  LIG1        0.0473
      6 S          -0.8710    2.5290    0.0000 S.2     1  LIG1       -0.0806
      7 C          -2.5920    2.5250    0.0000 C.ar    1  LIG1        0.0081
      8 C          -3.4580    2.0290    0.0000 C.ar    1  LIG1        0.0052
      9 C          -3.4580    1.0250    0.0000 C.ar    1  LIG1        0.0566
     10 C          -4.3250    0.5250    0.0000 C.2     1  LIG1        0.2650
     11 N          -4.3250   -0.4750    0.0000 N.am    1  LIG1       -0.1955
     12 C          -3.4710   -0.9830    0.0000 C.3     1  LIG1        0.1717
     13 C          -3.4710   -1.9830    0.0000 C.3     1  LIG1        0.1092
     14 N          -2.6540   -2.5670    0.0000 N.4     1  LIG1        0.3743
     15 C          -2.9630   -3.5210    0.0000 C.3     1  LIG1        0.1385
     16 C          -3.9630   -3.5210    0.0000 C.3     1  LIG1        0.0687
     17 C          -4.2750   -2.5670    0.0000 C.3     1  LIG1        0.0647
     18 C          -1.6960   -2.2580    0.0000 C.3     1  LIG1        0.1385
     19 C          -0.9580   -2.9290    0.0000 C.3     1  LIG1        0.0688
     20 O          -5.2000    1.0250    0.0000 O.2     1  LIG1       -0.2684
     21 C          -2.5920    0.5250    0.0000 C.ar    1  LIG1        0.0243
     22 O           0.8670    0.5250    0.0000 O.2     1  LIG1       -0.2646
     23 C           0.8750    2.5250    0.0000 C.2     1  LIG1        0.0114
     24 C           1.7380    2.0290    0.0000 C.ar    1  LIG1        0.0039
     25 C           2.6040    2.5250    0.0000 C.ar    1  LIG1        0.0401
     26 C           3.4670    2.0290    0.0000 C.ar    1  LIG1        0.1724
     27 C           3.4670    1.0170    0.0000 C.ar    1  LIG1        0.1724
     28 C           2.6000    0.5250    0.0000 C.ar    1  LIG1        0.0400
     29 C           1.7330    1.0250    0.0000 C.ar    1  LIG1        0.0033
     30 O           4.3290    0.5130    0.0000 O.3     1  LIG1       -0.4684
     31 C           5.1960    1.0170    0.0000 C.3     1  LIG1        0.2526
     32 O           4.3290    2.5250    0.0000 O.3     1  LIG1       -0.4684
     33 C           4.3250    3.5250    0.0000 C.3     1  LIG1        0.2526
@<TRIPOS>BOND
     1     1     2   ar
     2     1     6   ar
     3     1    23    2
     4     2     3   ar
     5     2    22    2
     6     3     4   ar
     7     4     5   ar
     8     4    21   ar
     9     5     6   ar
    10     5     7   ar
    11     7     8   ar
    12     8     9   ar
    13     9    10    1
    14     9    21   ar
    15    10    11   am
    16    10    20    2
    17    11    12    1
    18    12    13    1
    19    13    14    1
    20    13    17    1
    21    14    15    1
    22    14    18    1
    23    15    16    1
    24    16    17    1
    25    18    19    1
    26    23    24    1
    27    24    25   ar
    28    24    29   ar
    29    25    26   ar
    30    26    27   ar
    31    26    32    1
    32    27    28   ar
    33    27    30    1
    34    28    29   ar
    35    30    31    1
    36    32    33    1
