@<TRIPOS>MOLECULE
36803_ChemDiv_C270-0496
 29 31 0 0 0
SMALL
GASTEIGER
Energy = 0

@<TRIPOS>ATOM
      1 N          -3.0080   -1.0630    0.0000 N.pl3   1  LIG1       -0.2974
      2 C          -3.8580   -1.5830    0.0000 C.ar    1  LIG1        0.0449
      3 C          -4.7460   -1.1000    0.0000 C.ar    1  LIG1        0.0256
      4 C          -5.5960   -1.6290    0.0000 C.ar    1  LIG1        0.0589
      5 C          -5.5710   -2.6210    0.0000 C.ar    1  LIG1        0.0112
      6 C          -4.6880   -3.1080    0.0000 C.ar    1  LIG1       -0.0022
      7 C          -3.8380   -2.5830    0.0000 C.ar    1  LIG1       -0.0085
      8 C          -2.9630   -3.0670    0.0000 C.3     1  LIG1        0.0323
      9 CL         -6.4710   -1.1420    0.0000 Cl      1  LIG1       -0.0822
     10 C          -3.0380   -0.0670    0.0000 C.3     1  LIG1        0.1544
     11 C          -2.1750    0.4500    0.0000 C.3     1  LIG1        0.1605
     12 N          -1.2960   -0.0330    0.0000 N.4     1  LIG1        0.3800
     13 C          -1.2830   -1.0330    0.0000 C.3     1  LIG1        0.1605
     14 C          -2.1290   -1.5460    0.0000 C.3     1  LIG1        0.1544
     15 C          -0.4500    0.4920    0.0000 C.3     1  LIG1        0.1406
     16 C           0.4290    0.0080    0.0000 C.3     1  LIG1        0.0861
     17 C           1.2880    0.5210    0.0000 C.3     1  LIG1        0.1230
     18 N           2.1670    0.0420    0.0000 N.am    1  LIG1       -0.1867
     19 C           3.0170    0.5670    0.0000 C.2     1  LIG1        0.3435
     20 N           3.8960    0.0830    0.0000 N.am    1  LIG1       -0.1613
     21 C           4.7460    0.5960    0.0000 C.ar    1  LIG1        0.0707
     22 C           5.6210    0.1130    0.0000 C.ar    1  LIG1       -0.0065
     23 C           6.4710    0.6330    0.0000 C.ar    1  LIG1       -0.0033
     24 C           6.4540    1.6330    0.0000 C.ar    1  LIG1       -0.0045
     25 C           5.5750    2.1130    0.0000 C.ar    1  LIG1       -0.0206
     26 C           4.7250    1.5960    0.0000 C.ar    1  LIG1        0.0121
     27 C           5.5460    3.1130    0.0000 C.3     1  LIG1        0.0311
     28 C           5.6380   -0.8880    0.0000 C.3     1  LIG1        0.0324
     29 O           2.9960    1.5670    0.0000 O.2     1  LIG1       -0.2488
@<TRIPOS>BOND
     1     1     2    1
     2     1    10    1
     3     1    14    1
     4     2     3   ar
     5     2     7   ar
     6     3     4   ar
     7     4     5   ar
     8     4     9    1
     9     5     6   ar
    10     6     7   ar
    11     7     8    1
    12    10    11    1
    13    11    12    1
    14    12    13    1
    15    12    15    1
    16    13    14    1
    17    15    16    1
    18    16    17    1
    19    17    18    1
    20    18    19   am
    21    19    20   am
    22    19    29    2
    23    20    21    1
    24    21    22   ar
    25    21    26   ar
    26    22    23   ar
    27    22    28    1
    28    23    24   ar
    29    24    25   ar
    30    25    26   ar
    31    25    27    1
