@<TRIPOS>MOLECULE
36811_ChemDiv_K284-1243
 30 34 0 0 0
SMALL
GASTEIGER
Energy = 0

@<TRIPOS>ATOM
      1 N          -2.1960    0.3500    0.0000 N.ar    1  LIG1       -0.2750
      2 C          -3.0580   -0.1500    0.0000 C.ar    1  LIG1        0.1838
      3 N          -3.9250    0.3500    0.0000 N.ar    1  LIG1       -0.2217
      4 C          -3.9250    1.3500    0.0000 C.ar    1  LIG1        0.0880
      5 C          -3.0750    1.8500    0.0000 C.ar    1  LIG1        0.0739
      6 C          -2.1960    1.3500    0.0000 C.ar    1  LIG1        0.2637
      7 O          -1.3330    1.8500    0.0000 O.2     1  LIG1       -0.2669
      8 C          -3.0750    2.8500    0.0000 C.ar    1  LIG1        0.0063
      9 C          -3.9250    3.3500    0.0000 C.ar    1  LIG1        0.0003
     10 C          -4.7920    2.8500    0.0000 C.ar    1  LIG1        0.0015
     11 C          -4.7920    1.8500    0.0000 C.ar    1  LIG1        0.0193
     12 S          -3.0750   -1.1630    0.0000 S.2     1  LIG1       -0.0109
     13 C          -1.3210   -0.1580    0.0000 C.3     1  LIG1        0.1110
     14 C          -0.4580    0.3500    0.0000 C.3     1  LIG1        0.0247
     15 C           0.4080   -0.1580    0.0000 C.3     1  LIG1        0.0025
     16 C           1.2830    0.3500    0.0000 C.3     1  LIG1        0.0097
     17 C           2.1460   -0.1500    0.0000 C.3     1  LIG1        0.0868
     18 C           3.0080    0.3500    0.0000 C.2     1  LIG1        0.2413
     19 N           3.8750   -0.1460    0.0000 N.am    1  LIG1       -0.2088
     20 C           3.8880   -1.1500    0.0000 C.3     1  LIG1        0.0786
     21 C           3.0080   -1.4500    0.0000 C.3     1  LIG1        0.0200
     22 C           3.0130   -2.4210    0.0000 C.3     1  LIG1        0.0017
     23 C           3.8750   -2.7380    0.0000 C.3     1  LIG1        0.0001
     24 C           4.7880   -2.5130    0.0000 C.3     1  LIG1        0.0017
     25 C           4.7880   -1.5210    0.0000 C.3     1  LIG1        0.0200
     26 C           4.1210   -3.3460    0.0000 C.3     1  LIG1        0.0001
     27 C           3.2130   -2.9750    0.0000 C.3     1  LIG1        0.0017
     28 C           3.2130   -1.9380    0.0000 C.3     1  LIG1        0.0200
     29 C           2.2420   -3.2500    0.0000 C.3     1  LIG1        0.0001
     30 O           3.0080    1.3500    0.0000 O.2     1  LIG1       -0.2733
@<TRIPOS>BOND
     1     1     2   ar
     2     1     6   ar
     3     1    13    1
     4     2     3   ar
     5     2    12    2
     6     3     4   ar
     7     4     5   ar
     8     4    11   ar
     9     5     6   ar
    10     5     8   ar
    11     6     7    2
    12     8     9   ar
    13     9    10   ar
    14    10    11   ar
    15    13    14    1
    16    14    15    1
    17    15    16    1
    18    16    17    1
    19    17    18    1
    20    18    19   am
    21    18    30    2
    22    19    20    1
    23    20    21    1
    24    20    25    1
    25    20    28    1
    26    21    22    1
    27    22    23    1
    28    22    29    1
    29    23    24    1
    30    24    25    1
    31    24    26    1
    32    26    27    1
    33    27    28    1
    34    27    29    1
