@<TRIPOS>MOLECULE
36813_ChemDiv_C270-0448
 20 22 0 0 0
SMALL
GASTEIGER
Energy = 0

@<TRIPOS>ATOM
      1 N          -0.3540   -0.3250    0.0000 N.ar    1  LIG1       -0.2691
      2 C          -1.2170   -0.8210    0.0000 C.ar    1  LIG1        0.1840
      3 N          -1.2210   -1.8250    0.0000 N.ar    1  LIG1       -0.2217
      4 C          -0.3580   -2.3250    0.0000 C.ar    1  LIG1        0.0880
      5 C           0.5040   -1.8250    0.0000 C.ar    1  LIG1        0.0739
      6 C           0.5080   -0.8250    0.0000 C.ar    1  LIG1        0.2639
      7 O           1.3790   -0.3380    0.0000 O.2     1  LIG1       -0.2669
      8 C           1.3670   -2.3290    0.0000 C.ar    1  LIG1        0.0063
      9 C           1.3670   -3.3290    0.0000 C.ar    1  LIG1        0.0003
     10 C           0.5000   -3.8250    0.0000 C.ar    1  LIG1        0.0015
     11 C          -0.3630   -3.3250    0.0000 C.ar    1  LIG1        0.0193
     12 S          -2.0960   -0.3170    0.0000 S.2     1  LIG1       -0.0109
     13 C          -0.3540    0.6830    0.0000 C.3     1  LIG1        0.1672
     14 C           0.5080    1.1830    0.0000 C.3     1  LIG1        0.1102
     15 N           0.6130    2.1830    0.0000 N.4     1  LIG1        0.3744
     16 C           1.5920    2.3920    0.0000 C.3     1  LIG1        0.1386
     17 C           2.0920    1.5250    0.0000 C.3     1  LIG1        0.0687
     18 C           1.4250    0.7830    0.0000 C.3     1  LIG1        0.0649
     19 C          -0.1290    2.8500    0.0000 C.3     1  LIG1        0.1386
     20 C           0.0710    3.8290    0.0000 C.3     1  LIG1        0.0688
@<TRIPOS>BOND
     1     1     2   ar
     2     1     6   ar
     3     1    13    1
     4     2     3   ar
     5     2    12    2
     6     3     4   ar
     7     4     5   ar
     8     4    11   ar
     9     5     6   ar
    10     5     8   ar
    11     6     7    2
    12     8     9   ar
    13     9    10   ar
    14    10    11   ar
    15    13    14    1
    16    14    15    1
    17    14    18    1
    18    15    16    1
    19    15    19    1
    20    16    17    1
    21    17    18    1
    22    19    20    1
