@<TRIPOS>MOLECULE
36814_ChemDiv_K788-9568
 35 38 0 0 0
SMALL
GASTEIGER
Energy = 0

@<TRIPOS>ATOM
      1 N          -0.4170    1.6500    0.0000 N.ar    1  LIG1       -0.2926
      2 C           0.4540    2.1540    0.0000 C.ar    1  LIG1        0.2669
      3 C           0.4540    3.1670    0.0000 C.ar    1  LIG1        0.0856
      4 S          -0.4290    3.6710    0.0000 S.2     1  LIG1       -0.0807
      5 C          -1.2960    3.1540    0.0000 C.ar    1  LIG1        0.0454
      6 C          -1.2880    2.1460    0.0000 C.ar    1  LIG1        0.0686
      7 C          -2.1580    1.6500    0.0000 C.ar    1  LIG1        0.0223
      8 C          -3.0250    2.1540    0.0000 C.ar    1  LIG1        0.0565
      9 C          -3.9000    1.6500    0.0000 C.2     1  LIG1        0.2648
     10 O          -4.7630    2.1540    0.0000 O.2     1  LIG1       -0.2684
     11 N          -3.9000    0.6460    0.0000 N.am    1  LIG1       -0.2013
     12 C          -3.0330    0.1500    0.0000 C.3     1  LIG1        0.1201
     13 C          -3.0330   -0.8460    0.0000 C.3     1  LIG1        0.0498
     14 C          -2.1710   -1.3330    0.0000 C.ar    1  LIG1       -0.0203
     15 C          -2.1580   -2.3330    0.0000 C.ar    1  LIG1       -0.0028
     16 C          -1.2960   -2.8250    0.0000 C.ar    1  LIG1        0.0197
     17 C          -0.4330   -2.3170    0.0000 C.ar    1  LIG1        0.1250
     18 S           0.4380   -2.8170    0.0000 S.O2    1  LIG1        0.0935
     19 O           0.9500   -1.9460    0.0000 O.2     1  LIG1       -0.1503
     20 O          -0.0580   -3.6670    0.0000 O.2     1  LIG1       -0.1503
     21 N           1.3080   -3.3170    0.0000 N.3     1  LIG1        0.0392
     22 C          -0.4500   -1.3130    0.0000 C.ar    1  LIG1        0.0197
     23 C          -1.3170   -0.8210    0.0000 C.ar    1  LIG1       -0.0028
     24 C          -3.0250    3.1540    0.0000 C.ar    1  LIG1        0.0052
     25 C          -2.1580    3.6540    0.0000 C.ar    1  LIG1        0.0081
     26 C           1.3210    3.6670    0.0000 C.2     1  LIG1        0.0112
     27 C           2.1830    3.1750    0.0000 C.ar    1  LIG1        0.0003
     28 C           3.0380    3.6670    0.0000 C.ar    1  LIG1       -0.0042
     29 C           3.8960    3.1750    0.0000 C.ar    1  LIG1       -0.0218
     30 C           3.8960    2.1710    0.0000 C.ar    1  LIG1       -0.0043
     31 C           3.0290    1.6750    0.0000 C.ar    1  LIG1       -0.0003
     32 C           2.1710    2.1750    0.0000 C.ar    1  LIG1       -0.0000
     33 C           4.7580    3.6710    0.0000 C.3     1  LIG1        0.0310
     34 O           1.3210    1.6540    0.0000 O.2     1  LIG1       -0.2664
     35 C          -0.4130    0.6460    0.0000 C.3     1  LIG1        0.1336
@<TRIPOS>BOND
     1     1     2   ar
     2     1     6   ar
     3     1    35    1
     4     2     3   ar
     5     2    34    2
     6     3     4   ar
     7     3    26    2
     8     4     5   ar
     9     5     6   ar
    10     5    25   ar
    11     6     7   ar
    12     7     8   ar
    13     8     9    1
    14     8    24   ar
    15     9    10    2
    16     9    11   am
    17    11    12    1
    18    12    13    1
    19    13    14    1
    20    14    15   ar
    21    14    23   ar
    22    15    16   ar
    23    16    17   ar
    24    17    18    1
    25    17    22   ar
    26    18    19    2
    27    18    20    2
    28    18    21    1
    29    22    23   ar
    30    24    25   ar
    31    26    27    1
    32    27    28   ar
    33    27    32   ar
    34    28    29   ar
    35    29    30   ar
    36    29    33    1
    37    30    31   ar
    38    31    32   ar
