@<TRIPOS>MOLECULE
36815_ChemDiv_C273-0048
 25 29 0 0 0
SMALL
GASTEIGER
Energy = 0

@<TRIPOS>ATOM
      1 C          -0.3960   -0.5290    0.0000 C.ar    1  LIG1        0.1563
      2 C          -0.1920    0.4500    0.0000 C.ar    1  LIG1        0.1207
      3 N          -1.0500    0.9420    0.0000 N.ar    1  LIG1       -0.2246
      4 C          -1.7920    0.2750    0.0000 C.ar    1  LIG1        0.1484
      5 N          -1.3830   -0.6380    0.0000 N.ar    1  LIG1       -0.2760
      6 C          -1.9750   -1.4420    0.0000 C.ar    1  LIG1        0.0823
      7 C          -2.9630   -1.3460    0.0000 C.ar    1  LIG1        0.0149
      8 C          -3.3710   -0.4330    0.0000 C.ar    1  LIG1       -0.0174
      9 C          -2.7790    0.3830    0.0000 C.ar    1  LIG1        0.0332
     10 C          -4.3710   -0.3250    0.0000 C.3     1  LIG1        0.0312
     11 C           0.6790    0.9420    0.0000 C.ar    1  LIG1        0.0499
     12 S           0.7880    1.9420    0.0000 S.2     1  LIG1       -0.0848
     13 C           1.7670    2.1460    0.0000 C.ar    1  LIG1        0.0355
     14 C           2.2710    1.2880    0.0000 C.ar    1  LIG1        0.0075
     15 C           1.5960    0.5330    0.0000 C.ar    1  LIG1        0.0086
     16 N           0.2830   -1.2710    0.0000 N.pl3   1  LIG1       -0.1938
     17 C           1.2830   -1.2710    0.0000 C.ar    1  LIG1        0.0754
     18 C           1.7750   -0.4130    0.0000 C.ar    1  LIG1        0.0567
     19 C           2.7750   -0.4130    0.0000 C.ar    1  LIG1        0.1777
     20 C           3.2830   -1.2710    0.0000 C.ar    1  LIG1        0.1765
     21 O           4.2580   -1.0670    0.0000 O.3     1  LIG1       -0.4346
     22 C           4.3670   -0.0790    0.0000 C.3     1  LIG1        0.4294
     23 O           3.4540    0.3290    0.0000 O.3     1  LIG1       -0.4346
     24 C           2.7750   -2.1420    0.0000 C.ar    1  LIG1        0.0415
     25 C           1.7750   -2.1420    0.0000 C.ar    1  LIG1        0.0199
@<TRIPOS>BOND
     1     1     2   ar
     2     1     5   ar
     3     1    16    1
     4     2     3   ar
     5     2    11    1
     6     3     4   ar
     7     4     5   ar
     8     4     9   ar
     9     5     6   ar
    10     6     7   ar
    11     7     8   ar
    12     8     9   ar
    13     8    10    1
    14    11    12   ar
    15    11    15   ar
    16    12    13   ar
    17    13    14   ar
    18    14    15   ar
    19    16    17    1
    20    17    18   ar
    21    17    25   ar
    22    18    19   ar
    23    19    20   ar
    24    19    23    1
    25    20    21    1
    26    20    24   ar
    27    21    22    1
    28    22    23    1
    29    24    25   ar
