@<TRIPOS>MOLECULE
36825_ChemDiv_C292-0309
 26 28 0 0 0
SMALL
GASTEIGER
Energy = 0

@<TRIPOS>ATOM
      1 O           0.0630    0.3420    0.0000 O.2     1  LIG1       -0.4110
      2 C          -0.9210    0.1420    0.0000 C.ar    1  LIG1        0.2506
      3 N          -1.0380   -0.8460    0.0000 N.ar    1  LIG1       -0.1065
      4 N          -0.1210   -1.2630    0.0000 N.ar    1  LIG1       -0.1006
      5 C           0.5500   -0.5290    0.0000 C.ar    1  LIG1        0.2787
      6 S           1.5500   -0.6460    0.0000 S.3     1  LIG1       -0.0455
      7 C           1.9460   -1.5670    0.0000 C.3     1  LIG1        0.1516
      8 C           2.9380   -1.6960    0.0000 C.2     1  LIG1        0.2371
      9 N           3.3210   -2.6170    0.0000 N.am    1  LIG1       -0.2788
     10 C           2.9040   -3.5250    0.0000 C.3     1  LIG1        0.0935
     11 C           3.6500   -4.2000    0.0000 C.3     1  LIG1        0.0233
     12 C           4.5210   -3.7170    0.0000 C.3     1  LIG1        0.0233
     13 C           4.3250   -2.7290    0.0000 C.3     1  LIG1        0.0935
     14 O           3.5380   -0.8960    0.0000 O.2     1  LIG1       -0.2739
     15 C          -1.6210    0.8420    0.0000 C.ar    1  LIG1        0.0614
     16 C          -2.5790    0.5880    0.0000 C.ar    1  LIG1        0.0450
     17 C          -3.2920    1.2880    0.0000 C.ar    1  LIG1        0.1756
     18 C          -3.0250    2.2500    0.0000 C.ar    1  LIG1        0.2061
     19 C          -2.0540    2.5170    0.0000 C.ar    1  LIG1        0.1756
     20 C          -1.3540    1.8040    0.0000 C.ar    1  LIG1        0.0450
     21 O          -1.7880    3.4920    0.0000 O.3     1  LIG1       -0.4683
     22 C          -2.4960    4.2000    0.0000 C.3     1  LIG1        0.2526
     23 O          -3.7500    2.9380    0.0000 O.3     1  LIG1       -0.4654
     24 C          -3.5130    3.9080    0.0000 C.3     1  LIG1        0.2528
     25 O          -4.2540    1.0420    0.0000 O.3     1  LIG1       -0.4683
     26 C          -4.5250    0.0790    0.0000 C.3     1  LIG1        0.2526
@<TRIPOS>BOND
     1     1     2   ar
     2     1     5   ar
     3     2     3   ar
     4     2    15    1
     5     3     4   ar
     6     4     5   ar
     7     5     6    1
     8     6     7    1
     9     7     8    1
    10     8     9   am
    11     8    14    2
    12     9    10    1
    13     9    13    1
    14    10    11    1
    15    11    12    1
    16    12    13    1
    17    15    16   ar
    18    15    20   ar
    19    16    17   ar
    20    17    18   ar
    21    17    25    1
    22    18    19   ar
    23    18    23    1
    24    19    20   ar
    25    19    21    1
    26    21    22    1
    27    23    24    1
    28    25    26    1
