@<TRIPOS>MOLECULE
36822_ChemDiv_C301-2378
 20 22 0 0 0
SMALL
GASTEIGER
Energy = 0

@<TRIPOS>ATOM
      1 S           1.2790    0.8670    0.0000 S.O2    1  LIG1       -0.0520
      2 C           2.1460    0.3790    0.0000 C.ar    1  LIG1        0.1191
      3 S           2.2540   -0.6080    0.0000 S.2     1  LIG1       -0.0633
      4 C           3.2330   -0.8000    0.0000 C.ar    1  LIG1        0.0650
      5 C           3.7210    0.0580    0.0000 C.ar    1  LIG1        0.0151
      6 C           3.0460    0.8000    0.0000 C.ar    1  LIG1        0.0246
      7 BR          3.6420   -1.7130    0.0000 Br      1  LIG1       -0.0419
      8 N           0.4380    1.3500    0.0000 N.pl3   1  LIG1       -0.5354
      9 C          -0.4130    0.8630    0.0000 C.ar    1  LIG1       -0.1125
     10 C          -1.2920    1.3580    0.0000 C.ar    1  LIG1       -0.0243
     11 C          -2.1710    0.8500    0.0000 C.ar    1  LIG1        0.0257
     12 C          -2.1710   -0.1580    0.0000 C.ar    1  LIG1        0.0751
     13 C          -3.1250   -0.4750    0.0000 C.2     1  LIG1        0.3413
     14 O          -3.7250    0.3500    0.0000 O.3     1  LIG1       -0.4404
     15 C          -3.1330    1.1630    0.0000 C.3     1  LIG1        0.2355
     16 O          -3.4290   -1.4250    0.0000 O.2     1  LIG1       -0.2449
     17 C          -1.2920   -0.6630    0.0000 C.ar    1  LIG1        0.0044
     18 C          -0.4130   -0.1580    0.0000 C.ar    1  LIG1       -0.0236
     19 O           0.7830    0.0210    0.0000 O.2     1  LIG1       -0.1837
     20 O           1.7630    1.7170    0.0000 O.2     1  LIG1       -0.1837
@<TRIPOS>BOND
     1     1     2    1
     2     1     8    1
     3     1    19    2
     4     1    20    2
     5     2     3   ar
     6     2     6   ar
     7     3     4   ar
     8     4     5   ar
     9     4     7    1
    10     5     6   ar
    11     8     9    1
    12     9    10   ar
    13     9    18   ar
    14    10    11   ar
    15    11    12   ar
    16    11    15    1
    17    12    13    1
    18    12    17   ar
    19    13    14    1
    20    13    16    2
    21    14    15    1
    22    17    18   ar
