@<TRIPOS>MOLECULE
36824_ChemDiv_C301-3297
 24 26 0 0 0
SMALL
GASTEIGER
Energy = 0

@<TRIPOS>ATOM
      1 S          -0.9170    1.1170    0.0000 S.O2    1  LIG1       -0.0578
      2 N          -1.7830    0.6170    0.0000 N.pl3   1  LIG1       -0.5358
      3 C          -1.7750   -0.3750    0.0000 C.ar    1  LIG1       -0.1125
      4 C          -2.6420   -0.8920    0.0000 C.ar    1  LIG1       -0.0243
      5 C          -2.6420   -1.9000    0.0000 C.ar    1  LIG1        0.0257
      6 C          -1.7750   -2.4000    0.0000 C.ar    1  LIG1        0.0751
      7 C          -1.9790   -3.3830    0.0000 C.2     1  LIG1        0.3413
      8 O          -2.9750   -3.4880    0.0000 O.3     1  LIG1       -0.4404
      9 C          -3.3880   -2.5750    0.0000 C.3     1  LIG1        0.2355
     10 O          -1.3080   -4.1250    0.0000 O.2     1  LIG1       -0.2449
     11 C          -0.8960   -1.8960    0.0000 C.ar    1  LIG1        0.0044
     12 C          -0.8960   -0.8790    0.0000 C.ar    1  LIG1       -0.0236
     13 C          -0.0580    1.6210    0.0000 C.ar    1  LIG1        0.0893
     14 C           0.8080    1.1330    0.0000 C.ar    1  LIG1        0.0166
     15 C           1.6630    1.6380    0.0000 C.ar    1  LIG1       -0.0030
     16 C           1.6500    2.6290    0.0000 C.ar    1  LIG1       -0.0227
     17 C           2.5170    3.1330    0.0000 C.3     1  LIG1        0.0189
     18 C           3.3830    2.6420    0.0000 C.3     1  LIG1        0.0044
     19 C           2.5040    4.1250    0.0000 C.3     1  LIG1        0.0044
     20 C           2.7790    2.1710    0.0000 C.3     1  LIG1        0.0044
     21 C           0.7790    3.1210    0.0000 C.ar    1  LIG1       -0.0030
     22 C          -0.0750    2.6130    0.0000 C.ar    1  LIG1        0.0166
     23 O          -0.0580    0.6210    0.0000 O.2     1  LIG1       -0.1842
     24 O          -0.9290    2.1130    0.0000 O.2     1  LIG1       -0.1842
@<TRIPOS>BOND
     1     1     2    1
     2     1    13    1
     3     1    23    2
     4     1    24    2
     5     2     3    1
     6     3     4   ar
     7     3    12   ar
     8     4     5   ar
     9     5     6   ar
    10     5     9    1
    11     6     7    1
    12     6    11   ar
    13     7     8    1
    14     7    10    2
    15     8     9    1
    16    11    12   ar
    17    13    14   ar
    18    13    22   ar
    19    14    15   ar
    20    15    16   ar
    21    16    17    1
    22    16    21   ar
    23    17    18    1
    24    17    19    1
    25    17    20    1
    26    21    22   ar
