@<TRIPOS>MOLECULE
36826_ChemDiv_C301-5031
 22 24 0 0 0
SMALL
GASTEIGER
Energy = 0

@<TRIPOS>ATOM
      1 S           0.8130    1.2290    0.0000 S.O2    1  LIG1       -0.0578
      2 N          -0.0420    1.7170    0.0000 N.pl3   1  LIG1       -0.5358
      3 C          -0.9000    1.2210    0.0000 C.ar    1  LIG1       -0.1125
      4 C          -1.7790    1.7330    0.0000 C.ar    1  LIG1       -0.0243
      5 C          -2.6630    1.2130    0.0000 C.ar    1  LIG1        0.0257
      6 C          -2.6630    0.1920    0.0000 C.ar    1  LIG1        0.0751
      7 C          -3.6330   -0.1210    0.0000 C.2     1  LIG1        0.3413
      8 O          -4.2290    0.7040    0.0000 O.3     1  LIG1       -0.4404
      9 C          -3.6330    1.5330    0.0000 C.3     1  LIG1        0.2355
     10 O          -3.9460   -1.0580    0.0000 O.2     1  LIG1       -0.2449
     11 C          -1.7790   -0.3170    0.0000 C.ar    1  LIG1        0.0044
     12 C          -0.9000    0.1920    0.0000 C.ar    1  LIG1       -0.0236
     13 C           1.6630    0.7330    0.0000 C.ar    1  LIG1        0.0893
     14 C           1.6630   -0.2460    0.0000 C.ar    1  LIG1        0.0166
     15 C           2.5130   -0.7380    0.0000 C.ar    1  LIG1       -0.0030
     16 C           3.3630   -0.2460    0.0000 C.ar    1  LIG1       -0.0221
     17 C           3.3630    0.7420    0.0000 C.ar    1  LIG1       -0.0030
     18 C           2.5080    1.2290    0.0000 C.ar    1  LIG1        0.0166
     19 C           4.2250   -0.7380    0.0000 C.3     1  LIG1        0.0264
     20 C           4.2250   -1.7290    0.0000 C.3     1  LIG1        0.0050
     21 O           0.8130    0.2380    0.0000 O.2     1  LIG1       -0.1842
     22 O           1.6630    1.7210    0.0000 O.2     1  LIG1       -0.1842
@<TRIPOS>BOND
     1     1     2    1
     2     1    13    1
     3     1    21    2
     4     1    22    2
     5     2     3    1
     6     3     4   ar
     7     3    12   ar
     8     4     5   ar
     9     5     6   ar
    10     5     9    1
    11     6     7    1
    12     6    11   ar
    13     7     8    1
    14     7    10    2
    15     8     9    1
    16    11    12   ar
    17    13    14   ar
    18    13    18   ar
    19    14    15   ar
    20    15    16   ar
    21    16    17   ar
    22    16    19    1
    23    17    18   ar
    24    19    20    1
