@<TRIPOS>MOLECULE
36828_ChemDiv_C301-2791
 15 17 0 0 0
SMALL
GASTEIGER
Energy = 0

@<TRIPOS>ATOM
      1 N           2.2670    2.1670    0.0000 N.ar    1  LIG1       -0.2183
      2 N           2.2670    1.1670    0.0000 N.ar    1  LIG1       -0.2183
      3 N           1.3130    0.8630    0.0000 N.ar    1  LIG1       -0.2934
      4 C           0.7330    1.6670    0.0000 C.ar    1  LIG1        0.0259
      5 N           1.3130    2.4750    0.0000 N.ar    1  LIG1       -0.2934
      6 C          -0.2670    1.6670    0.0000 C.3     1  LIG1        0.0320
      7 C          -0.7710    0.8000    0.0000 C.ar    1  LIG1       -0.0214
      8 C          -0.2670   -0.0710    0.0000 C.ar    1  LIG1        0.0356
      9 C          -0.7710   -0.9330    0.0000 C.ar    1  LIG1        0.1761
     10 C          -1.7710   -0.9210    0.0000 C.ar    1  LIG1        0.1764
     11 O          -2.0830   -1.8750    0.0000 O.3     1  LIG1       -0.4346
     12 C          -1.2750   -2.4710    0.0000 C.3     1  LIG1        0.4294
     13 O          -0.4710   -1.8880    0.0000 O.3     1  LIG1       -0.4346
     14 C          -2.2710   -0.0710    0.0000 C.ar    1  LIG1        0.0399
     15 C          -1.7710    0.8000    0.0000 C.ar    1  LIG1       -0.0013
@<TRIPOS>BOND
     1     1     2   ar
     2     1     5   ar
     3     2     3   ar
     4     3     4   ar
     5     4     5   ar
     6     4     6    1
     7     6     7    1
     8     7     8   ar
     9     7    15   ar
    10     8     9   ar
    11     9    10   ar
    12     9    13    1
    13    10    11    1
    14    10    14   ar
    15    11    12    1
    16    12    13    1
    17    14    15   ar
