@<TRIPOS>MOLECULE
36827_ChemDiv_C292-0457
 25 28 0 0 0
SMALL
GASTEIGER
Energy = 0

@<TRIPOS>ATOM
      1 O          -0.4540   -0.2750    0.0000 O.2     1  LIG1       -0.4110
      2 C          -1.4420   -0.3920    0.0000 C.ar    1  LIG1        0.2505
      3 N          -1.6420   -1.3630    0.0000 N.ar    1  LIG1       -0.1065
      4 N          -0.7710   -1.8460    0.0000 N.ar    1  LIG1       -0.1006
      5 C          -0.0330   -1.1750    0.0000 C.ar    1  LIG1        0.2787
      6 S           0.9500   -1.3790    0.0000 S.3     1  LIG1       -0.0455
      7 C           1.6170   -0.6250    0.0000 C.3     1  LIG1        0.1516
      8 C           2.5920   -0.8080    0.0000 C.2     1  LIG1        0.2373
      9 N           2.9290   -1.7630    0.0000 N.am    1  LIG1       -0.2737
     10 C           2.2750   -2.5170    0.0000 C.3     1  LIG1        0.1255
     11 C           2.6040   -3.4630    0.0000 C.3     1  LIG1        0.1636
     12 O           3.5790   -3.6540    0.0000 O.3     1  LIG1       -0.3501
     13 C           4.2460   -2.9040    0.0000 C.3     1  LIG1        0.1636
     14 C           3.9170   -1.9460    0.0000 C.3     1  LIG1        0.1255
     15 O           3.2630   -0.0540    0.0000 O.2     1  LIG1       -0.2739
     16 C          -2.1460    0.3080    0.0000 C.ar    1  LIG1        0.0584
     17 C          -1.8920    1.2630    0.0000 C.ar    1  LIG1        0.0447
     18 C          -2.6000    1.9830    0.0000 C.ar    1  LIG1        0.1725
     19 C          -3.5710    1.7250    0.0000 C.ar    1  LIG1        0.1724
     20 O          -4.2500    2.4330    0.0000 O.3     1  LIG1       -0.4684
     21 C          -4.0040    3.3880    0.0000 C.3     1  LIG1        0.2526
     22 C          -3.0330    3.6580    0.0000 C.3     1  LIG1        0.2526
     23 O          -2.3290    2.9380    0.0000 O.3     1  LIG1       -0.4684
     24 C          -3.8330    0.7630    0.0000 C.ar    1  LIG1        0.0402
     25 C          -3.1210    0.0460    0.0000 C.ar    1  LIG1        0.0080
@<TRIPOS>BOND
     1     1     2   ar
     2     1     5   ar
     3     2     3   ar
     4     2    16    1
     5     3     4   ar
     6     4     5   ar
     7     5     6    1
     8     6     7    1
     9     7     8    1
    10     8     9   am
    11     8    15    2
    12     9    10    1
    13     9    14    1
    14    10    11    1
    15    11    12    1
    16    12    13    1
    17    13    14    1
    18    16    17   ar
    19    16    25   ar
    20    17    18   ar
    21    18    19   ar
    22    18    23    1
    23    19    20    1
    24    19    24   ar
    25    20    21    1
    26    21    22    1
    27    22    23    1
    28    24    25   ar
