@<TRIPOS>MOLECULE
36833_ChemDiv_C273-0371
 27 30 0 0 0
SMALL
GASTEIGER
Energy = 0

@<TRIPOS>ATOM
      1 C          -0.8710    0.7500    0.0000 C.ar    1  LIG1        0.1558
      2 N          -1.8080    1.1000    0.0000 N.ar    1  LIG1       -0.2760
      3 C          -1.7580    2.0880    0.0000 C.ar    1  LIG1        0.1484
      4 N          -0.8040    2.3710    0.0000 N.ar    1  LIG1       -0.2251
      5 C          -0.2540    1.5250    0.0000 C.ar    1  LIG1        0.1148
      6 C           0.7540    1.5290    0.0000 C.ar    1  LIG1        0.0206
      7 C           1.2580    2.4000    0.0000 C.ar    1  LIG1        0.0029
      8 C           2.2630    2.4000    0.0000 C.ar    1  LIG1        0.0146
      9 C           2.7710    1.5290    0.0000 C.ar    1  LIG1        0.0479
     10 N           3.7830    1.5500    0.0000 N.pl3   1  LIG1       -0.3041
     11 C           4.2750    2.4380    0.0000 C.3     1  LIG1        0.1122
     12 C           4.3080    0.6880    0.0000 C.3     1  LIG1        0.1122
     13 C           2.2500    0.6500    0.0000 C.ar    1  LIG1        0.0146
     14 C           1.2540    0.6580    0.0000 C.ar    1  LIG1        0.0029
     15 C          -2.5880    2.6250    0.0000 C.ar    1  LIG1        0.0332
     16 C          -3.4710    2.1750    0.0000 C.ar    1  LIG1       -0.0174
     17 C          -3.5210    1.1790    0.0000 C.ar    1  LIG1        0.0149
     18 C          -2.6880    0.6380    0.0000 C.ar    1  LIG1        0.0823
     19 C          -4.3130    2.7130    0.0000 C.3     1  LIG1        0.0312
     20 N          -0.7130   -0.2420    0.0000 N.pl3   1  LIG1       -0.1939
     21 C          -1.4960   -0.8790    0.0000 C.ar    1  LIG1        0.0721
     22 C          -1.3580   -1.8790    0.0000 C.ar    1  LIG1        0.0162
     23 C          -2.1420   -2.4830    0.0000 C.ar    1  LIG1       -0.0029
     24 C          -3.0670   -2.1000    0.0000 C.ar    1  LIG1       -0.0218
     25 C          -3.1880   -1.1170    0.0000 C.ar    1  LIG1       -0.0029
     26 C          -2.3920   -0.5040    0.0000 C.ar    1  LIG1        0.0162
     27 C          -3.8580   -2.7080    0.0000 C.3     1  LIG1        0.0310
@<TRIPOS>BOND
     1     1     2   ar
     2     1     5   ar
     3     1    20    1
     4     2     3   ar
     5     2    18   ar
     6     3     4   ar
     7     3    15   ar
     8     4     5   ar
     9     5     6    1
    10     6     7   ar
    11     6    14   ar
    12     7     8   ar
    13     8     9   ar
    14     9    10    1
    15     9    13   ar
    16    10    11    1
    17    10    12    1
    18    13    14   ar
    19    15    16   ar
    20    16    17   ar
    21    16    19    1
    22    17    18   ar
    23    20    21    1
    24    21    22   ar
    25    21    26   ar
    26    22    23   ar
    27    23    24   ar
    28    24    25   ar
    29    24    27    1
    30    25    26   ar
