@<TRIPOS>MOLECULE
36830_ChemDiv_C301-2828
 28 31 0 0 0
SMALL
GASTEIGER
Energy = 0

@<TRIPOS>ATOM
      1 C          -3.7670   -4.1290    0.0000 C.ar    1  LIG1        0.3688
      2 N          -2.8130   -4.4290    0.0000 N.ar    1  LIG1       -0.1893
      3 C          -2.2210   -3.6130    0.0000 C.ar    1  LIG1        0.1051
      4 C          -2.8290   -2.8080    0.0000 C.ar    1  LIG1        0.1038
      5 N          -3.7790   -3.1250    0.0000 N.ar    1  LIG1       -0.1893
      6 C          -2.4210   -1.8880    0.0000 C.ar    1  LIG1        0.0221
      7 C          -1.4250   -1.7830    0.0000 C.ar    1  LIG1        0.0182
      8 C          -0.8460   -2.5830    0.0000 C.ar    1  LIG1        0.0752
      9 C          -1.2420   -3.4920    0.0000 C.ar    1  LIG1        0.0374
     10 N           0.1500   -2.4790    0.0000 N.am    1  LIG1       -0.1742
     11 C           0.5460   -1.5670    0.0000 C.2     1  LIG1        0.3033
     12 C           1.5420   -1.4500    0.0000 C.3     1  LIG1        0.2270
     13 N           1.9460   -0.5380    0.0000 N.4     1  LIG1        0.3871
     14 C           1.3460    0.2750    0.0000 C.3     1  LIG1        0.1592
     15 C           1.7540    1.1880    0.0000 C.3     1  LIG1        0.1302
     16 N           2.7540    1.2920    0.0000 N.pl3   1  LIG1       -0.2987
     17 C           3.1630    2.2000    0.0000 C.ar    1  LIG1        0.0478
     18 C           2.5710    3.0130    0.0000 C.ar    1  LIG1        0.0103
     19 C           2.9750    3.9210    0.0000 C.ar    1  LIG1       -0.0206
     20 C           3.9750    4.0210    0.0000 C.ar    1  LIG1       -0.0042
     21 C           4.5630    3.2250    0.0000 C.ar    1  LIG1        0.0009
     22 C           4.1540    2.3080    0.0000 C.ar    1  LIG1        0.0145
     23 C           2.3880    4.7170    0.0000 C.3     1  LIG1        0.0311
     24 C           3.3420    0.4880    0.0000 C.3     1  LIG1        0.1544
     25 C           2.9330   -0.4330    0.0000 C.3     1  LIG1        0.1612
     26 C           1.1670    2.0000    0.0000 C.3     1  LIG1        0.0278
     27 O          -0.0460   -0.7540    0.0000 O.2     1  LIG1       -0.2665
     28 O          -4.5670   -4.7170    0.0000 O.2     1  LIG1       -0.2426
@<TRIPOS>BOND
     1     1     2   ar
     2     1     5   ar
     3     1    28    2
     4     2     3   ar
     5     3     4   ar
     6     3     9   ar
     7     4     5   ar
     8     4     6   ar
     9     6     7   ar
    10     7     8   ar
    11     8     9   ar
    12     8    10    1
    13    10    11   am
    14    11    12    1
    15    11    27    2
    16    12    13    1
    17    13    14    1
    18    13    25    1
    19    14    15    1
    20    15    16    1
    21    15    26    1
    22    16    17    1
    23    16    24    1
    24    17    18   ar
    25    17    22   ar
    26    18    19   ar
    27    19    20   ar
    28    19    23    1
    29    20    21   ar
    30    21    22   ar
    31    24    25    1
