@<TRIPOS>MOLECULE
36839_ChemDiv_C273-0461
 25 29 0 0 0
SMALL
GASTEIGER
Energy = 0

@<TRIPOS>ATOM
      1 C           0.8630   -0.0880    0.0000 C.ar    1  LIG1        0.1563
      2 C           1.8540    0.0460    0.0000 C.ar    1  LIG1        0.1207
      3 N           2.0380    1.0250    0.0000 N.ar    1  LIG1       -0.2246
      4 C           1.1580    1.5040    0.0000 C.ar    1  LIG1        0.1488
      5 N           0.4330    0.8170    0.0000 N.ar    1  LIG1       -0.2760
      6 C          -0.5250    1.1040    0.0000 C.ar    1  LIG1        0.0826
      7 C          -0.7630    2.0790    0.0000 C.ar    1  LIG1        0.0192
      8 C          -0.0330    2.7630    0.0000 C.ar    1  LIG1        0.0046
      9 C           0.9330    2.4790    0.0000 C.ar    1  LIG1        0.0375
     10 C           2.6170   -0.6130    0.0000 C.ar    1  LIG1        0.0499
     11 S           2.4960   -1.6080    0.0000 S.2     1  LIG1       -0.0848
     12 C           3.3960   -2.0290    0.0000 C.ar    1  LIG1        0.0355
     13 C           4.0880   -1.3080    0.0000 C.ar    1  LIG1        0.0075
     14 C           3.6080   -0.4250    0.0000 C.ar    1  LIG1        0.0086
     15 N           0.3710   -0.9710    0.0000 N.pl3   1  LIG1       -0.1938
     16 C          -0.6250   -0.9880    0.0000 C.ar    1  LIG1        0.0754
     17 C          -1.1080   -1.8630    0.0000 C.ar    1  LIG1        0.0566
     18 C          -2.1080   -1.8790    0.0000 C.ar    1  LIG1        0.1737
     19 C          -2.6130   -1.0250    0.0000 C.ar    1  LIG1        0.1725
     20 O          -3.6040   -1.0420    0.0000 O.3     1  LIG1       -0.4684
     21 C          -4.0920   -1.9040    0.0000 C.3     1  LIG1        0.2526
     22 C          -3.5830   -2.7580    0.0000 C.3     1  LIG1        0.2526
     23 O          -2.5830   -2.7460    0.0000 O.3     1  LIG1       -0.4683
     24 C          -2.1380   -0.1460    0.0000 C.ar    1  LIG1        0.0414
     25 C          -1.1380   -0.1250    0.0000 C.ar    1  LIG1        0.0199
@<TRIPOS>BOND
     1     1     2   ar
     2     1     5   ar
     3     1    15    1
     4     2     3   ar
     5     2    10    1
     6     3     4   ar
     7     4     5   ar
     8     4     9   ar
     9     5     6   ar
    10     6     7   ar
    11     7     8   ar
    12     8     9   ar
    13    10    11   ar
    14    10    14   ar
    15    11    12   ar
    16    12    13   ar
    17    13    14   ar
    18    15    16    1
    19    16    17   ar
    20    16    25   ar
    21    17    18   ar
    22    18    19   ar
    23    18    23    1
    24    19    20    1
    25    19    24   ar
    26    20    21    1
    27    21    22    1
    28    22    23    1
    29    24    25   ar
