@<TRIPOS>MOLECULE
36835_ChemDiv_C273-0455
 28 32 0 0 0
SMALL
GASTEIGER
Energy = 0

@<TRIPOS>ATOM
      1 C           1.1130   -0.1420    0.0000 C.ar    1  LIG1        0.1559
      2 N           0.9040    0.8330    0.0000 N.ar    1  LIG1       -0.2763
      3 C           1.7670    1.3250    0.0000 C.ar    1  LIG1        0.1487
      4 N           2.5000    0.6630    0.0000 N.ar    1  LIG1       -0.2250
      5 C           2.0960   -0.2420    0.0000 C.ar    1  LIG1        0.1179
      6 C           2.6040   -1.1000    0.0000 C.ar    1  LIG1        0.0594
      7 C           3.5960   -1.1000    0.0000 C.ar    1  LIG1        0.1972
      8 O           4.0880   -0.2420    0.0000 O.3     1  LIG1       -0.2865
      9 C           4.1000   -1.9540    0.0000 C.ar    1  LIG1        0.0421
     10 C           3.6040   -2.8250    0.0000 C.ar    1  LIG1        0.0033
     11 C           2.6040   -2.8330    0.0000 C.ar    1  LIG1        0.0003
     12 C           2.1040   -1.9710    0.0000 C.ar    1  LIG1        0.0048
     13 C           1.7670    2.3290    0.0000 C.ar    1  LIG1        0.0371
     14 C           0.8960    2.8380    0.0000 C.ar    1  LIG1        0.0003
     15 C           0.0330    2.3290    0.0000 C.ar    1  LIG1       -0.0041
     16 C           0.0330    1.3250    0.0000 C.ar    1  LIG1        0.0783
     17 C          -0.8380    2.8210    0.0000 C.3     1  LIG1        0.0326
     18 N           0.3960   -0.8500    0.0000 N.pl3   1  LIG1       -0.1938
     19 C          -0.6080   -0.8500    0.0000 C.ar    1  LIG1        0.0754
     20 C          -1.1000    0.0250    0.0000 C.ar    1  LIG1        0.0566
     21 C          -2.1000    0.0330    0.0000 C.ar    1  LIG1        0.1737
     22 C          -2.6080   -0.8380    0.0000 C.ar    1  LIG1        0.1725
     23 O          -3.6170   -0.8380    0.0000 O.3     1  LIG1       -0.4684
     24 C          -4.1040    0.0420    0.0000 C.3     1  LIG1        0.2526
     25 C          -3.6080    0.9040    0.0000 C.3     1  LIG1        0.2526
     26 O          -2.6000    0.9040    0.0000 O.3     1  LIG1       -0.4683
     27 C          -2.1080   -1.7130    0.0000 C.ar    1  LIG1        0.0414
     28 C          -1.1080   -1.7130    0.0000 C.ar    1  LIG1        0.0199
@<TRIPOS>BOND
     1     1     2   ar
     2     1     5   ar
     3     1    18    1
     4     2     3   ar
     5     2    16   ar
     6     3     4   ar
     7     3    13   ar
     8     4     5   ar
     9     5     6    1
    10     6     7   ar
    11     6    12   ar
    12     7     8    1
    13     7     9   ar
    14     9    10   ar
    15    10    11   ar
    16    11    12   ar
    17    13    14   ar
    18    14    15   ar
    19    15    16   ar
    20    15    17    1
    21    18    19    1
    22    19    20   ar
    23    19    28   ar
    24    20    21   ar
    25    21    22   ar
    26    21    26    1
    27    22    23    1
    28    22    27   ar
    29    23    24    1
    30    24    25    1
    31    25    26    1
    32    27    28   ar
