@<TRIPOS>MOLECULE
36837_ChemDiv_C273-0466
 30 34 0 0 0
SMALL
GASTEIGER
Energy = 0

@<TRIPOS>ATOM
      1 C           0.5290    0.2420    0.0000 C.ar    1  LIG1        0.1558
      2 N           1.5420    0.2420    0.0000 N.ar    1  LIG1       -0.2760
      3 C           1.8420   -0.7040    0.0000 C.ar    1  LIG1        0.1484
      4 N           1.0420   -1.2960    0.0000 N.ar    1  LIG1       -0.2251
      5 C           0.2210   -0.7040    0.0000 C.ar    1  LIG1        0.1148
      6 C          -0.7250   -1.0130    0.0000 C.ar    1  LIG1        0.0206
      7 C          -0.9250   -1.9790    0.0000 C.ar    1  LIG1        0.0029
      8 C          -1.8750   -2.2880    0.0000 C.ar    1  LIG1        0.0146
      9 C          -2.6130   -1.6250    0.0000 C.ar    1  LIG1        0.0479
     10 N          -3.5880   -1.8790    0.0000 N.pl3   1  LIG1       -0.3041
     11 C          -4.2880   -1.1670    0.0000 C.3     1  LIG1        0.1122
     12 C          -3.8500   -2.8380    0.0000 C.3     1  LIG1        0.1122
     13 C          -2.4130   -0.6500    0.0000 C.ar    1  LIG1        0.0146
     14 C          -1.4630   -0.3420    0.0000 C.ar    1  LIG1        0.0029
     15 C           2.8250   -0.9210    0.0000 C.ar    1  LIG1        0.0332
     16 C           3.5000   -0.1750    0.0000 C.ar    1  LIG1       -0.0174
     17 C           3.1750    0.7630    0.0000 C.ar    1  LIG1        0.0149
     18 C           2.2080    0.9830    0.0000 C.ar    1  LIG1        0.0823
     19 C           4.4750   -0.3750    0.0000 C.3     1  LIG1        0.0312
     20 N           0.0290    1.1080    0.0000 N.pl3   1  LIG1       -0.1938
     21 C          -0.9710    1.1080    0.0000 C.ar    1  LIG1        0.0754
     22 C          -1.4630    1.9670    0.0000 C.ar    1  LIG1        0.0566
     23 C          -2.4750    1.9670    0.0000 C.ar    1  LIG1        0.1737
     24 C          -2.9750    1.1000    0.0000 C.ar    1  LIG1        0.1725
     25 O          -3.9790    1.1000    0.0000 O.3     1  LIG1       -0.4684
     26 C          -4.4790    1.9670    0.0000 C.3     1  LIG1        0.2526
     27 C          -3.9790    2.8420    0.0000 C.3     1  LIG1        0.2526
     28 O          -2.9750    2.8420    0.0000 O.3     1  LIG1       -0.4683
     29 C          -2.4750    0.2330    0.0000 C.ar    1  LIG1        0.0414
     30 C          -1.4630    0.2330    0.0000 C.ar    1  LIG1        0.0199
@<TRIPOS>BOND
     1     1     2   ar
     2     1     5   ar
     3     1    20    1
     4     2     3   ar
     5     2    18   ar
     6     3     4   ar
     7     3    15   ar
     8     4     5   ar
     9     5     6    1
    10     6     7   ar
    11     6    14   ar
    12     7     8   ar
    13     8     9   ar
    14     9    10    1
    15     9    13   ar
    16    10    11    1
    17    10    12    1
    18    13    14   ar
    19    15    16   ar
    20    16    17   ar
    21    16    19    1
    22    17    18   ar
    23    20    21    1
    24    21    22   ar
    25    21    30   ar
    26    22    23   ar
    27    23    24   ar
    28    23    28    1
    29    24    25    1
    30    24    29   ar
    31    25    26    1
    32    26    27    1
    33    27    28    1
    34    29    30   ar
