@<TRIPOS>MOLECULE
36832_ChemDiv_C301-2915
 34 38 0 0 0
SMALL
GASTEIGER
Energy = 0

@<TRIPOS>ATOM
      1 C          -0.5380    4.0040    0.0000 C.ar    1  LIG1        0.3055
      2 N          -0.8920    4.9380    0.0000 N.ar    1  LIG1       -0.1024
      3 N          -1.8920    4.8920    0.0000 N.ar    1  LIG1       -0.1109
      4 C          -2.1580    3.9290    0.0000 C.ar    1  LIG1        0.2310
      5 O          -1.3170    3.3830    0.0000 O.2     1  LIG1       -0.4158
      6 C          -3.0880    3.5790    0.0000 C.3     1  LIG1        0.1133
      7 C          -3.2500    2.5960    0.0000 C.ar    1  LIG1       -0.0097
      8 C          -2.4790    1.9670    0.0000 C.ar    1  LIG1        0.0364
      9 C          -2.6290    0.9790    0.0000 C.ar    1  LIG1        0.1761
     10 C          -3.5670    0.6130    0.0000 C.ar    1  LIG1        0.1764
     11 O          -3.5130   -0.3880    0.0000 O.3     1  LIG1       -0.4346
     12 C          -2.5380   -0.6460    0.0000 C.3     1  LIG1        0.4294
     13 O          -1.9920    0.2040    0.0000 O.3     1  LIG1       -0.4346
     14 C          -4.3420    1.2540    0.0000 C.ar    1  LIG1        0.0399
     15 C          -4.1880    2.2380    0.0000 C.ar    1  LIG1       -0.0005
     16 C           0.4250    3.7460    0.0000 C.2     1  LIG1        0.3202
     17 O           1.1380    4.4460    0.0000 O.2     1  LIG1       -0.2632
     18 N           0.6830    2.7790    0.0000 N.am    1  LIG1       -0.1974
     19 C           1.6420    2.5210    0.0000 C.3     1  LIG1        0.1218
     20 C           1.9000    1.5500    0.0000 C.3     1  LIG1        0.0861
     21 C           2.8630    1.2960    0.0000 C.3     1  LIG1        0.1404
     22 N           3.1210    0.3250    0.0000 N.4     1  LIG1        0.3773
     23 C           2.4080   -0.3710    0.0000 C.3     1  LIG1        0.1386
     24 C           2.6540   -1.3420    0.0000 C.3     1  LIG1        0.0632
     25 C           3.6250   -1.6080    0.0000 C.3     1  LIG1        0.0162
     26 C           3.8750   -2.5670    0.0000 C.3     1  LIG1        0.0268
     27 C           3.1670   -3.2750    0.0000 C.ar    1  LIG1       -0.0222
     28 C           2.2000   -3.0040    0.0000 C.ar    1  LIG1       -0.0043
     29 C           1.4880   -3.7040    0.0000 C.ar    1  LIG1       -0.0003
     30 C           1.7420   -4.6710    0.0000 C.ar    1  LIG1       -0.0000
     31 C           2.7130   -4.9380    0.0000 C.ar    1  LIG1       -0.0003
     32 C           3.4130   -4.2330    0.0000 C.ar    1  LIG1       -0.0043
     33 C           4.3380   -0.9000    0.0000 C.3     1  LIG1        0.0632
     34 C           4.0790    0.0670    0.0000 C.3     1  LIG1        0.1386
@<TRIPOS>BOND
     1     1     2   ar
     2     1     5   ar
     3     1    16    1
     4     2     3   ar
     5     3     4   ar
     6     4     5   ar
     7     4     6    1
     8     6     7    1
     9     7     8   ar
    10     7    15   ar
    11     8     9   ar
    12     9    10   ar
    13     9    13    1
    14    10    11    1
    15    10    14   ar
    16    11    12    1
    17    12    13    1
    18    14    15   ar
    19    16    17    2
    20    16    18   am
    21    18    19    1
    22    19    20    1
    23    20    21    1
    24    21    22    1
    25    22    23    1
    26    22    34    1
    27    23    24    1
    28    24    25    1
    29    25    26    1
    30    25    33    1
    31    26    27    1
    32    27    28   ar
    33    27    32   ar
    34    28    29   ar
    35    29    30   ar
    36    30    31   ar
    37    31    32   ar
    38    33    34    1
