@<TRIPOS>MOLECULE
36847_ChemDiv_C274-3136
 34 37 0 0 0
SMALL
GASTEIGER
Energy = 0

@<TRIPOS>ATOM
      1 N          -2.2170   -1.6830    0.0000 N.am    1  LIG1       -0.2014
      2 C          -1.4040   -2.2460    0.0000 C.2     1  LIG1        0.2589
      3 C          -1.7040   -3.1670    0.0000 C.ar    1  LIG1        0.0595
      4 C          -2.6750   -3.1830    0.0000 C.ar    1  LIG1        0.0587
      5 C          -2.9920   -2.2580    0.0000 C.2     1  LIG1        0.2589
      6 O          -3.9210   -1.9670    0.0000 O.2     1  LIG1       -0.2691
      7 C          -3.1420   -4.0290    0.0000 C.ar    1  LIG1        0.0055
      8 C          -2.6580   -4.8790    0.0000 C.ar    1  LIG1        0.0115
      9 C          -1.6710   -4.8670    0.0000 C.ar    1  LIG1        0.0578
     10 C          -1.1920   -4.0080    0.0000 C.ar    1  LIG1        0.0161
     11 CL         -1.1710   -5.7130    0.0000 Cl      1  LIG1       -0.0822
     12 O          -0.4750   -1.9250    0.0000 O.2     1  LIG1       -0.2691
     13 C          -2.1880   -0.7080    0.0000 C.ar    1  LIG1        0.0573
     14 C          -1.3250   -0.2290    0.0000 C.ar    1  LIG1       -0.0064
     15 C          -1.2920    0.7420    0.0000 C.ar    1  LIG1        0.0136
     16 C          -2.1290    1.2540    0.0000 C.ar    1  LIG1        0.0732
     17 N          -2.1290    2.7380    0.0000 N.am    1  LIG1       -0.1780
     18 C          -1.2630    3.2380    0.0000 C.2     1  LIG1        0.2636
     19 C          -1.2630    4.2130    0.0000 C.3     1  LIG1        0.1825
     20 N          -0.3830    4.7250    0.0000 N.3     1  LIG1       -0.1442
     21 S           0.4750    4.2130    0.0000 S.O2    1  LIG1        0.0695
     22 C           1.3380    3.7290    0.0000 C.ar    1  LIG1        0.1521
     23 S           2.2670    4.1080    0.0000 S.2     1  LIG1       -0.0604
     24 C           2.9080    3.3580    0.0000 C.ar    1  LIG1        0.0651
     25 C           2.3880    2.5080    0.0000 C.ar    1  LIG1        0.0152
     26 C           1.4170    2.7460    0.0000 C.ar    1  LIG1        0.0276
     27 BR          3.9170    3.4420    0.0000 Br      1  LIG1       -0.0419
     28 O           0.9790    5.0790    0.0000 O.2     1  LIG1       -0.1523
     29 O          -0.0380    3.3630    0.0000 O.2     1  LIG1       -0.1523
     30 C          -0.3830    5.7130    0.0000 C.3     1  LIG1        0.1155
     31 O          -0.3830    2.7380    0.0000 O.2     1  LIG1       -0.2714
     32 C          -2.9920    0.7880    0.0000 C.ar    1  LIG1        0.0179
     33 C          -3.0210   -0.1920    0.0000 C.ar    1  LIG1        0.0164
     34 C          -0.4920   -0.7580    0.0000 C.3     1  LIG1        0.0324
@<TRIPOS>BOND
     1     1     2   am
     2     1     5   am
     3     1    13    1
     4     2     3    1
     5     2    12    2
     6     3     4   ar
     7     3    10   ar
     8     4     5    1
     9     4     7   ar
    10     5     6    2
    11     7     8   ar
    12     8     9   ar
    13     9    10   ar
    14     9    11    1
    15    13    14   ar
    16    13    33   ar
    17    14    15   ar
    18    14    34    1
    19    15    16   ar
    20    16    17    1
    21    16    32   ar
    22    17    18   am
    23    18    19    1
    24    18    31    2
    25    19    20    1
    26    20    21    1
    27    20    30    1
    28    21    22    1
    29    21    28    2
    30    21    29    2
    31    22    23   ar
    32    22    26   ar
    33    23    24   ar
    34    24    25   ar
    35    24    27    1
    36    25    26   ar
    37    32    33   ar
