@<TRIPOS>MOLECULE
36841_ChemDiv_C273-0550
 26 29 0 0 0
SMALL
GASTEIGER
Energy = 0

@<TRIPOS>ATOM
      1 C           0.2250    0.2500    0.0000 C.ar    1  LIG1        0.1558
      2 N           0.0130    1.2380    0.0000 N.ar    1  LIG1       -0.2763
      3 C           0.8750    1.7330    0.0000 C.ar    1  LIG1        0.1447
      4 N           1.6210    1.0580    0.0000 N.ar    1  LIG1       -0.2254
      5 C           1.2250    0.1500    0.0000 C.ar    1  LIG1        0.1148
      6 C           1.7670   -0.6920    0.0000 C.ar    1  LIG1        0.0207
      7 C           1.3080   -1.5880    0.0000 C.ar    1  LIG1        0.0047
      8 C           1.8500   -2.4250    0.0000 C.ar    1  LIG1        0.0370
      9 C           2.8540   -2.3750    0.0000 C.ar    1  LIG1        0.1387
     10 C           3.3080   -1.4750    0.0000 C.ar    1  LIG1        0.0370
     11 C           2.7630   -0.6380    0.0000 C.ar    1  LIG1        0.0047
     12 O           3.3460   -3.2330    0.0000 O.3     1  LIG1       -0.4714
     13 C           4.3460   -3.2330    0.0000 C.3     1  LIG1        0.2525
     14 C           0.8750    2.7330    0.0000 C.ar    1  LIG1        0.0127
     15 C           0.0130    3.2380    0.0000 C.ar    1  LIG1        0.0003
     16 C          -0.8630    2.7330    0.0000 C.ar    1  LIG1        0.0189
     17 C          -0.8630    1.7330    0.0000 C.ar    1  LIG1        0.0826
     18 C           1.7380    3.2330    0.0000 C.3     1  LIG1        0.0342
     19 N          -0.4330   -0.5000    0.0000 N.pl3   1  LIG1       -0.1939
     20 C          -1.4170   -0.3040    0.0000 C.ar    1  LIG1        0.0721
     21 C          -1.7330    0.6420    0.0000 C.ar    1  LIG1        0.0162
     22 C          -2.7080    0.8380    0.0000 C.ar    1  LIG1       -0.0029
     23 C          -3.3670    0.0880    0.0000 C.ar    1  LIG1       -0.0218
     24 C          -3.0460   -0.8580    0.0000 C.ar    1  LIG1       -0.0029
     25 C          -2.0710   -1.0540    0.0000 C.ar    1  LIG1        0.0162
     26 C          -4.3500    0.2830    0.0000 C.3     1  LIG1        0.0310
@<TRIPOS>BOND
     1     1     2   ar
     2     1     5   ar
     3     1    19    1
     4     2     3   ar
     5     2    17   ar
     6     3     4   ar
     7     3    14   ar
     8     4     5   ar
     9     5     6    1
    10     6     7   ar
    11     6    11   ar
    12     7     8   ar
    13     8     9   ar
    14     9    10   ar
    15     9    12    1
    16    10    11   ar
    17    12    13    1
    18    14    15   ar
    19    14    18    1
    20    15    16   ar
    21    16    17   ar
    22    19    20    1
    23    20    21   ar
    24    20    25   ar
    25    21    22   ar
    26    22    23   ar
    27    23    24   ar
    28    23    26    1
    29    24    25   ar
