@<TRIPOS>MOLECULE
36852_ChemDiv_C301-2943
 29 32 0 0 0
SMALL
GASTEIGER
Energy = 0

@<TRIPOS>ATOM
      1 S           0.0420   -1.6500    0.0000 S.O2    1  LIG1       -0.0578
      2 C           0.9040   -1.1540    0.0000 C.ar    1  LIG1        0.0895
      3 C           0.9000   -0.1580    0.0000 C.ar    1  LIG1        0.0197
      4 C           1.7630    0.3460    0.0000 C.ar    1  LIG1        0.0350
      5 C           1.9630    1.3290    0.0000 C.ar    1  LIG1        0.0222
      6 C           2.9630    1.4460    0.0000 C.ar    1  LIG1        0.2165
      7 O           3.3710    0.5210    0.0000 O.2     1  LIG1       -0.4473
      8 C           2.6290   -0.1460    0.0000 C.ar    1  LIG1        0.1454
      9 C           2.6290   -1.1460    0.0000 C.ar    1  LIG1        0.0388
     10 C           1.7670   -1.6500    0.0000 C.ar    1  LIG1        0.0200
     11 C           3.4580    2.3080    0.0000 C.2     1  LIG1        0.3760
     12 O           2.9500    3.1710    0.0000 O.2     1  LIG1       -0.2414
     13 O           4.4580    2.3130    0.0000 O.3     1  LIG1       -0.4433
     14 C           5.4460    2.3250    0.0000 C.3     1  LIG1        0.2090
     15 C           5.9580    1.4630    0.0000 C.3     1  LIG1        0.0513
     16 C           1.2920    2.0670    0.0000 C.3     1  LIG1        0.0346
     17 N          -0.8210   -1.1580    0.0000 N.pl3   1  LIG1       -0.5358
     18 C          -1.6830   -1.6580    0.0000 C.ar    1  LIG1       -0.1107
     19 C          -2.5540   -1.1580    0.0000 C.ar    1  LIG1       -0.0030
     20 C          -3.4170   -1.6580    0.0000 C.ar    1  LIG1        0.1020
     21 N          -4.3710   -1.3500    0.0000 N.ar    1  LIG1       -0.1894
     22 C          -4.9630   -2.1580    0.0000 C.ar    1  LIG1        0.3688
     23 N          -4.3710   -2.9750    0.0000 N.ar    1  LIG1       -0.1893
     24 C          -3.4170   -2.6670    0.0000 C.ar    1  LIG1        0.1036
     25 C          -2.5540   -3.1670    0.0000 C.ar    1  LIG1        0.0189
     26 C          -1.6830   -2.6670    0.0000 C.ar    1  LIG1       -0.0222
     27 O          -5.9630   -2.1580    0.0000 O.2     1  LIG1       -0.2426
     28 O          -0.2170   -0.6920    0.0000 O.2     1  LIG1       -0.1842
     29 O           0.0420   -2.6540    0.0000 O.2     1  LIG1       -0.1842
@<TRIPOS>BOND
     1     1     2    1
     2     1    17    1
     3     1    28    2
     4     1    29    2
     5     2     3   ar
     6     2    10   ar
     7     3     4   ar
     8     4     5   ar
     9     4     8   ar
    10     5     6   ar
    11     5    16    1
    12     6     7   ar
    13     6    11    1
    14     7     8   ar
    15     8     9   ar
    16     9    10   ar
    17    11    12    2
    18    11    13    1
    19    13    14    1
    20    14    15    1
    21    17    18    1
    22    18    19   ar
    23    18    26   ar
    24    19    20   ar
    25    20    21   ar
    26    20    24   ar
    27    21    22   ar
    28    22    23   ar
    29    22    27    2
    30    23    24   ar
    31    24    25   ar
    32    25    26   ar
