@<TRIPOS>MOLECULE
36858_ChemDiv_C301-3369
 28 33 0 0 0
SMALL
GASTEIGER
Energy = 0

@<TRIPOS>ATOM
      1 N          -0.5210    3.1880    0.0000 N.ar    1  LIG1       -0.1551
      2 N          -0.2130    4.1380    0.0000 N.ar    1  LIG1       -0.0455
      3 N          -1.0170    4.7330    0.0000 N.ar    1  LIG1       -0.1123
      4 C          -1.8250    4.1380    0.0000 C.ar    1  LIG1        0.1837
      5 N          -1.5250    3.1880    0.0000 N.ar    1  LIG1       -0.1344
      6 C          -2.7750    4.4500    0.0000 C.3     1  LIG1        0.0776
      7 C           0.1170    2.4170    0.0000 C.3     1  LIG1        0.1073
      8 C          -0.1880    1.4750    0.0000 C.3     1  LIG1        0.0330
      9 C           0.5670    0.8500    0.0000 C.3     1  LIG1        0.0727
     10 C          -0.0920    0.0880    0.0000 C.2     1  LIG1        0.2447
     11 N           0.2250   -0.8500    0.0000 N.am    1  LIG1       -0.1791
     12 C          -0.4250   -1.6170    0.0000 C.ar    1  LIG1        0.0766
     13 C          -0.0920   -2.5500    0.0000 C.ar    1  LIG1        0.0568
     14 C          -0.7420   -3.3080    0.0000 C.ar    1  LIG1        0.1777
     15 C          -1.7330   -3.1210    0.0000 C.ar    1  LIG1        0.1765
     16 O          -2.2080   -4.0000    0.0000 O.3     1  LIG1       -0.4346
     17 C          -1.5250   -4.7330    0.0000 C.3     1  LIG1        0.4294
     18 O          -0.6080   -4.3040    0.0000 O.3     1  LIG1       -0.4346
     19 C          -2.0580   -2.1790    0.0000 C.ar    1  LIG1        0.0415
     20 C          -1.4040   -1.4250    0.0000 C.ar    1  LIG1        0.0199
     21 O          -1.0710    0.2790    0.0000 O.2     1  LIG1       -0.2730
     22 C           1.4460    1.4000    0.0000 C.3     1  LIG1        0.0088
     23 C           1.7630    2.3880    0.0000 C.3     1  LIG1        0.0024
     24 C           1.0040    3.0130    0.0000 C.3     1  LIG1        0.0244
     25 C           2.7710    2.3460    0.0000 C.3     1  LIG1        0.0002
     26 C           1.7750    1.8000    0.0000 C.3     1  LIG1        0.0024
     27 C           1.0540    2.3580    0.0000 C.3     1  LIG1        0.0244
     28 C           1.4920    0.8710    0.0000 C.3     1  LIG1        0.0088
@<TRIPOS>BOND
     1     1     2   ar
     2     1     5   ar
     3     1     7    1
     4     2     3   ar
     5     3     4   ar
     6     4     5   ar
     7     4     6    1
     8     7     8    1
     9     7    24    1
    10     7    27    1
    11     8     9    1
    12     9    10    1
    13     9    22    1
    14     9    28    1
    15    10    11   am
    16    10    21    2
    17    11    12    1
    18    12    13   ar
    19    12    20   ar
    20    13    14   ar
    21    14    15   ar
    22    14    18    1
    23    15    16    1
    24    15    19   ar
    25    16    17    1
    26    17    18    1
    27    19    20   ar
    28    22    23    1
    29    23    24    1
    30    23    25    1
    31    25    26    1
    32    26    27    1
    33    26    28    1
