@<TRIPOS>MOLECULE
36854_ChemDiv_C301-3042
 29 32 0 0 0
SMALL
GASTEIGER
Energy = 0

@<TRIPOS>ATOM
      1 S          -0.4630   -1.2750    0.0000 S.O2    1  LIG1       -0.0578
      2 C           0.4000   -0.7750    0.0000 C.ar    1  LIG1        0.0895
      3 C           0.3830    0.2210    0.0000 C.ar    1  LIG1        0.0197
      4 C           1.2460    0.7250    0.0000 C.ar    1  LIG1        0.0350
      5 C           1.4540    1.7130    0.0000 C.ar    1  LIG1        0.0222
      6 C           2.4540    1.8170    0.0000 C.ar    1  LIG1        0.2165
      7 O           2.8710    0.9000    0.0000 O.2     1  LIG1       -0.4473
      8 C           2.1210    0.2250    0.0000 C.ar    1  LIG1        0.1454
      9 C           2.1250   -0.7750    0.0000 C.ar    1  LIG1        0.0388
     10 C           1.2630   -1.2750    0.0000 C.ar    1  LIG1        0.0200
     11 C           2.9460    2.6880    0.0000 C.2     1  LIG1        0.3760
     12 O           2.4460    3.5500    0.0000 O.2     1  LIG1       -0.2414
     13 O           3.9460    2.6960    0.0000 O.3     1  LIG1       -0.4433
     14 C           4.9460    2.7000    0.0000 C.3     1  LIG1        0.2090
     15 C           5.4580    1.8380    0.0000 C.3     1  LIG1        0.0513
     16 C           0.7790    2.4460    0.0000 C.3     1  LIG1        0.0346
     17 N          -1.3330   -0.7830    0.0000 N.pl3   1  LIG1       -0.5358
     18 C          -2.1960   -1.2880    0.0000 C.ar    1  LIG1       -0.1125
     19 C          -3.0710   -0.7880    0.0000 C.ar    1  LIG1       -0.0243
     20 C          -3.9330   -1.2880    0.0000 C.ar    1  LIG1        0.0257
     21 C          -3.9330   -2.2880    0.0000 C.ar    1  LIG1        0.0751
     22 C          -4.8790   -2.6000    0.0000 C.2     1  LIG1        0.3413
     23 O          -5.4630   -1.7880    0.0000 O.3     1  LIG1       -0.4404
     24 C          -4.8790   -0.9830    0.0000 C.3     1  LIG1        0.2355
     25 O          -5.1920   -3.5460    0.0000 O.2     1  LIG1       -0.2449
     26 C          -3.0710   -2.7880    0.0000 C.ar    1  LIG1        0.0044
     27 C          -2.1960   -2.2880    0.0000 C.ar    1  LIG1       -0.0236
     28 O          -0.7250   -0.3130    0.0000 O.2     1  LIG1       -0.1842
     29 O          -0.4630   -2.2750    0.0000 O.2     1  LIG1       -0.1842
@<TRIPOS>BOND
     1     1     2    1
     2     1    17    1
     3     1    28    2
     4     1    29    2
     5     2     3   ar
     6     2    10   ar
     7     3     4   ar
     8     4     5   ar
     9     4     8   ar
    10     5     6   ar
    11     5    16    1
    12     6     7   ar
    13     6    11    1
    14     7     8   ar
    15     8     9   ar
    16     9    10   ar
    17    11    12    2
    18    11    13    1
    19    13    14    1
    20    14    15    1
    21    17    18    1
    22    18    19   ar
    23    18    27   ar
    24    19    20   ar
    25    20    21   ar
    26    20    24    1
    27    21    22    1
    28    21    26   ar
    29    22    23    1
    30    22    25    2
    31    23    24    1
    32    26    27   ar
