@<TRIPOS>MOLECULE
36850_ChemDiv_C301-2933
 28 31 0 0 0
SMALL
GASTEIGER
Energy = 0

@<TRIPOS>ATOM
      1 C          -4.5920   -1.1290    0.0000 C.ar    1  LIG1        0.3316
      2 N          -4.0000   -0.3170    0.0000 N.ar    1  LIG1       -0.2780
      3 C          -3.0460   -0.6290    0.0000 C.ar    1  LIG1        0.0780
      4 C          -3.0460   -1.6330    0.0000 C.ar    1  LIG1        0.0796
      5 N          -4.0000   -1.9380    0.0000 N.ar    1  LIG1       -0.2779
      6 C          -4.3130   -2.8920    0.0000 C.3     1  LIG1        0.1351
      7 C          -2.1830   -2.1330    0.0000 C.ar    1  LIG1        0.0169
      8 C          -1.3170   -1.6330    0.0000 C.ar    1  LIG1       -0.0223
      9 C          -1.3170   -0.6290    0.0000 C.ar    1  LIG1       -0.1108
     10 N          -0.4540   -0.1210    0.0000 N.pl3   1  LIG1       -0.5358
     11 S           0.4080   -0.6170    0.0000 S.O2    1  LIG1       -0.0578
     12 C           1.2710   -0.1210    0.0000 C.ar    1  LIG1        0.0893
     13 C           2.1330   -0.6170    0.0000 C.ar    1  LIG1        0.0166
     14 C           3.0000   -0.1130    0.0000 C.ar    1  LIG1       -0.0030
     15 C           3.0000    0.8830    0.0000 C.ar    1  LIG1       -0.0224
     16 C           2.1210    1.3790    0.0000 C.ar    1  LIG1       -0.0030
     17 C           1.2670    0.8790    0.0000 C.ar    1  LIG1        0.0166
     18 C           3.8630    1.3960    0.0000 C.3     1  LIG1        0.0223
     19 C           4.7330    0.8960    0.0000 C.3     1  LIG1        0.0044
     20 C           5.5880    1.3960    0.0000 C.3     1  LIG1        0.0003
     21 C           5.5880    2.3960    0.0000 C.3     1  LIG1        0.0000
     22 C           4.7250    2.8960    0.0000 C.3     1  LIG1        0.0003
     23 C           3.8540    2.3830    0.0000 C.3     1  LIG1        0.0044
     24 O           0.4080   -1.6170    0.0000 O.2     1  LIG1       -0.1842
     25 O           0.1500    0.3500    0.0000 O.2     1  LIG1       -0.1842
     26 C          -2.1830   -0.1290    0.0000 C.ar    1  LIG1       -0.0050
     27 C          -4.3130    0.6380    0.0000 C.3     1  LIG1        0.1351
     28 O          -5.5920   -1.1290    0.0000 O.2     1  LIG1       -0.2463
@<TRIPOS>BOND
     1     1     2   ar
     2     1     5   ar
     3     1    28    2
     4     2     3   ar
     5     2    27    1
     6     3     4   ar
     7     3    26   ar
     8     4     5   ar
     9     4     7   ar
    10     5     6    1
    11     7     8   ar
    12     8     9   ar
    13     9    10    1
    14     9    26   ar
    15    10    11    1
    16    11    12    1
    17    11    24    2
    18    11    25    2
    19    12    13   ar
    20    12    17   ar
    21    13    14   ar
    22    14    15   ar
    23    15    16   ar
    24    15    18    1
    25    16    17   ar
    26    18    19    1
    27    18    23    1
    28    19    20    1
    29    20    21    1
    30    21    22    1
    31    22    23    1
