@<TRIPOS>MOLECULE
36856_ChemDiv_C301-5511
 39 43 0 0 0
SMALL
GASTEIGER
Energy = 0

@<TRIPOS>ATOM
      1 C          -2.9830    2.3210    0.0000 C.ar    1  LIG1        0.3316
      2 N          -2.3790    1.4880    0.0000 N.ar    1  LIG1       -0.2780
      3 C          -1.4000    1.8080    0.0000 C.ar    1  LIG1        0.0780
      4 C          -1.4000    2.8290    0.0000 C.ar    1  LIG1        0.0809
      5 N          -2.3790    3.1540    0.0000 N.ar    1  LIG1       -0.2779
      6 C          -2.6880    4.0880    0.0000 C.3     1  LIG1        0.1351
      7 C          -0.5170    3.3420    0.0000 C.ar    1  LIG1        0.0330
      8 C           0.3670    2.8290    0.0000 C.ar    1  LIG1        0.0452
      9 C           0.3670    1.8080    0.0000 C.ar    1  LIG1       -0.0955
     10 N           1.2330    1.3130    0.0000 N.pl3   1  LIG1       -0.5348
     11 S           1.2330    0.3210    0.0000 S.O2    1  LIG1       -0.0577
     12 C           1.2420   -0.6710    0.0000 C.ar    1  LIG1        0.0895
     13 C           2.1000   -1.1540    0.0000 C.ar    1  LIG1        0.0197
     14 C           2.1130   -2.1460    0.0000 C.ar    1  LIG1        0.0350
     15 C           2.8580   -2.7960    0.0000 C.ar    1  LIG1        0.0222
     16 C           2.4670   -3.7080    0.0000 C.ar    1  LIG1        0.2165
     17 O           1.4790   -3.6290    0.0000 O.2     1  LIG1       -0.4473
     18 C           1.2580   -2.6540    0.0000 C.ar    1  LIG1        0.1454
     19 C           0.3920   -2.1580    0.0000 C.ar    1  LIG1        0.0388
     20 C           0.3790   -1.1670    0.0000 C.ar    1  LIG1        0.0200
     21 C           2.9790   -4.5630    0.0000 C.2     1  LIG1        0.3760
     22 O           3.9710   -4.5460    0.0000 O.2     1  LIG1       -0.2414
     23 O           2.5000   -5.4290    0.0000 O.3     1  LIG1       -0.4433
     24 C           1.5080   -5.4460    0.0000 C.3     1  LIG1        0.2090
     25 C           1.0170   -6.3130    0.0000 C.3     1  LIG1        0.0513
     26 C           3.8210   -2.5790    0.0000 C.3     1  LIG1        0.0346
     27 O           0.2420    0.3210    0.0000 O.2     1  LIG1       -0.1842
     28 O           2.2250    0.3210    0.0000 O.2     1  LIG1       -0.1842
     29 C          -0.5170    1.2960    0.0000 C.ar    1  LIG1       -0.0038
     30 N           1.2290    3.3330    0.0000 N.pl3   1  LIG1       -0.2346
     31 C           1.2170    4.3210    0.0000 C.3     1  LIG1        0.1385
     32 C           2.0790    4.8250    0.0000 C.ar    1  LIG1       -0.0007
     33 C           2.9330    4.3290    0.0000 C.ar    1  LIG1       -0.0026
     34 C           3.7920    4.8250    0.0000 C.ar    1  LIG1       -0.0003
     35 C           3.7920    5.8170    0.0000 C.ar    1  LIG1       -0.0000
     36 C           2.9210    6.3130    0.0000 C.ar    1  LIG1       -0.0003
     37 C           2.0710    5.8080    0.0000 C.ar    1  LIG1       -0.0026
     38 C          -2.6880    0.5420    0.0000 C.3     1  LIG1        0.1351
     39 O          -3.9750    2.3210    0.0000 O.2     1  LIG1       -0.2463
@<TRIPOS>BOND
     1     1     2   ar
     2     1     5   ar
     3     1    39    2
     4     2     3   ar
     5     2    38    1
     6     3     4   ar
     7     3    29   ar
     8     4     5   ar
     9     4     7   ar
    10     5     6    1
    11     7     8   ar
    12     8     9   ar
    13     8    30    1
    14     9    10    1
    15     9    29   ar
    16    10    11    1
    17    11    12    1
    18    11    27    2
    19    11    28    2
    20    12    13   ar
    21    12    20   ar
    22    13    14   ar
    23    14    15   ar
    24    14    18   ar
    25    15    16   ar
    26    15    26    1
    27    16    17   ar
    28    16    21    1
    29    17    18   ar
    30    18    19   ar
    31    19    20   ar
    32    21    22    2
    33    21    23    1
    34    23    24    1
    35    24    25    1
    36    30    31    1
    37    31    32    1
    38    32    33   ar
    39    32    37   ar
    40    33    34   ar
    41    34    35   ar
    42    35    36   ar
    43    36    37   ar
