@<TRIPOS>MOLECULE
36865_ChemDiv_C274-3556
 30 33 0 0 0
SMALL
GASTEIGER
Energy = 0

@<TRIPOS>ATOM
      1 S           0.8580    3.3380    0.0000 S.O2    1  LIG1        0.0825
      2 C           0.8710    4.3380    0.0000 C.ar    1  LIG1        0.1534
      3 S           0.1210    5.0080    0.0000 S.2     1  LIG1       -0.0604
      4 C           0.5380    5.9170    0.0000 C.ar    1  LIG1        0.0651
      5 C           1.5330    5.7960    0.0000 C.ar    1  LIG1        0.0152
      6 C           1.7330    4.8250    0.0000 C.ar    1  LIG1        0.0277
      7 BR         -0.0130    6.7500    0.0000 Br      1  LIG1       -0.0419
      8 N           0.8460    2.3420    0.0000 N.3     1  LIG1       -0.0773
      9 C           1.7040    1.8330    0.0000 C.3     1  LIG1        0.1154
     10 C           1.6960    0.8290    0.0000 C.3     1  LIG1        0.0194
     11 C           0.8290    0.3290    0.0000 C.3     1  LIG1        0.0020
     12 C           0.8170   -0.6670    0.0000 C.3     1  LIG1        0.0092
     13 C           1.6830   -1.1670    0.0000 C.3     1  LIG1        0.0782
     14 C           1.6750   -2.1580    0.0000 C.2     1  LIG1        0.2412
     15 N           0.8170   -2.6540    0.0000 N.am    1  LIG1       -0.2006
     16 C           0.8170   -3.6670    0.0000 C.3     1  LIG1        0.1416
     17 C          -0.0630   -4.1790    0.0000 C.ar    1  LIG1        0.0027
     18 C          -0.0750   -5.1920    0.0000 C.ar    1  LIG1        0.0376
     19 C          -0.9330   -5.6920    0.0000 C.ar    1  LIG1        0.1762
     20 C          -1.8080   -5.1750    0.0000 C.ar    1  LIG1        0.1764
     21 O          -2.5500   -5.8500    0.0000 O.3     1  LIG1       -0.4346
     22 C          -2.1540   -6.7500    0.0000 C.3     1  LIG1        0.4294
     23 O          -1.1580   -6.6670    0.0000 O.3     1  LIG1       -0.4346
     24 C          -1.8080   -4.1790    0.0000 C.ar    1  LIG1        0.0399
     25 C          -0.9250   -3.6670    0.0000 C.ar    1  LIG1        0.0008
     26 O           2.5330   -2.6540    0.0000 O.2     1  LIG1       -0.2733
     27 C           2.5460   -0.6670    0.0000 C.3     1  LIG1        0.0092
     28 C           2.5460    0.3290    0.0000 C.3     1  LIG1        0.0020
     29 O          -0.1540    3.3500    0.0000 O.2     1  LIG1       -0.1511
     30 O           1.8540    3.3250    0.0000 O.2     1  LIG1       -0.1511
@<TRIPOS>BOND
     1     1     2    1
     2     1     8    1
     3     1    29    2
     4     1    30    2
     5     2     3   ar
     6     2     6   ar
     7     3     4   ar
     8     4     5   ar
     9     4     7    1
    10     5     6   ar
    11     8     9    1
    12     9    10    1
    13    10    11    1
    14    10    28    1
    15    11    12    1
    16    12    13    1
    17    13    14    1
    18    13    27    1
    19    14    15   am
    20    14    26    2
    21    15    16    1
    22    16    17    1
    23    17    18   ar
    24    17    25   ar
    25    18    19   ar
    26    19    20   ar
    27    19    23    1
    28    20    21    1
    29    20    24   ar
    30    21    22    1
    31    22    23    1
    32    24    25   ar
    33    27    28    1
