@<TRIPOS>MOLECULE
36860_ChemDiv_C301-3385
 29 33 0 0 0
SMALL
GASTEIGER
Energy = 0

@<TRIPOS>ATOM
      1 N          -1.0330    3.0500    0.0000 N.ar    1  LIG1       -0.1551
      2 N          -0.7170    4.0000    0.0000 N.ar    1  LIG1       -0.0455
      3 N          -1.5290    4.5830    0.0000 N.ar    1  LIG1       -0.1123
      4 C          -2.3420    4.0000    0.0000 C.ar    1  LIG1        0.1837
      5 N          -2.0290    3.0500    0.0000 N.ar    1  LIG1       -0.1344
      6 C          -3.2920    4.3000    0.0000 C.3     1  LIG1        0.0776
      7 C          -0.3960    2.2790    0.0000 C.3     1  LIG1        0.1073
      8 C          -0.6960    1.3290    0.0000 C.3     1  LIG1        0.0329
      9 C           0.0580    0.7000    0.0000 C.3     1  LIG1        0.0709
     10 C          -0.6040   -0.0580    0.0000 C.2     1  LIG1        0.2248
     11 N          -0.2790   -1.0040    0.0000 N.am    1  LIG1       -0.2795
     12 C           0.7080   -1.1920    0.0000 C.3     1  LIG1        0.0940
     13 C           1.0250   -2.1420    0.0000 C.3     1  LIG1        0.0326
     14 C           0.3580   -2.8960    0.0000 C.3     1  LIG1        0.1025
     15 C           0.6880   -3.8380    0.0000 C.2     1  LIG1        0.3165
     16 O           0.0290   -4.5830    0.0000 O.2     1  LIG1       -0.2501
     17 O           1.6580   -4.0370    0.0000 O.3     1  LIG1       -0.4485
     18 C           2.3170   -3.2880    0.0000 C.3     1  LIG1        0.2086
     19 C           3.2880   -3.4830    0.0000 C.3     1  LIG1        0.0513
     20 C          -0.6210   -2.7000    0.0000 C.3     1  LIG1        0.0326
     21 C          -0.9380   -1.7460    0.0000 C.3     1  LIG1        0.0940
     22 O          -1.5880    0.1380    0.0000 O.2     1  LIG1       -0.2749
     23 C           0.9420    1.2540    0.0000 C.3     1  LIG1        0.0087
     24 C           1.2580    2.2420    0.0000 C.3     1  LIG1        0.0024
     25 C           0.4960    2.8670    0.0000 C.3     1  LIG1        0.0244
     26 C           2.2670    2.2040    0.0000 C.3     1  LIG1        0.0002
     27 C           1.2750    1.6500    0.0000 C.3     1  LIG1        0.0024
     28 C           0.5500    2.2210    0.0000 C.3     1  LIG1        0.0244
     29 C           0.9790    0.7250    0.0000 C.3     1  LIG1        0.0087
@<TRIPOS>BOND
     1     1     2   ar
     2     1     5   ar
     3     1     7    1
     4     2     3   ar
     5     3     4   ar
     6     4     5   ar
     7     4     6    1
     8     7     8    1
     9     7    25    1
    10     7    28    1
    11     8     9    1
    12     9    10    1
    13     9    23    1
    14     9    29    1
    15    10    11   am
    16    10    22    2
    17    11    12    1
    18    11    21    1
    19    12    13    1
    20    13    14    1
    21    14    15    1
    22    14    20    1
    23    15    16    2
    24    15    17    1
    25    17    18    1
    26    18    19    1
    27    20    21    1
    28    23    24    1
    29    24    25    1
    30    24    26    1
    31    26    27    1
    32    27    28    1
    33    27    29    1
