@<TRIPOS>MOLECULE
36864_ChemDiv_C301-3505
 29 34 0 0 0
SMALL
GASTEIGER
Energy = 0

@<TRIPOS>ATOM
      1 N          -1.0040    3.1920    0.0000 N.ar    1  LIG1       -0.1551
      2 N          -0.6960    4.1420    0.0000 N.ar    1  LIG1       -0.0455
      3 N          -1.5040    4.7330    0.0000 N.ar    1  LIG1       -0.1123
      4 C          -2.3130    4.1420    0.0000 C.ar    1  LIG1        0.1837
      5 N          -2.0130    3.1920    0.0000 N.ar    1  LIG1       -0.1344
      6 C          -3.2630    4.4540    0.0000 C.3     1  LIG1        0.0776
      7 C          -0.3630    2.4210    0.0000 C.3     1  LIG1        0.1073
      8 C          -0.6710    1.4750    0.0000 C.3     1  LIG1        0.0330
      9 C           0.0830    0.8500    0.0000 C.3     1  LIG1        0.0724
     10 C          -0.5750    0.0830    0.0000 C.2     1  LIG1        0.2408
     11 N          -0.2580   -0.8580    0.0000 N.am    1  LIG1       -0.2006
     12 C           0.7250   -1.0540    0.0000 C.3     1  LIG1        0.1416
     13 C           1.0500   -2.0000    0.0000 C.ar    1  LIG1        0.0027
     14 C           2.0210   -2.1880    0.0000 C.ar    1  LIG1        0.0376
     15 C           2.3500   -3.1210    0.0000 C.ar    1  LIG1        0.1762
     16 C           1.6920   -3.8790    0.0000 C.ar    1  LIG1        0.1764
     17 O           2.2130   -4.7330    0.0000 O.3     1  LIG1       -0.4346
     18 C           3.1830   -4.5080    0.0000 C.3     1  LIG1        0.4294
     19 O           3.2580   -3.5170    0.0000 O.3     1  LIG1       -0.4346
     20 C           0.7080   -3.6920    0.0000 C.ar    1  LIG1        0.0399
     21 C           0.3920   -2.7460    0.0000 C.ar    1  LIG1        0.0008
     22 O          -1.5580    0.2750    0.0000 O.2     1  LIG1       -0.2734
     23 C           1.0080    0.8710    0.0000 C.3     1  LIG1        0.0088
     24 C           1.2960    1.8000    0.0000 C.3     1  LIG1        0.0024
     25 C           0.5710    2.3630    0.0000 C.3     1  LIG1        0.0244
     26 C           2.2920    2.3540    0.0000 C.3     1  LIG1        0.0002
     27 C           1.2830    2.3920    0.0000 C.3     1  LIG1        0.0024
     28 C           0.5210    3.0170    0.0000 C.3     1  LIG1        0.0244
     29 C           0.9630    1.4000    0.0000 C.3     1  LIG1        0.0088
@<TRIPOS>BOND
     1     1     2   ar
     2     1     5   ar
     3     1     7    1
     4     2     3   ar
     5     3     4   ar
     6     4     5   ar
     7     4     6    1
     8     7     8    1
     9     7    25    1
    10     7    28    1
    11     8     9    1
    12     9    10    1
    13     9    23    1
    14     9    29    1
    15    10    11   am
    16    10    22    2
    17    11    12    1
    18    12    13    1
    19    13    14   ar
    20    13    21   ar
    21    14    15   ar
    22    15    16   ar
    23    15    19    1
    24    16    17    1
    25    16    20   ar
    26    17    18    1
    27    18    19    1
    28    20    21   ar
    29    23    24    1
    30    24    25    1
    31    24    26    1
    32    26    27    1
    33    27    28    1
    34    27    29    1
