@<TRIPOS>MOLECULE
36878_ChemDiv_C324-0997
 31 34 0 0 0
SMALL
GASTEIGER
Energy = 0

@<TRIPOS>ATOM
      1 S           2.9710   -0.8170    0.0000 S.O2    1  LIG1        0.0657
      2 C           3.6460   -1.5630    0.0000 C.ar    1  LIG1        0.1525
      3 C           4.6380   -1.5630    0.0000 C.ar    1  LIG1        0.1006
      4 N           4.9540   -2.5130    0.0000 N.ar    1  LIG1       -0.1513
      5 N           4.1540   -3.0960    0.0000 N.ar    1  LIG1       -0.1513
      6 C           3.3330   -2.5130    0.0000 C.ar    1  LIG1        0.1006
      7 C           2.3790   -2.8210    0.0000 C.3     1  LIG1        0.0555
      8 C           5.2290   -0.7420    0.0000 C.3     1  LIG1        0.0555
      9 N           2.3040   -0.0750    0.0000 N.3     1  LIG1       -0.1554
     10 C           1.3250   -0.2880    0.0000 C.3     1  LIG1        0.0963
     11 C           0.6500    0.4580    0.0000 C.3     1  LIG1        0.0283
     12 C           0.9670    1.4000    0.0000 C.3     1  LIG1        0.0796
     13 C           0.3000    2.1540    0.0000 C.2     1  LIG1        0.2252
     14 N          -0.6750    1.9580    0.0000 N.am    1  LIG1       -0.2795
     15 C          -1.3380    2.7000    0.0000 C.3     1  LIG1        0.0934
     16 C          -2.3130    2.5040    0.0000 C.3     1  LIG1        0.0219
     17 C          -2.6330    1.5460    0.0000 C.3     1  LIG1        0.0078
     18 C          -3.6170    1.3500    0.0000 C.3     1  LIG1        0.0265
     19 C          -3.9380    0.3960    0.0000 C.ar    1  LIG1       -0.0222
     20 C          -3.2790   -0.3500    0.0000 C.ar    1  LIG1       -0.0043
     21 C          -3.6000   -1.3000    0.0000 C.ar    1  LIG1       -0.0003
     22 C          -4.5670   -1.5040    0.0000 C.ar    1  LIG1       -0.0000
     23 C          -5.2330   -0.7580    0.0000 C.ar    1  LIG1       -0.0003
     24 C          -4.9210    0.1960    0.0000 C.ar    1  LIG1       -0.0043
     25 C          -1.9750    0.8040    0.0000 C.3     1  LIG1        0.0219
     26 C          -0.9960    1.0040    0.0000 C.3     1  LIG1        0.0934
     27 O           0.6210    3.1000    0.0000 O.2     1  LIG1       -0.2749
     28 C           1.9420    1.6130    0.0000 C.3     1  LIG1        0.0283
     29 C           2.6080    0.8790    0.0000 C.3     1  LIG1        0.0963
     30 O           2.2290   -1.4830    0.0000 O.2     1  LIG1       -0.1527
     31 O           3.7170   -0.1460    0.0000 O.2     1  LIG1       -0.1527
@<TRIPOS>BOND
     1     1     2    1
     2     1     9    1
     3     1    30    2
     4     1    31    2
     5     2     3   ar
     6     2     6   ar
     7     3     4   ar
     8     3     8    1
     9     4     5   ar
    10     5     6   ar
    11     6     7    1
    12     9    10    1
    13     9    29    1
    14    10    11    1
    15    11    12    1
    16    12    13    1
    17    12    28    1
    18    13    14   am
    19    13    27    2
    20    14    15    1
    21    14    26    1
    22    15    16    1
    23    16    17    1
    24    17    18    1
    25    17    25    1
    26    18    19    1
    27    19    20   ar
    28    19    24   ar
    29    20    21   ar
    30    21    22   ar
    31    22    23   ar
    32    23    24   ar
    33    25    26    1
    34    28    29    1
