@<TRIPOS>MOLECULE
36874_ChemDiv_C320-0431
 29 33 0 0 0
SMALL
GASTEIGER
Energy = 0

@<TRIPOS>ATOM
      1 N           1.6670   -3.6670    0.0000 N.ar    1  LIG1       -0.3272
      2 C           1.7130   -2.6710    0.0000 C.ar    1  LIG1        0.0600
      3 C           0.7710   -2.3170    0.0000 C.ar    1  LIG1        0.0185
      4 C           0.1500   -3.0960    0.0000 C.ar    1  LIG1        0.0172
      5 C           0.7040   -3.9250    0.0000 C.ar    1  LIG1        0.0599
      6 C           0.2580   -4.8250    0.0000 C.ar    1  LIG1        0.0172
      7 C          -0.7460   -4.8830    0.0000 C.ar    1  LIG1        0.0015
      8 C          -1.2960   -4.0500    0.0000 C.ar    1  LIG1        0.0001
      9 C          -0.8500   -3.1540    0.0000 C.ar    1  LIG1        0.0015
     10 C           0.6040   -1.3210    0.0000 C.ar    1  LIG1        0.0181
     11 C           1.3790   -0.6830    0.0000 C.ar    1  LIG1        0.0735
     12 N           1.2250    0.3040    0.0000 N.am    1  LIG1       -0.1789
     13 C           0.2960    0.6670    0.0000 C.2     1  LIG1        0.2500
     14 C           0.1420    1.6580    0.0000 C.3     1  LIG1        0.1150
     15 C          -0.7920    2.0330    0.0000 C.ar    1  LIG1        0.0056
     16 C          -1.6880    1.5920    0.0000 C.ar    1  LIG1        0.0721
     17 N          -2.3830    2.3210    0.0000 N.ar    1  LIG1       -0.3243
     18 C          -1.9130    3.1830    0.0000 C.ar    1  LIG1        0.0597
     19 C          -0.9330    3.0170    0.0000 C.ar    1  LIG1        0.0137
     20 C          -0.3040    3.7920    0.0000 C.ar    1  LIG1        0.0012
     21 C          -0.6540    4.7170    0.0000 C.ar    1  LIG1        0.0001
     22 C          -1.6250    4.8830    0.0000 C.ar    1  LIG1        0.0015
     23 C          -2.2630    4.1130    0.0000 C.ar    1  LIG1        0.0172
     24 C          -3.3880    2.2000    0.0000 C.3     1  LIG1        0.1305
     25 O          -0.4880    0.0460    0.0000 O.2     1  LIG1       -0.2726
     26 C           2.3210   -1.0460    0.0000 C.ar    1  LIG1        0.0181
     27 C           2.4880   -2.0330    0.0000 C.ar    1  LIG1        0.0185
     28 C           2.4500   -4.2920    0.0000 C.3     1  LIG1        0.1061
     29 C           3.3830   -3.9290    0.0000 C.3     1  LIG1        0.0265
@<TRIPOS>BOND
     1     1     2   ar
     2     1     5   ar
     3     1    28    1
     4     2     3   ar
     5     2    27   ar
     6     3     4   ar
     7     3    10   ar
     8     4     5   ar
     9     4     9   ar
    10     5     6   ar
    11     6     7   ar
    12     7     8   ar
    13     8     9   ar
    14    10    11   ar
    15    11    12    1
    16    11    26   ar
    17    12    13   am
    18    13    14    1
    19    13    25    2
    20    14    15    1
    21    15    16   ar
    22    15    19   ar
    23    16    17   ar
    24    17    18   ar
    25    17    24    1
    26    18    19   ar
    27    18    23   ar
    28    19    20   ar
    29    20    21   ar
    30    21    22   ar
    31    22    23   ar
    32    26    27   ar
    33    28    29    1
