@<TRIPOS>MOLECULE
36876_ChemDiv_C324-0037
 37 41 0 0 0
SMALL
GASTEIGER
Energy = 0

@<TRIPOS>ATOM
      1 S           3.0330   -2.7130    0.0000 S.O2    1  LIG1        0.0648
      2 N           2.1630   -2.2000    0.0000 N.3     1  LIG1       -0.1555
      3 C           1.3040   -2.7000    0.0000 C.3     1  LIG1        0.0963
      4 C           0.4330   -2.2000    0.0000 C.3     1  LIG1        0.0283
      5 C           0.4330   -1.2000    0.0000 C.3     1  LIG1        0.0796
      6 C          -0.4380   -0.6960    0.0000 C.2     1  LIG1        0.2256
      7 N          -0.4380    0.3040    0.0000 N.am    1  LIG1       -0.2681
      8 C          -1.3040    0.8040    0.0000 C.3     1  LIG1        0.1565
      9 C          -1.3040    1.8040    0.0000 C.3     1  LIG1        0.1612
     10 N          -0.4380    2.3040    0.0000 N.4     1  LIG1        0.3820
     11 C          -0.4380    3.3040    0.0000 C.3     1  LIG1        0.1331
     12 C          -1.3040    3.8040    0.0000 C.ar    1  LIG1        0.0328
     13 C          -2.1670    3.3040    0.0000 C.ar    1  LIG1        0.0024
     14 C          -3.0330    3.8040    0.0000 C.ar    1  LIG1        0.0113
     15 C          -3.0330    4.8000    0.0000 C.ar    1  LIG1        0.0577
     16 C          -2.1670    5.2960    0.0000 C.ar    1  LIG1        0.0113
     17 C          -1.3040    4.8000    0.0000 C.ar    1  LIG1        0.0024
     18 CL         -3.9040    5.3130    0.0000 Cl      1  LIG1       -0.0822
     19 C           0.4170    3.8040    0.0000 C.ar    1  LIG1        0.0328
     20 C           0.4170    4.8000    0.0000 C.ar    1  LIG1        0.0016
     21 C           1.2830    5.2960    0.0000 C.ar    1  LIG1       -0.0001
     22 C           2.1500    4.8000    0.0000 C.ar    1  LIG1       -0.0000
     23 C           2.1500    3.8040    0.0000 C.ar    1  LIG1       -0.0001
     24 C           1.2830    3.3040    0.0000 C.ar    1  LIG1        0.0016
     25 C           0.4170    1.8040    0.0000 C.3     1  LIG1        0.1612
     26 C           0.4170    0.8040    0.0000 C.3     1  LIG1        0.1565
     27 O          -1.2960   -1.1960    0.0000 O.2     1  LIG1       -0.2749
     28 C           1.3040   -0.7000    0.0000 C.3     1  LIG1        0.0283
     29 C           2.1630   -1.2000    0.0000 C.3     1  LIG1        0.0963
     30 C           2.5170   -3.5830    0.0000 C.ar    1  LIG1        0.1413
     31 C           3.0170   -4.4420    0.0000 C.ar    1  LIG1        0.1187
     32 N           2.5170   -5.3130    0.0000 N.ar    1  LIG1       -0.2409
     33 C           1.5170   -5.2960    0.0000 C.ar    1  LIG1        0.0990
     34 C           1.0170   -4.4330    0.0000 C.ar    1  LIG1        0.0221
     35 C           1.5170   -3.5790    0.0000 C.ar    1  LIG1        0.0231
     36 O           3.9000   -3.2170    0.0000 O.2     1  LIG1       -0.1527
     37 O           3.5460   -1.8330    0.0000 O.2     1  LIG1       -0.1527
@<TRIPOS>BOND
     1     1     2    1
     2     1    30    1
     3     1    36    2
     4     1    37    2
     5     2     3    1
     6     2    29    1
     7     3     4    1
     8     4     5    1
     9     5     6    1
    10     5    28    1
    11     6     7   am
    12     6    27    2
    13     7     8    1
    14     7    26    1
    15     8     9    1
    16     9    10    1
    17    10    11    1
    18    10    25    1
    19    11    12    1
    20    11    19    1
    21    12    13   ar
    22    12    17   ar
    23    13    14   ar
    24    14    15   ar
    25    15    16   ar
    26    15    18    1
    27    16    17   ar
    28    19    20   ar
    29    19    24   ar
    30    20    21   ar
    31    21    22   ar
    32    22    23   ar
    33    23    24   ar
    34    25    26    1
    35    28    29    1
    36    30    31   ar
    37    30    35   ar
    38    31    32   ar
    39    32    33   ar
    40    33    34   ar
    41    34    35   ar
