@<TRIPOS>MOLECULE
36882_ChemDiv_C301-3584
 32 36 0 0 0
SMALL
GASTEIGER
Energy = 0

@<TRIPOS>ATOM
      1 C          -1.2170    1.5210    0.0000 C.ar    1  LIG1        0.1954
      2 N          -0.3460    2.0130    0.0000 N.ar    1  LIG1       -0.2140
      3 N          -0.2500    3.0040    0.0000 N.ar    1  LIG1       -0.1684
      4 C           0.7330    3.2130    0.0000 C.ar    1  LIG1        0.0805
      5 C           1.2330    2.3460    0.0000 C.ar    1  LIG1        0.0312
      6 C           0.5630    1.6040    0.0000 C.ar    1  LIG1        0.0638
      7 C           1.5210    1.3460    0.0000 C.3     1  LIG1        0.0522
      8 C           1.1420    4.1210    0.0000 C.3     1  LIG1        0.0540
      9 C          -1.2170    0.5080    0.0000 C.ar    1  LIG1        0.1679
     10 N          -2.0960    0.0080    0.0000 N.ar    1  LIG1       -0.2260
     11 C          -2.9580    0.5080    0.0000 C.ar    1  LIG1        0.1004
     12 C          -2.9580    1.5210    0.0000 C.ar    1  LIG1        0.1007
     13 N          -2.0830    2.0250    0.0000 N.ar    1  LIG1       -0.2227
     14 C          -3.8210    2.0210    0.0000 C.ar    1  LIG1        0.0207
     15 C          -4.6830    1.5130    0.0000 C.ar    1  LIG1        0.0016
     16 C          -4.6830    0.5130    0.0000 C.ar    1  LIG1        0.0016
     17 C          -3.8210    0.0170    0.0000 C.ar    1  LIG1        0.0207
     18 N          -0.3540    0.0080    0.0000 N.pl3   1  LIG1       -0.2878
     19 C          -0.3540   -1.0000    0.0000 C.3     1  LIG1        0.1114
     20 C           0.5080   -1.5000    0.0000 C.3     1  LIG1        0.1173
     21 N           1.3710   -1.0040    0.0000 N.3     1  LIG1       -0.1516
     22 S           2.2330   -1.5130    0.0000 S.O2    1  LIG1        0.0691
     23 C           3.0960   -2.0130    0.0000 C.ar    1  LIG1        0.1521
     24 S           3.2000   -2.9960    0.0000 S.2     1  LIG1       -0.0604
     25 C           4.1790   -3.2080    0.0000 C.ar    1  LIG1        0.0651
     26 C           4.6790   -2.3460    0.0000 C.ar    1  LIG1        0.0152
     27 C           4.0130   -1.6040    0.0000 C.ar    1  LIG1        0.0276
     28 BR          4.5790   -4.1210    0.0000 Br      1  LIG1       -0.0419
     29 O           3.1040   -1.0210    0.0000 O.2     1  LIG1       -0.1523
     30 O           2.2330   -2.5130    0.0000 O.2     1  LIG1       -0.1523
     31 C           1.3790   -0.0040    0.0000 C.3     1  LIG1        0.1173
     32 C           0.5170    0.5000    0.0000 C.3     1  LIG1        0.1114
@<TRIPOS>BOND
     1     1     2    1
     2     1     9   ar
     3     1    13   ar
     4     2     3   ar
     5     2     6   ar
     6     3     4   ar
     7     4     5   ar
     8     4     8    1
     9     5     6   ar
    10     6     7    1
    11     9    10   ar
    12     9    18    1
    13    10    11   ar
    14    11    12   ar
    15    11    17   ar
    16    12    13   ar
    17    12    14   ar
    18    14    15   ar
    19    15    16   ar
    20    16    17   ar
    21    18    19    1
    22    18    32    1
    23    19    20    1
    24    20    21    1
    25    21    22    1
    26    21    31    1
    27    22    23    1
    28    22    29    2
    29    22    30    2
    30    23    24   ar
    31    23    27   ar
    32    24    25   ar
    33    25    26   ar
    34    25    28    1
    35    26    27   ar
    36    31    32    1
