@<TRIPOS>MOLECULE
36889_ChemDiv_C301-0662
 23 26 0 0 0
SMALL
GASTEIGER
Energy = 0

@<TRIPOS>ATOM
      1 N          -0.8960   -2.3460    0.0000 N.ar    1  LIG1       -0.1811
      2 C          -0.8960   -3.3500    0.0000 C.ar    1  LIG1        0.2554
      3 N          -1.8460   -3.6580    0.0000 N.ar    1  LIG1       -0.1861
      4 C          -2.4330   -2.8460    0.0000 C.ar    1  LIG1        0.2226
      5 N          -1.8460   -2.0380    0.0000 N.ar    1  LIG1       -0.1386
      6 N          -0.0290   -3.8460    0.0000 N.ar    1  LIG1       -0.2142
      7 C           0.8380   -3.3500    0.0000 C.ar    1  LIG1        0.0653
      8 C           0.8380   -2.3460    0.0000 C.ar    1  LIG1        0.0492
      9 C          -0.0290   -1.8380    0.0000 C.ar    1  LIG1        0.1376
     10 N          -0.0290   -0.8380    0.0000 N.pl3   1  LIG1       -0.2896
     11 C          -0.8960   -0.3380    0.0000 C.3     1  LIG1        0.1137
     12 C          -0.8880    0.6630    0.0000 C.3     1  LIG1        0.1153
     13 N          -0.0210    1.1630    0.0000 N.am    1  LIG1       -0.2701
     14 C          -0.0170    2.1580    0.0000 C.2     1  LIG1        0.2839
     15 C           0.8500    2.6540    0.0000 C.ar    1  LIG1        0.1987
     16 O           1.7580    2.2460    0.0000 O.2     1  LIG1       -0.4458
     17 C           2.4290    2.9830    0.0000 C.ar    1  LIG1        0.1798
     18 C           1.9330    3.8500    0.0000 C.ar    1  LIG1        0.0440
     19 C           0.9580    3.6460    0.0000 C.ar    1  LIG1        0.0455
     20 O          -0.8750    2.6630    0.0000 O.2     1  LIG1       -0.2666
     21 C           0.8460    0.6580    0.0000 C.3     1  LIG1        0.1153
     22 C           0.8420   -0.3380    0.0000 C.3     1  LIG1        0.1137
     23 C           1.7080   -3.8460    0.0000 C.3     1  LIG1        0.0523
@<TRIPOS>BOND
     1     1     2   ar
     2     1     5   ar
     3     1     9   ar
     4     2     3   ar
     5     2     6   ar
     6     3     4   ar
     7     4     5   ar
     8     6     7   ar
     9     7     8   ar
    10     7    23    1
    11     8     9   ar
    12     9    10    1
    13    10    11    1
    14    10    22    1
    15    11    12    1
    16    12    13    1
    17    13    14   am
    18    13    21    1
    19    14    15    1
    20    14    20    2
    21    15    16   ar
    22    15    19   ar
    23    16    17   ar
    24    17    18   ar
    25    18    19   ar
    26    21    22    1
