@<TRIPOS>MOLECULE
36888_ChemDiv_C301-4277
 25 28 0 0 0
SMALL
GASTEIGER
Energy = 0

@<TRIPOS>ATOM
      1 C          -0.9960    2.3630    0.0000 C.ar    1  LIG1        0.2495
      2 N          -0.7380    3.3290    0.0000 N.ar    1  LIG1       -0.1070
      3 N           0.2630    3.3750    0.0000 N.ar    1  LIG1       -0.1051
      4 C           0.6170    2.4420    0.0000 C.ar    1  LIG1        0.2841
      5 O          -0.1580    1.8210    0.0000 O.2     1  LIG1       -0.4144
      6 C           1.5790    2.1750    0.0000 C.3     1  LIG1        0.2268
      7 N           1.8420    1.2130    0.0000 N.4     1  LIG1        0.3873
      8 C           1.1170    0.4960    0.0000 C.3     1  LIG1        0.1612
      9 C           1.3750   -0.4630    0.0000 C.3     1  LIG1        0.1555
     10 N           2.3420   -0.7170    0.0000 N.pl3   1  LIG1       -0.2824
     11 C           2.5960   -1.6790    0.0000 C.ar    1  LIG1        0.1320
     12 N           3.5540   -1.9460    0.0000 N.ar    1  LIG1       -0.2292
     13 C           3.8080   -2.9080    0.0000 C.ar    1  LIG1        0.1003
     14 C           3.0920   -3.6250    0.0000 C.ar    1  LIG1        0.0208
     15 C           2.1290   -3.3540    0.0000 C.ar    1  LIG1        0.0045
     16 C           1.8790   -2.3920    0.0000 C.ar    1  LIG1        0.0343
     17 C           3.0540   -0.0170    0.0000 C.3     1  LIG1        0.1555
     18 C           2.7960    0.9540    0.0000 C.3     1  LIG1        0.1612
     19 C          -1.9290    2.0040    0.0000 C.ar    1  LIG1        0.0512
     20 C          -2.7080    2.6420    0.0000 C.ar    1  LIG1       -0.0173
     21 C          -2.5420    3.6290    0.0000 C.3     1  LIG1        0.0312
     22 C          -3.6420    2.2830    0.0000 C.ar    1  LIG1       -0.0041
     23 C          -3.8130    1.3040    0.0000 C.ar    1  LIG1       -0.0003
     24 C          -3.0170    0.6670    0.0000 C.ar    1  LIG1        0.0001
     25 C          -2.0880    1.0250    0.0000 C.ar    1  LIG1        0.0044
@<TRIPOS>BOND
     1     1     2   ar
     2     1     5   ar
     3     1    19    1
     4     2     3   ar
     5     3     4   ar
     6     4     5   ar
     7     4     6    1
     8     6     7    1
     9     7     8    1
    10     7    18    1
    11     8     9    1
    12     9    10    1
    13    10    11    1
    14    10    17    1
    15    11    12   ar
    16    11    16   ar
    17    12    13   ar
    18    13    14   ar
    19    14    15   ar
    20    15    16   ar
    21    17    18    1
    22    19    20   ar
    23    19    25   ar
    24    20    21    1
    25    20    22   ar
    26    22    23   ar
    27    23    24   ar
    28    24    25   ar
