@<TRIPOS>MOLECULE
36880_ChemDiv_C324-1194
 30 33 0 0 0
SMALL
GASTEIGER
Energy = 0

@<TRIPOS>ATOM
      1 S           2.2250   -1.3830    0.0000 S.O2    1  LIG1        0.0676
      2 C           3.0960   -1.8920    0.0000 C.ar    1  LIG1        0.1715
      3 C           3.3040   -2.8750    0.0000 C.ar    1  LIG1        0.1729
      4 O           4.2920   -2.9830    0.0000 O.2     1  LIG1       -0.3567
      5 N           4.7080   -2.0830    0.0000 N.ar    1  LIG1       -0.0803
      6 C           3.9670   -1.4040    0.0000 C.ar    1  LIG1        0.1192
      7 C           4.0750   -0.4040    0.0000 C.3     1  LIG1        0.0571
      8 C           2.6380   -3.6210    0.0000 C.3     1  LIG1        0.0768
      9 N           1.3420   -0.8750    0.0000 N.3     1  LIG1       -0.1432
     10 C           0.5000   -1.3750    0.0000 C.3     1  LIG1        0.1585
     11 C          -0.3710   -0.8750    0.0000 C.3     1  LIG1        0.1587
     12 N          -0.3710    0.1210    0.0000 N.4     1  LIG1        0.3815
     13 C          -1.2380    0.6290    0.0000 C.3     1  LIG1        0.1331
     14 C          -2.1000    0.1250    0.0000 C.ar    1  LIG1        0.0328
     15 C          -2.1000   -0.8710    0.0000 C.ar    1  LIG1        0.0024
     16 C          -2.9670   -1.3670    0.0000 C.ar    1  LIG1        0.0113
     17 C          -3.8290   -0.8710    0.0000 C.ar    1  LIG1        0.0577
     18 C          -3.8290    0.1250    0.0000 C.ar    1  LIG1        0.0113
     19 C          -2.9670    0.6290    0.0000 C.ar    1  LIG1        0.0024
     20 CL         -4.7130   -1.3670    0.0000 Cl      1  LIG1       -0.0822
     21 C          -1.2380    1.6290    0.0000 C.ar    1  LIG1        0.0328
     22 C          -2.1040    2.1250    0.0000 C.ar    1  LIG1        0.0016
     23 C          -2.1040    3.1250    0.0000 C.ar    1  LIG1       -0.0001
     24 C          -1.2380    3.6250    0.0000 C.ar    1  LIG1       -0.0000
     25 C          -0.3830    3.1250    0.0000 C.ar    1  LIG1       -0.0001
     26 C          -0.3830    2.1250    0.0000 C.ar    1  LIG1        0.0016
     27 C           0.5000    0.6250    0.0000 C.3     1  LIG1        0.1587
     28 C           1.3420    0.1210    0.0000 C.3     1  LIG1        0.1585
     29 O           1.7080   -2.2580    0.0000 O.2     1  LIG1       -0.1526
     30 O           2.7380   -0.5080    0.0000 O.2     1  LIG1       -0.1526
@<TRIPOS>BOND
     1     1     2    1
     2     1     9    1
     3     1    29    2
     4     1    30    2
     5     2     3   ar
     6     2     6   ar
     7     3     4   ar
     8     3     8    1
     9     4     5   ar
    10     5     6   ar
    11     6     7    1
    12     9    10    1
    13     9    28    1
    14    10    11    1
    15    11    12    1
    16    12    13    1
    17    12    27    1
    18    13    14    1
    19    13    21    1
    20    14    15   ar
    21    14    19   ar
    22    15    16   ar
    23    16    17   ar
    24    17    18   ar
    25    17    20    1
    26    18    19   ar
    27    21    22   ar
    28    21    26   ar
    29    22    23   ar
    30    23    24   ar
    31    24    25   ar
    32    25    26   ar
    33    27    28    1
