@<TRIPOS>MOLECULE
36886_ChemDiv_C301-3742
 28 31 0 0 0
SMALL
GASTEIGER
Energy = 0

@<TRIPOS>ATOM
      1 S          -0.8540    0.0460    0.0000 S.O2    1  LIG1        0.0691
      2 C          -1.8540    0.0460    0.0000 C.ar    1  LIG1        0.1918
      3 C          -2.5630    0.7580    0.0000 C.ar    1  LIG1        0.2861
      4 N          -3.5210    0.4920    0.0000 N.ar    1  LIG1       -0.2509
      5 C          -3.7790   -0.4710    0.0000 C.ar    1  LIG1        0.1815
      6 N          -3.0750   -1.1790    0.0000 N.ar    1  LIG1       -0.2249
      7 C          -2.1130   -0.9250    0.0000 C.ar    1  LIG1        0.0847
      8 C          -1.4080   -1.6330    0.0000 C.3     1  LIG1        0.0538
      9 S          -4.7920   -0.5290    0.0000 S.2     1  LIG1       -0.0479
     10 C          -5.1420    0.4000    0.0000 C.ar    1  LIG1        0.0574
     11 C          -4.3670    1.0290    0.0000 C.ar    1  LIG1        0.0919
     12 O          -2.3040    1.7170    0.0000 O.2     1  LIG1       -0.2651
     13 N           0.1460    0.0460    0.0000 N.3     1  LIG1       -0.1519
     14 C           0.6380   -0.8210    0.0000 C.3     1  LIG1        0.1155
     15 C           1.6380   -0.8290    0.0000 C.3     1  LIG1        0.0906
     16 N           2.1380    0.0330    0.0000 N.pl3   1  LIG1       -0.3062
     17 C           3.1380    0.0290    0.0000 C.ar    1  LIG1        0.0476
     18 C           3.6380   -0.8330    0.0000 C.ar    1  LIG1        0.0103
     19 C           4.6380   -0.8460    0.0000 C.ar    1  LIG1       -0.0206
     20 C           5.1380    0.0290    0.0000 C.ar    1  LIG1       -0.0042
     21 C           4.6380    0.8960    0.0000 C.ar    1  LIG1        0.0009
     22 C           3.6380    0.8960    0.0000 C.ar    1  LIG1        0.0145
     23 C           5.1330   -1.7130    0.0000 C.3     1  LIG1        0.0311
     24 C           1.6460    0.9080    0.0000 C.3     1  LIG1        0.1099
     25 C           0.6380    0.9080    0.0000 C.3     1  LIG1        0.1172
     26 C           2.1380   -1.7000    0.0000 C.3     1  LIG1        0.0230
     27 O          -0.5960    1.0170    0.0000 O.2     1  LIG1       -0.1526
     28 O          -0.3630   -0.8210    0.0000 O.2     1  LIG1       -0.1526
@<TRIPOS>BOND
     1     1     2    1
     2     1    13    1
     3     1    27    2
     4     1    28    2
     5     2     3   ar
     6     2     7   ar
     7     3     4   ar
     8     3    12    2
     9     4     5   ar
    10     4    11   ar
    11     5     6   ar
    12     5     9   ar
    13     6     7   ar
    14     7     8    1
    15     9    10   ar
    16    10    11   ar
    17    13    14    1
    18    13    25    1
    19    14    15    1
    20    15    16    1
    21    15    26    1
    22    16    17    1
    23    16    24    1
    24    17    18   ar
    25    17    22   ar
    26    18    19   ar
    27    19    20   ar
    28    19    23    1
    29    20    21   ar
    30    21    22   ar
    31    24    25    1
