@<TRIPOS>MOLECULE
36884_ChemDiv_C301-3587
 34 38 0 0 0
SMALL
GASTEIGER
Energy = 0

@<TRIPOS>ATOM
      1 C          -1.7130    1.2130    0.0000 C.ar    1  LIG1        0.1954
      2 N          -0.8420    1.7130    0.0000 N.ar    1  LIG1       -0.2140
      3 N          -0.7420    2.7040    0.0000 N.ar    1  LIG1       -0.1684
      4 C           0.2330    2.9080    0.0000 C.ar    1  LIG1        0.0805
      5 C           0.7330    2.0460    0.0000 C.ar    1  LIG1        0.0312
      6 C           0.0670    1.3040    0.0000 C.ar    1  LIG1        0.0638
      7 C           1.0290    1.0460    0.0000 C.3     1  LIG1        0.0522
      8 C           0.6420    3.8210    0.0000 C.3     1  LIG1        0.0540
      9 C          -1.7130    0.2040    0.0000 C.ar    1  LIG1        0.1679
     10 N          -2.5920   -0.2960    0.0000 N.ar    1  LIG1       -0.2260
     11 C          -3.4630    0.2040    0.0000 C.ar    1  LIG1        0.1004
     12 C          -3.4540    1.2130    0.0000 C.ar    1  LIG1        0.1007
     13 N          -2.5830    1.7290    0.0000 N.ar    1  LIG1       -0.2227
     14 C          -4.3250    1.7130    0.0000 C.ar    1  LIG1        0.0207
     15 C          -5.1920    1.2130    0.0000 C.ar    1  LIG1        0.0016
     16 C          -5.1920    0.2130    0.0000 C.ar    1  LIG1        0.0016
     17 C          -4.3250   -0.2880    0.0000 C.ar    1  LIG1        0.0207
     18 N          -0.8460   -0.3000    0.0000 N.pl3   1  LIG1       -0.2878
     19 C          -0.8460   -1.3000    0.0000 C.3     1  LIG1        0.1114
     20 C           0.0040   -1.8000    0.0000 C.3     1  LIG1        0.1173
     21 N           0.8790   -1.3170    0.0000 N.3     1  LIG1       -0.1520
     22 S           1.7420   -1.8170    0.0000 S.O2    1  LIG1        0.0634
     23 C           2.6040   -2.3170    0.0000 C.ar    1  LIG1        0.1219
     24 C           3.4580   -1.8170    0.0000 C.ar    1  LIG1        0.0153
     25 C           4.3210   -2.3170    0.0000 C.ar    1  LIG1       -0.0245
     26 C           4.3210   -3.3170    0.0000 C.ar    1  LIG1       -0.0257
     27 C           3.4580   -3.8170    0.0000 C.ar    1  LIG1       -0.0032
     28 C           2.5960   -3.3170    0.0000 C.ar    1  LIG1        0.0196
     29 C           5.1880   -3.8170    0.0000 C.3     1  LIG1        0.0307
     30 C           5.1880   -1.8170    0.0000 C.3     1  LIG1        0.0307
     31 O           1.7330   -2.8170    0.0000 O.2     1  LIG1       -0.1528
     32 O           2.6130   -1.3250    0.0000 O.2     1  LIG1       -0.1528
     33 C           0.8830   -0.3130    0.0000 C.3     1  LIG1        0.1173
     34 C           0.0210    0.2000    0.0000 C.3     1  LIG1        0.1114
@<TRIPOS>BOND
     1     1     2    1
     2     1     9   ar
     3     1    13   ar
     4     2     3   ar
     5     2     6   ar
     6     3     4   ar
     7     4     5   ar
     8     4     8    1
     9     5     6   ar
    10     6     7    1
    11     9    10   ar
    12     9    18    1
    13    10    11   ar
    14    11    12   ar
    15    11    17   ar
    16    12    13   ar
    17    12    14   ar
    18    14    15   ar
    19    15    16   ar
    20    16    17   ar
    21    18    19    1
    22    18    34    1
    23    19    20    1
    24    20    21    1
    25    21    22    1
    26    21    33    1
    27    22    23    1
    28    22    31    2
    29    22    32    2
    30    23    24   ar
    31    23    28   ar
    32    24    25   ar
    33    25    26   ar
    34    25    30    1
    35    26    27   ar
    36    26    29    1
    37    27    28   ar
    38    33    34    1
