@<TRIPOS>MOLECULE
36881_ChemDiv_C301-0505
 23 25 0 0 0
SMALL
GASTEIGER
Energy = 0

@<TRIPOS>ATOM
      1 N          -2.4540   -0.4500    0.0000 N.ar    1  LIG1       -0.1600
      2 C          -1.5920    0.0580    0.0000 C.ar    1  LIG1        0.2617
      3 C          -0.7290   -0.4500    0.0000 C.ar    1  LIG1       -0.0390
      4 N           0.1500    0.0580    0.0000 N.pl3   1  LIG1       -0.5312
      5 S           0.1420    1.0580    0.0000 S.O2    1  LIG1       -0.0576
      6 C           1.1130    0.8000    0.0000 C.ar    1  LIG1        0.0902
      7 C           1.8080    1.5000    0.0000 C.ar    1  LIG1        0.0291
      8 C           2.7630    1.2540    0.0000 C.ar    1  LIG1        0.0694
      9 C           3.0290    0.2880    0.0000 C.ar    1  LIG1        0.0683
     10 C           2.3250   -0.4250    0.0000 C.ar    1  LIG1        0.0135
     11 C           1.3580   -0.1670    0.0000 C.ar    1  LIG1        0.0178
     12 CL          3.9920    0.0290    0.0000 Cl      1  LIG1       -0.0814
     13 CL          3.4750    1.9540    0.0000 Cl      1  LIG1       -0.0813
     14 O          -0.7170    1.5580    0.0000 O.2     1  LIG1       -0.1842
     15 O           1.0080    1.5580    0.0000 O.2     1  LIG1       -0.1842
     16 C          -0.7290   -1.4540    0.0000 C.ar    1  LIG1        0.0450
     17 N          -1.5920   -1.9460    0.0000 N.ar    1  LIG1       -0.2159
     18 C          -2.4540   -1.4540    0.0000 C.ar    1  LIG1        0.2568
     19 N          -3.4130   -1.7540    0.0000 N.ar    1  LIG1       -0.1861
     20 C          -3.9960   -0.9380    0.0000 C.ar    1  LIG1        0.2227
     21 N          -3.4130   -0.1330    0.0000 N.ar    1  LIG1       -0.1371
     22 C           0.1500   -1.9500    0.0000 C.3     1  LIG1        0.0504
     23 O          -1.5920    1.0630    0.0000 O.3     1  LIG1       -0.2670
@<TRIPOS>BOND
     1     1     2   ar
     2     1    18   ar
     3     1    21   ar
     4     2     3   ar
     5     2    23    1
     6     3     4    1
     7     3    16   ar
     8     4     5    1
     9     5     6    1
    10     5    14    2
    11     5    15    2
    12     6     7   ar
    13     6    11   ar
    14     7     8   ar
    15     8     9   ar
    16     8    13    1
    17     9    10   ar
    18     9    12    1
    19    10    11   ar
    20    16    17   ar
    21    16    22    1
    22    17    18   ar
    23    18    19   ar
    24    19    20   ar
    25    20    21   ar
