@<TRIPOS>MOLECULE
36887_ChemDiv_C301-0661
 26 29 0 0 0
SMALL
GASTEIGER
Energy = 0

@<TRIPOS>ATOM
      1 N          -0.5460   -3.2420    0.0000 N.ar    1  LIG1       -0.1811
      2 C           0.3250   -2.7330    0.0000 C.ar    1  LIG1        0.1382
      3 N           0.3250   -1.7290    0.0000 N.pl3   1  LIG1       -0.2769
      4 C           1.1960   -1.2330    0.0000 C.3     1  LIG1        0.1791
      5 C           1.2000   -0.2380    0.0000 C.2     1  LIG1        0.2516
      6 N           0.3330    0.2670    0.0000 N.am    1  LIG1       -0.2268
      7 C          -0.5380   -0.2330    0.0000 C.2     1  LIG1        0.2516
      8 C          -0.5420   -1.2330    0.0000 C.3     1  LIG1        0.1791
      9 O          -1.4000    0.2750    0.0000 O.2     1  LIG1       -0.2726
     10 C           0.3380    1.2710    0.0000 C.3     1  LIG1        0.1056
     11 C           1.2040    1.7630    0.0000 C.3     1  LIG1        0.0483
     12 C           1.2040    2.7580    0.0000 C.ar    1  LIG1       -0.0205
     13 C           2.0710    3.2500    0.0000 C.ar    1  LIG1       -0.0042
     14 C           2.0750    4.2460    0.0000 C.ar    1  LIG1       -0.0003
     15 C           1.2130    4.7460    0.0000 C.ar    1  LIG1       -0.0000
     16 C           0.3460    4.2500    0.0000 C.ar    1  LIG1       -0.0003
     17 C           0.3460    3.2580    0.0000 C.ar    1  LIG1       -0.0042
     18 O           2.0630    0.2580    0.0000 O.2     1  LIG1       -0.2726
     19 C           1.1920   -3.2420    0.0000 C.ar    1  LIG1        0.0492
     20 C           1.1920   -4.2460    0.0000 C.ar    1  LIG1        0.0653
     21 N           0.3250   -4.7420    0.0000 N.ar    1  LIG1       -0.2142
     22 C          -0.5460   -4.2460    0.0000 C.ar    1  LIG1        0.2554
     23 N          -1.4960   -4.5540    0.0000 N.ar    1  LIG1       -0.1861
     24 C          -2.0790   -3.7380    0.0000 C.ar    1  LIG1        0.2226
     25 N          -1.4960   -2.9330    0.0000 N.ar    1  LIG1       -0.1386
     26 C           2.0580   -4.7460    0.0000 C.3     1  LIG1        0.0523
@<TRIPOS>BOND
     1     1     2   ar
     2     1    22   ar
     3     1    25   ar
     4     2     3    1
     5     2    19   ar
     6     3     4    1
     7     3     8    1
     8     4     5    1
     9     5     6   am
    10     5    18    2
    11     6     7   am
    12     6    10    1
    13     7     8    1
    14     7     9    2
    15    10    11    1
    16    11    12    1
    17    12    13   ar
    18    12    17   ar
    19    13    14   ar
    20    14    15   ar
    21    15    16   ar
    22    16    17   ar
    23    19    20   ar
    24    20    21   ar
    25    20    26    1
    26    21    22   ar
    27    22    23   ar
    28    23    24   ar
    29    24    25   ar
