@<TRIPOS>MOLECULE
36896_ChemDiv_C301-5476
 18 21 0 0 0
SMALL
GASTEIGER
Energy = 0

@<TRIPOS>ATOM
      1 C           2.1960    0.5080    0.0000 C.ar    1  LIG1        0.2259
      2 C           2.2040   -0.5040    0.0000 C.ar    1  LIG1        0.2259
      3 N           1.3250   -0.9920    0.0000 N.ar    1  LIG1       -0.1871
      4 C           0.4580   -0.5040    0.0000 C.ar    1  LIG1        0.1041
      5 C           0.4630    0.5080    0.0000 C.ar    1  LIG1        0.1070
      6 N           1.3250    1.0210    0.0000 N.ar    1  LIG1       -0.1870
      7 N           1.5460    2.0040    0.0000 N.ar    1  LIG1       -0.0384
      8 N           2.5460    2.0960    0.0000 N.ar    1  LIG1       -0.0222
      9 N           2.9460    1.1790    0.0000 N.ar    1  LIG1       -0.1045
     10 C          -0.4040    1.0040    0.0000 C.ar    1  LIG1        0.0577
     11 C          -1.2670    0.5080    0.0000 C.ar    1  LIG1        0.1403
     12 C          -1.2670   -0.4920    0.0000 C.ar    1  LIG1        0.0385
     13 C          -0.4040   -0.9920    0.0000 C.ar    1  LIG1        0.0239
     14 O          -2.1130    0.9960    0.0000 O.3     1  LIG1       -0.4714
     15 C          -2.9500    0.5130    0.0000 C.3     1  LIG1        0.2525
     16 N           1.5330   -1.9750    0.0000 N.ar    1  LIG1       -0.0384
     17 N           2.5290   -2.0920    0.0000 N.ar    1  LIG1       -0.0222
     18 N           2.9460   -1.1750    0.0000 N.ar    1  LIG1       -0.1045
@<TRIPOS>BOND
     1     1     2   ar
     2     1     6   ar
     3     1     9   ar
     4     2     3   ar
     5     2    18   ar
     6     3     4   ar
     7     3    16   ar
     8     4     5   ar
     9     4    13   ar
    10     5     6   ar
    11     5    10   ar
    12     6     7   ar
    13     7     8   ar
    14     8     9   ar
    15    10    11   ar
    16    11    12   ar
    17    11    14    1
    18    12    13   ar
    19    14    15    1
    20    16    17   ar
    21    17    18   ar
