@<TRIPOS>MOLECULE
36892_ChemDiv_C301-5112
 26 29 0 0 0
SMALL
GASTEIGER
Energy = 0

@<TRIPOS>ATOM
      1 N          -1.8420   -0.8460    0.0000 N.ar    1  LIG1       -0.2149
      2 C          -0.8540   -0.8290    0.0000 C.ar    1  LIG1        0.1846
      3 N          -0.3460    0.0630    0.0000 N.ar    1  LIG1       -0.1272
      4 N           0.6830    0.0710    0.0000 N.ar    1  LIG1       -0.1296
      5 C           1.1960   -0.8170    0.0000 C.ar    1  LIG1        0.1735
      6 C           0.6880   -1.7080    0.0000 C.ar    1  LIG1        0.0381
      7 C          -0.3380   -1.7080    0.0000 C.ar    1  LIG1        0.0404
      8 C          -0.8290   -2.6040    0.0000 C.ar    1  LIG1        0.0032
      9 C          -0.3170   -3.4670    0.0000 C.ar    1  LIG1        0.0001
     10 C           0.7000   -3.4670    0.0000 C.ar    1  LIG1        0.0001
     11 C           1.2080   -2.5830    0.0000 C.ar    1  LIG1        0.0030
     12 N           2.1830   -0.8080    0.0000 N.pl3   1  LIG1       -0.1927
     13 C           2.6750    0.0500    0.0000 C.ar    1  LIG1        0.0724
     14 C           3.6630    0.0500    0.0000 C.ar    1  LIG1        0.0197
     15 C           4.1500    0.9000    0.0000 C.ar    1  LIG1        0.0382
     16 C           3.6460    1.7580    0.0000 C.ar    1  LIG1        0.1388
     17 C           2.6580    1.7460    0.0000 C.ar    1  LIG1        0.0382
     18 C           2.1750    0.8880    0.0000 C.ar    1  LIG1        0.0197
     19 O           4.1330    2.6080    0.0000 O.3     1  LIG1       -0.4714
     20 C           3.6290    3.4710    0.0000 C.3     1  LIG1        0.2525
     21 N          -2.4130   -1.6460    0.0000 N.ar    1  LIG1       -0.1684
     22 C          -3.3500   -1.3500    0.0000 C.ar    1  LIG1        0.0805
     23 C          -3.3670   -0.3630    0.0000 C.ar    1  LIG1        0.0312
     24 C          -2.4250   -0.0460    0.0000 C.ar    1  LIG1        0.0638
     25 C          -2.1330    0.8960    0.0000 C.3     1  LIG1        0.0522
     26 C          -4.1540   -1.9330    0.0000 C.3     1  LIG1        0.0540
@<TRIPOS>BOND
     1     1     2    1
     2     1    21   ar
     3     1    24   ar
     4     2     3   ar
     5     2     7   ar
     6     3     4   ar
     7     4     5   ar
     8     5     6   ar
     9     5    12    1
    10     6     7   ar
    11     6    11   ar
    12     7     8   ar
    13     8     9   ar
    14     9    10   ar
    15    10    11   ar
    16    12    13    1
    17    13    14   ar
    18    13    18   ar
    19    14    15   ar
    20    15    16   ar
    21    16    17   ar
    22    16    19    1
    23    17    18   ar
    24    19    20    1
    25    21    22   ar
    26    22    23   ar
    27    22    26    1
    28    23    24   ar
    29    24    25    1
