@<TRIPOS>MOLECULE
36894_ChemDiv_C301-5295
 18 20 0 0 0
SMALL
GASTEIGER
Energy = 0

@<TRIPOS>ATOM
      1 N           0.5460    1.5880    0.0000 N.ar    1  LIG1       -0.1072
      2 C           0.1420    0.6670    0.0000 C.ar    1  LIG1        0.2497
      3 O           0.8920    0.0000    0.0000 O.2     1  LIG1       -0.4191
      4 C           1.7460    0.5080    0.0000 C.ar    1  LIG1        0.2321
      5 N           1.5420    1.4830    0.0000 N.ar    1  LIG1       -0.1110
      6 C           2.6670    0.1040    0.0000 C.3     1  LIG1        0.1285
      7 C           2.7790   -0.8920    0.0000 C.2     1  LIG1        0.0597
      8 O           3.6920   -1.2830    0.0000 O.co2   1  LIG1       -0.5487
      9 O           1.9750   -1.4830    0.0000 O.co2   1  LIG1       -0.5487
     10 C          -0.8250    0.4500    0.0000 C.ar    1  LIG1        0.0583
     11 C          -1.1290   -0.4880    0.0000 C.ar    1  LIG1        0.0449
     12 C          -2.1040   -0.7080    0.0000 C.ar    1  LIG1        0.1766
     13 C          -2.7750    0.0420    0.0000 C.ar    1  LIG1        0.1764
     14 O          -3.6960   -0.3790    0.0000 O.3     1  LIG1       -0.4346
     15 C          -3.5880   -1.3790    0.0000 C.3     1  LIG1        0.4294
     16 O          -2.6040   -1.5830    0.0000 O.3     1  LIG1       -0.4346
     17 C          -2.4790    0.9790    0.0000 C.ar    1  LIG1        0.0403
     18 C          -1.4960    1.1960    0.0000 C.ar    1  LIG1        0.0080
@<TRIPOS>BOND
     1     1     2   ar
     2     1     5   ar
     3     2     3   ar
     4     2    10    1
     5     3     4   ar
     6     4     5   ar
     7     4     6    1
     8     6     7    1
     9     7     8   ar
    10     7     9   ar
    11    10    11   ar
    12    10    18   ar
    13    11    12   ar
    14    12    13   ar
    15    12    16    1
    16    13    14    1
    17    13    17   ar
    18    14    15    1
    19    15    16    1
    20    17    18   ar
