@<TRIPOS>MOLECULE
36897_ChemDiv_C324-1242
 29 31 0 0 0
SMALL
GASTEIGER
Energy = 0

@<TRIPOS>ATOM
      1 S          -0.9290    0.9250    0.0000 S.O2    1  LIG1        0.0984
      2 N          -0.0670    0.4290    0.0000 N.pl3   1  LIG1       -0.0656
      3 S          -0.0670   -0.5750    0.0000 S.O2    1  LIG1        0.0984
      4 C          -0.0670   -1.5750    0.0000 C.ar    1  LIG1        0.1763
      5 C          -0.8080   -2.2420    0.0000 C.ar    1  LIG1        0.1732
      6 O          -0.4040   -3.1460    0.0000 O.2     1  LIG1       -0.3567
      7 N           0.5790   -3.0460    0.0000 N.ar    1  LIG1       -0.0803
      8 C           0.7920   -2.0710    0.0000 C.ar    1  LIG1        0.1195
      9 C           1.7250   -1.6630    0.0000 C.3     1  LIG1        0.0571
     10 C          -1.7960   -2.0630    0.0000 C.3     1  LIG1        0.0769
     11 O          -1.0670   -0.5750    0.0000 O.2     1  LIG1       -0.1482
     12 O           0.9290   -0.5750    0.0000 O.2     1  LIG1       -0.1482
     13 C           0.8080    0.9290    0.0000 C.ar    1  LIG1        0.1203
     14 C           0.8080    1.9250    0.0000 C.ar    1  LIG1        0.1572
     15 C           1.6710    2.4250    0.0000 C.ar    1  LIG1        0.0377
     16 C           2.5290    1.9250    0.0000 C.ar    1  LIG1        0.0369
     17 C           2.5290    0.9290    0.0000 C.ar    1  LIG1        0.0082
     18 C           1.6710    0.4290    0.0000 C.ar    1  LIG1        0.0208
     19 BR          3.4080    2.4420    0.0000 Br      1  LIG1       -0.0489
     20 F          -0.0670    2.4420    0.0000 F       1  LIG1       -0.2027
     21 C          -1.8000    1.4290    0.0000 C.ar    1  LIG1        0.1763
     22 C          -2.0130    2.4040    0.0000 C.ar    1  LIG1        0.1732
     23 O          -3.0000    2.5040    0.0000 O.2     1  LIG1       -0.3567
     24 N          -3.4130    1.6040    0.0000 N.ar    1  LIG1       -0.0803
     25 C          -2.6670    0.9290    0.0000 C.ar    1  LIG1        0.1195
     26 C          -2.7670   -0.0670    0.0000 C.3     1  LIG1        0.0571
     27 C          -1.3540    3.1500    0.0000 C.3     1  LIG1        0.0769
     28 O          -1.4330    0.0540    0.0000 O.2     1  LIG1       -0.1482
     29 O          -0.4250    1.7960    0.0000 O.2     1  LIG1       -0.1482
@<TRIPOS>BOND
     1     1     2    1
     2     1    21    1
     3     1    28    2
     4     1    29    2
     5     2     3    1
     6     2    13    1
     7     3     4    1
     8     3    11    2
     9     3    12    2
    10     4     5   ar
    11     4     8   ar
    12     5     6   ar
    13     5    10    1
    14     6     7   ar
    15     7     8   ar
    16     8     9    1
    17    13    14   ar
    18    13    18   ar
    19    14    15   ar
    20    14    20    1
    21    15    16   ar
    22    16    17   ar
    23    16    19    1
    24    17    18   ar
    25    21    22   ar
    26    21    25   ar
    27    22    23   ar
    28    22    27    1
    29    23    24   ar
    30    24    25   ar
    31    25    26    1
