@<TRIPOS>MOLECULE
36893_ChemDiv_C301-0912
 30 34 0 0 0
SMALL
GASTEIGER
Energy = 0

@<TRIPOS>ATOM
      1 N          -0.4710   -2.4920    0.0000 N.ar    1  LIG1       -0.1815
      2 C          -0.4710   -3.5170    0.0000 C.ar    1  LIG1        0.2550
      3 N          -1.4080   -3.8330    0.0000 N.ar    1  LIG1       -0.1933
      4 C          -1.9880   -3.0040    0.0000 C.ar    1  LIG1        0.1627
      5 N          -1.4080   -2.1750    0.0000 N.ar    1  LIG1       -0.1465
      6 C          -2.9790   -3.0130    0.0000 C.3     1  LIG1        0.0757
      7 N           0.3750   -4.0290    0.0000 N.ar    1  LIG1       -0.2142
      8 C           1.2330   -3.5170    0.0000 C.ar    1  LIG1        0.0653
      9 C           1.2330   -2.4920    0.0000 C.ar    1  LIG1        0.0492
     10 C           0.3750   -1.9750    0.0000 C.ar    1  LIG1        0.1378
     11 N           0.3750   -0.9670    0.0000 N.pl3   1  LIG1       -0.2822
     12 C           1.2500   -0.4670    0.0000 C.3     1  LIG1        0.1555
     13 C           1.2500    0.5290    0.0000 C.3     1  LIG1        0.1611
     14 N           0.3880    1.0330    0.0000 N.4     1  LIG1        0.3820
     15 C           0.3880    2.0420    0.0000 C.3     1  LIG1        0.1331
     16 C           1.2500    2.5290    0.0000 C.ar    1  LIG1        0.0328
     17 C           2.1130    2.0250    0.0000 C.ar    1  LIG1        0.0016
     18 C           2.9750    2.5250    0.0000 C.ar    1  LIG1       -0.0001
     19 C           2.9750    3.5210    0.0000 C.ar    1  LIG1       -0.0000
     20 C           2.1130    4.0170    0.0000 C.ar    1  LIG1       -0.0001
     21 C           1.2500    3.5210    0.0000 C.ar    1  LIG1        0.0016
     22 C          -0.4750    2.5420    0.0000 C.ar    1  LIG1        0.0328
     23 C          -0.4710    3.5380    0.0000 C.ar    1  LIG1        0.0016
     24 C          -1.3330    4.0290    0.0000 C.ar    1  LIG1       -0.0001
     25 C          -2.1960    3.5380    0.0000 C.ar    1  LIG1       -0.0000
     26 C          -2.1960    2.5420    0.0000 C.ar    1  LIG1       -0.0001
     27 C          -1.3380    2.0420    0.0000 C.ar    1  LIG1        0.0016
     28 C          -0.4880    0.5290    0.0000 C.3     1  LIG1        0.1611
     29 C          -0.4920   -0.4750    0.0000 C.3     1  LIG1        0.1555
     30 C           2.0920   -4.0290    0.0000 C.3     1  LIG1        0.0523
@<TRIPOS>BOND
     1     1     2   ar
     2     1     5   ar
     3     1    10   ar
     4     2     3   ar
     5     2     7   ar
     6     3     4   ar
     7     4     5   ar
     8     4     6    1
     9     7     8   ar
    10     8     9   ar
    11     8    30    1
    12     9    10   ar
    13    10    11    1
    14    11    12    1
    15    11    29    1
    16    12    13    1
    17    13    14    1
    18    14    15    1
    19    14    28    1
    20    15    16    1
    21    15    22    1
    22    16    17   ar
    23    16    21   ar
    24    17    18   ar
    25    18    19   ar
    26    19    20   ar
    27    20    21   ar
    28    22    23   ar
    29    22    27   ar
    30    23    24   ar
    31    24    25   ar
    32    25    26   ar
    33    26    27   ar
    34    28    29    1
