@<TRIPOS>MOLECULE
36908_ChemDiv_C791-0400
 19 21 0 0 0
SMALL
GASTEIGER
Energy = 0

@<TRIPOS>ATOM
      1 N          -0.0420    1.6290    0.0000 N.ar    1  LIG1       -0.2415
      2 N           0.5580    2.4460    0.0000 N.ar    1  LIG1       -0.1672
      3 C          -0.0420    3.2630    0.0000 C.ar    1  LIG1        0.1216
      4 C          -0.9920    2.9460    0.0000 C.ar    1  LIG1        0.0382
      5 C          -0.9920    1.9460    0.0000 C.ar    1  LIG1        0.0799
      6 C          -1.8540    1.4460    0.0000 C.ar    1  LIG1        0.0188
      7 C          -2.7170    1.9460    0.0000 C.ar    1  LIG1        0.0015
      8 C          -2.7170    2.9460    0.0000 C.ar    1  LIG1        0.0001
      9 C          -1.8540    3.4460    0.0000 C.ar    1  LIG1        0.0031
     10 C           0.2790    0.6790    0.0000 C.3     1  LIG1        0.2120
     11 C           1.2420    0.4250    0.0000 C.2     1  LIG1        0.2509
     12 N           1.5000   -0.5330    0.0000 N.am    1  LIG1       -0.2665
     13 C           2.4580   -0.7920    0.0000 C.3     1  LIG1        0.1565
     14 C           2.7130   -1.7630    0.0000 C.3     1  LIG1        0.1608
     15 N           2.0170   -2.4710    0.0000 N.4     1  LIG1        0.3847
     16 C           1.0580   -2.2170    0.0000 C.3     1  LIG1        0.1608
     17 C           0.7920   -1.2540    0.0000 C.3     1  LIG1        0.1565
     18 C           2.2920   -3.4420    0.0000 C.3     1  LIG1        0.2024
     19 O           1.9420    1.1330    0.0000 O.2     1  LIG1       -0.2727
@<TRIPOS>BOND
     1     1     2   ar
     2     1     5   ar
     3     1    10    1
     4     2     3   ar
     5     3     4   ar
     6     4     5   ar
     7     4     9   ar
     8     5     6   ar
     9     6     7   ar
    10     7     8   ar
    11     8     9   ar
    12    10    11    1
    13    11    12   am
    14    11    19    2
    15    12    13    1
    16    12    17    1
    17    13    14    1
    18    14    15    1
    19    15    16    1
    20    15    18    1
    21    16    17    1
