@<TRIPOS>MOLECULE
36906_ChemDiv_C790-0082
 15 16 0 0 0
SMALL
GASTEIGER
Energy = 0

@<TRIPOS>ATOM
      1 N           0.3670   -0.2210    0.0000 N.ar    1  LIG1       -0.2479
      2 N           0.9500    0.5830    0.0000 N.ar    1  LIG1       -0.1734
      3 C           0.3670    1.3960    0.0000 C.ar    1  LIG1        0.0804
      4 C          -0.5830    1.0920    0.0000 C.ar    1  LIG1        0.0325
      5 C          -0.5830    0.0920    0.0000 C.ar    1  LIG1        0.0793
      6 C          -1.4500   -0.4080    0.0000 C.ar    1  LIG1        0.0188
      7 C          -2.3210    0.0920    0.0000 C.ar    1  LIG1        0.0015
      8 C          -2.3210    1.0920    0.0000 C.ar    1  LIG1        0.0001
      9 C          -1.4500    1.5920    0.0000 C.ar    1  LIG1        0.0027
     10 C           0.6750    2.3500    0.0000 C.3     1  LIG1        0.0540
     11 C           0.6750   -1.1790    0.0000 C.3     1  LIG1        0.1412
     12 C           1.6460   -1.3920    0.0000 C.2     1  LIG1        0.0726
     13 O           2.3170   -0.6540    0.0000 O.co2   1  LIG1       -0.5472
     14 O           1.9500   -2.3460    0.0000 O.co2   1  LIG1       -0.5472
     15 C           0.0040   -1.9130    0.0000 C.3     1  LIG1        0.0325
@<TRIPOS>BOND
     1     1     2   ar
     2     1     5   ar
     3     1    11    1
     4     2     3   ar
     5     3     4   ar
     6     3    10    1
     7     4     5   ar
     8     4     9   ar
     9     5     6   ar
    10     6     7   ar
    11     7     8   ar
    12     8     9   ar
    13    11    12    1
    14    11    15    1
    15    12    13   ar
    16    12    14   ar
