@<TRIPOS>MOLECULE
36902_ChemDiv_C434-0059
 23 25 0 0 0
SMALL
GASTEIGER
Energy = 0

@<TRIPOS>ATOM
      1 C           0.8290    2.2380    0.0000 C.ar    1  LIG1        0.1142
      2 C           0.1670    1.4830    0.0000 C.ar    1  LIG1        0.0891
      3 N          -0.7580    1.8830    0.0000 N.ar    1  LIG1       -0.2411
      4 N          -0.6670    2.8710    0.0000 N.ar    1  LIG1       -0.1670
      5 C           0.3000    3.1080    0.0000 C.ar    1  LIG1        0.1281
      6 C          -1.6250    1.3750    0.0000 C.3     1  LIG1        0.2135
      7 C          -1.6170    0.3960    0.0000 C.2     1  LIG1        0.2664
      8 O          -0.7580   -0.1170    0.0000 O.2     1  LIG1       -0.2712
      9 N          -2.4790   -0.1000    0.0000 N.am    1  LIG1       -0.1973
     10 C          -2.4790   -1.1130    0.0000 C.3     1  LIG1        0.1775
     11 C          -1.6080   -1.6130    0.0000 C.3     1  LIG1        0.1630
     12 N          -1.6080   -2.6080    0.0000 N.4     1  LIG1        0.3881
     13 C          -2.4790   -3.1040    0.0000 C.3     1  LIG1        0.2026
     14 C          -0.7420   -3.1040    0.0000 C.3     1  LIG1        0.2026
     15 C           0.4920    0.5500    0.0000 C.ar    1  LIG1        0.0522
     16 C           1.4750    0.3540    0.0000 C.ar    1  LIG1        0.1501
     17 O           2.1290    1.1080    0.0000 O.2     1  LIG1       -0.4209
     18 C           1.8130    2.0500    0.0000 C.ar    1  LIG1        0.3488
     19 O           2.4750    2.8130    0.0000 O.2     1  LIG1       -0.2444
     20 C           1.7960   -0.5830    0.0000 C.ar    1  LIG1        0.0377
     21 C           1.1420   -1.3420    0.0000 C.ar    1  LIG1        0.0031
     22 C           0.1580   -1.1540    0.0000 C.ar    1  LIG1        0.0002
     23 C          -0.1670   -0.2040    0.0000 C.ar    1  LIG1        0.0045
@<TRIPOS>BOND
     1     1     2   ar
     2     1     5   ar
     3     1    18   ar
     4     2     3   ar
     5     2    15   ar
     6     3     4   ar
     7     3     6    1
     8     4     5   ar
     9     6     7    1
    10     7     8    2
    11     7     9   am
    12     9    10    1
    13    10    11    1
    14    11    12    1
    15    12    13    1
    16    12    14    1
    17    15    16   ar
    18    15    23   ar
    19    16    17   ar
    20    16    20   ar
    21    17    18   ar
    22    18    19    2
    23    20    21   ar
    24    21    22   ar
    25    22    23   ar
