@<TRIPOS>MOLECULE
36905_ChemDiv_C324-1287
 23 25 0 0 0
SMALL
GASTEIGER
Energy = 0

@<TRIPOS>ATOM
      1 S           1.8250   -0.0500    0.0000 S.O2    1  LIG1        0.0672
      2 C           2.6920    0.4540    0.0000 C.ar    1  LIG1        0.1715
      3 C           3.6380    0.1500    0.0000 C.ar    1  LIG1        0.1729
      4 O           4.2210    0.9670    0.0000 O.2     1  LIG1       -0.3567
      5 N           3.6380    1.7630    0.0000 N.ar    1  LIG1       -0.0803
      6 C           2.6920    1.4630    0.0000 C.ar    1  LIG1        0.1192
      7 C           1.8710    2.0670    0.0000 C.3     1  LIG1        0.0571
      8 C           3.9540   -0.8040    0.0000 C.3     1  LIG1        0.0768
      9 N           0.9420   -0.5630    0.0000 N.3     1  LIG1       -0.1554
     10 C           0.0920   -0.0630    0.0000 C.3     1  LIG1        0.0958
     11 C          -0.7710   -0.5630    0.0000 C.3     1  LIG1        0.0195
     12 C          -0.7710   -1.5630    0.0000 C.3     1  LIG1        0.0072
     13 C          -1.6380   -2.0630    0.0000 C.3     1  LIG1        0.0264
     14 C          -2.5040   -1.5630    0.0000 C.ar    1  LIG1       -0.0222
     15 C          -3.3630   -2.0630    0.0000 C.ar    1  LIG1       -0.0043
     16 C          -4.2250   -1.5630    0.0000 C.ar    1  LIG1       -0.0003
     17 C          -4.2250   -0.5630    0.0000 C.ar    1  LIG1       -0.0000
     18 C          -3.3630   -0.0630    0.0000 C.ar    1  LIG1       -0.0003
     19 C          -2.5040   -0.5630    0.0000 C.ar    1  LIG1       -0.0043
     20 C           0.0920   -2.0630    0.0000 C.3     1  LIG1        0.0195
     21 C           0.9420   -1.5630    0.0000 C.3     1  LIG1        0.0958
     22 O           1.3080    0.8210    0.0000 O.2     1  LIG1       -0.1526
     23 O           2.3330   -0.9210    0.0000 O.2     1  LIG1       -0.1526
@<TRIPOS>BOND
     1     1     2    1
     2     1     9    1
     3     1    22    2
     4     1    23    2
     5     2     3   ar
     6     2     6   ar
     7     3     4   ar
     8     3     8    1
     9     4     5   ar
    10     5     6   ar
    11     6     7    1
    12     9    10    1
    13     9    21    1
    14    10    11    1
    15    11    12    1
    16    12    13    1
    17    12    20    1
    18    13    14    1
    19    14    15   ar
    20    14    19   ar
    21    15    16   ar
    22    16    17   ar
    23    17    18   ar
    24    18    19   ar
    25    20    21    1
