@<TRIPOS>MOLECULE
36910_ChemDiv_C791-0401
 25 28 0 0 0
SMALL
GASTEIGER
Energy = 0

@<TRIPOS>ATOM
      1 N          -0.0420    2.8130    0.0000 N.ar    1  LIG1       -0.2415
      2 N           0.5580    3.6290    0.0000 N.ar    1  LIG1       -0.1672
      3 C          -0.0420    4.4380    0.0000 C.ar    1  LIG1        0.1216
      4 C          -0.9920    4.1210    0.0000 C.ar    1  LIG1        0.0382
      5 C          -0.9920    3.1290    0.0000 C.ar    1  LIG1        0.0799
      6 C          -1.8540    2.6290    0.0000 C.ar    1  LIG1        0.0188
      7 C          -2.7130    3.1290    0.0000 C.ar    1  LIG1        0.0015
      8 C          -2.7130    4.1210    0.0000 C.ar    1  LIG1        0.0001
      9 C          -1.8540    4.6210    0.0000 C.ar    1  LIG1        0.0031
     10 C           0.2790    1.8670    0.0000 C.3     1  LIG1        0.2120
     11 C           1.2380    1.6080    0.0000 C.2     1  LIG1        0.2505
     12 N           1.4960    0.6500    0.0000 N.am    1  LIG1       -0.2779
     13 C           0.7880   -0.0420    0.0000 C.3     1  LIG1        0.0935
     14 C           1.0500   -1.0080    0.0000 C.3     1  LIG1        0.0219
     15 C           2.0170   -1.2750    0.0000 C.3     1  LIG1        0.0078
     16 C           2.2880   -2.2580    0.0000 C.3     1  LIG1        0.0265
     17 C           1.5710   -2.9540    0.0000 C.ar    1  LIG1       -0.0222
     18 C           0.5960   -2.6880    0.0000 C.ar    1  LIG1       -0.0043
     19 C          -0.1000   -3.3960    0.0000 C.ar    1  LIG1       -0.0003
     20 C           0.1670   -4.3630    0.0000 C.ar    1  LIG1       -0.0000
     21 C           1.1330   -4.6210    0.0000 C.ar    1  LIG1       -0.0003
     22 C           1.8420   -3.9130    0.0000 C.ar    1  LIG1       -0.0043
     23 C           2.7080   -0.5670    0.0000 C.3     1  LIG1        0.0219
     24 C           2.4540    0.4080    0.0000 C.3     1  LIG1        0.0935
     25 O           1.9380    2.3170    0.0000 O.2     1  LIG1       -0.2727
@<TRIPOS>BOND
     1     1     2   ar
     2     1     5   ar
     3     1    10    1
     4     2     3   ar
     5     3     4   ar
     6     4     5   ar
     7     4     9   ar
     8     5     6   ar
     9     6     7   ar
    10     7     8   ar
    11     8     9   ar
    12    10    11    1
    13    11    12   am
    14    11    25    2
    15    12    13    1
    16    12    24    1
    17    13    14    1
    18    14    15    1
    19    15    16    1
    20    15    23    1
    21    16    17    1
    22    17    18   ar
    23    17    22   ar
    24    18    19   ar
    25    19    20   ar
    26    20    21   ar
    27    21    22   ar
    28    23    24    1
