@<TRIPOS>MOLECULE
36919_ChemDiv_K279-0157
 38 42 0 0 0
SMALL
GASTEIGER
Energy = 0

@<TRIPOS>ATOM
      1 N          -2.5750    0.9920    0.0000 N.ar    1  LIG1       -0.1479
      2 C          -3.4380    1.5080    0.0000 C.ar    1  LIG1        0.3753
      3 N          -3.2380    2.4920    0.0000 N.2     1  LIG1        0.0759
      4 C          -2.2250    2.6000    0.0000 C.3     1  LIG1        0.4008
      5 C          -1.8250    1.6750    0.0000 C.2     1  LIG1        0.3291
      6 O          -0.8250    1.5670    0.0000 O.2     1  LIG1       -0.2637
      7 C          -1.7250    3.4630    0.0000 C.3     1  LIG1        0.1214
      8 C          -0.7250    3.4540    0.0000 C.ar    1  LIG1       -0.0146
      9 C          -0.2330    2.5830    0.0000 C.ar    1  LIG1       -0.0040
     10 C           0.7670    2.5830    0.0000 C.ar    1  LIG1       -0.0003
     11 C           1.2750    3.4460    0.0000 C.ar    1  LIG1       -0.0000
     12 C           0.7750    4.3080    0.0000 C.ar    1  LIG1       -0.0003
     13 C          -0.2250    4.3130    0.0000 C.ar    1  LIG1       -0.0040
     14 C          -4.3130    0.9920    0.0000 C.ar    1  LIG1        0.1585
     15 C          -4.3130   -0.0080    0.0000 C.ar    1  LIG1        0.3068
     16 N          -3.4380   -0.5080    0.0000 N.ar    1  LIG1        0.1032
     17 C          -2.5750   -0.0080    0.0000 C.ar    1  LIG1        0.4035
     18 S          -1.6960   -0.5080    0.0000 S.3     1  LIG1       -0.0096
     19 C          -1.6880   -1.5080    0.0000 C.3     1  LIG1        0.1562
     20 C          -0.8250   -2.0040    0.0000 C.2     1  LIG1        0.2530
     21 O          -0.8250   -3.0040    0.0000 O.2     1  LIG1       -0.2724
     22 N           0.0330   -1.4920    0.0000 N.am    1  LIG1       -0.2043
     23 C           0.9040   -1.9790    0.0000 C.3     1  LIG1        0.1198
     24 C           1.7500   -1.4790    0.0000 C.3     1  LIG1        0.0498
     25 C           2.6080   -1.9750    0.0000 C.ar    1  LIG1       -0.0203
     26 C           2.6080   -2.9580    0.0000 C.ar    1  LIG1       -0.0028
     27 C           3.4630   -3.4500    0.0000 C.ar    1  LIG1        0.0197
     28 C           4.3130   -2.9500    0.0000 C.ar    1  LIG1        0.1250
     29 S           5.1880   -3.4500    0.0000 S.O2    1  LIG1        0.0935
     30 O           5.6880   -2.5790    0.0000 O.2     1  LIG1       -0.1503
     31 O           4.6920   -4.3130    0.0000 O.2     1  LIG1       -0.1503
     32 N           6.0500   -3.9500    0.0000 N.3     1  LIG1        0.0392
     33 C           4.3130   -1.9580    0.0000 C.ar    1  LIG1        0.0197
     34 C           3.4500   -1.4750    0.0000 C.ar    1  LIG1       -0.0028
     35 C          -5.1790   -0.5080    0.0000 C.ar    1  LIG1        0.0765
     36 C          -6.0500   -0.0080    0.0000 C.ar    1  LIG1        0.0063
     37 C          -6.0500    0.9920    0.0000 C.ar    1  LIG1        0.0007
     38 C          -5.1790    1.5080    0.0000 C.ar    1  LIG1        0.0141
@<TRIPOS>BOND
     1     1     2   ar
     2     1     5   am
     3     1    17   ar
     4     2     3    2
     5     2    14   ar
     6     3     4    1
     7     4     5    1
     8     4     7    1
     9     5     6    2
    10     7     8    1
    11     8     9   ar
    12     8    13   ar
    13     9    10   ar
    14    10    11   ar
    15    11    12   ar
    16    12    13   ar
    17    14    15   ar
    18    14    38   ar
    19    15    16   ar
    20    15    35   ar
    21    16    17   ar
    22    17    18    1
    23    18    19    1
    24    19    20    1
    25    20    21    2
    26    20    22   am
    27    22    23    1
    28    23    24    1
    29    24    25    1
    30    25    26   ar
    31    25    34   ar
    32    26    27   ar
    33    27    28   ar
    34    28    29    1
    35    28    33   ar
    36    29    30    2
    37    29    31    2
    38    29    32    1
    39    33    34   ar
    40    35    36   ar
    41    36    37   ar
    42    37    38   ar
