@<TRIPOS>MOLECULE
36918_ChemDiv_C378-0483
 33 36 0 0 0
SMALL
GASTEIGER
Energy = 0

@<TRIPOS>ATOM
      1 C          -0.0920   -1.0210    0.0000 C.ar    1  LIG1        0.2033
      2 C          -0.9540   -1.5210    0.0000 C.ar    1  LIG1        0.0395
      3 C          -1.8170   -1.0210    0.0000 C.ar    1  LIG1        0.0093
      4 C          -1.8170   -0.0250    0.0000 C.ar    1  LIG1        0.0761
      5 C          -0.9540    0.4710    0.0000 C.ar    1  LIG1        0.3458
      6 O          -0.0920   -0.0250    0.0000 O.2     1  LIG1       -0.4163
      7 O          -0.9540    1.4670    0.0000 O.2     1  LIG1       -0.2445
      8 C          -2.6790    0.4710    0.0000 C.ar    1  LIG1        0.0065
      9 C          -3.5420   -0.0250    0.0000 C.ar    1  LIG1        0.0002
     10 C          -3.5420   -1.0210    0.0000 C.ar    1  LIG1        0.0000
     11 C          -2.6790   -1.5210    0.0000 C.ar    1  LIG1        0.0003
     12 C          -0.9540   -2.5170    0.0000 C.ar    1  LIG1        0.0031
     13 C          -0.0920   -3.0170    0.0000 C.ar    1  LIG1       -0.0002
     14 C          -0.0920   -4.0130    0.0000 C.ar    1  LIG1       -0.0043
     15 C          -0.9540   -4.5080    0.0000 C.ar    1  LIG1       -0.0218
     16 C          -1.8170   -4.0130    0.0000 C.ar    1  LIG1       -0.0043
     17 C          -1.8170   -3.0170    0.0000 C.ar    1  LIG1       -0.0002
     18 C          -0.9540   -5.5040    0.0000 C.3     1  LIG1        0.0310
     19 C           0.7710   -1.5210    0.0000 C.2     1  LIG1        0.2996
     20 O           0.7710   -2.5170    0.0000 O.2     1  LIG1       -0.2650
     21 N           1.6290   -1.0210    0.0000 N.am    1  LIG1       -0.1987
     22 C           1.6420   -0.0250    0.0000 C.3     1  LIG1        0.1202
     23 C           2.5130    0.4710    0.0000 C.3     1  LIG1        0.0498
     24 C           2.5040    1.4880    0.0000 C.ar    1  LIG1       -0.0203
     25 C           1.6290    1.9830    0.0000 C.ar    1  LIG1       -0.0028
     26 C           1.6290    2.9790    0.0000 C.ar    1  LIG1        0.0197
     27 C           2.5040    3.4790    0.0000 C.ar    1  LIG1        0.1250
     28 S           2.5210    4.5000    0.0000 S.O2    1  LIG1        0.0935
     29 O           3.5380    4.4790    0.0000 O.2     1  LIG1       -0.1503
     30 O           1.4960    4.5000    0.0000 O.2     1  LIG1       -0.1503
     31 N           2.5210    5.5040    0.0000 N.3     1  LIG1        0.0392
     32 C           3.3750    2.9790    0.0000 C.ar    1  LIG1        0.0197
     33 C           3.3750    1.9830    0.0000 C.ar    1  LIG1       -0.0028
@<TRIPOS>BOND
     1     1     2   ar
     2     1     6   ar
     3     1    19    1
     4     2     3   ar
     5     2    12    1
     6     3     4   ar
     7     3    11   ar
     8     4     5   ar
     9     4     8   ar
    10     5     6   ar
    11     5     7    2
    12     8     9   ar
    13     9    10   ar
    14    10    11   ar
    15    12    13   ar
    16    12    17   ar
    17    13    14   ar
    18    14    15   ar
    19    15    16   ar
    20    15    18    1
    21    16    17   ar
    22    19    20    2
    23    19    21   am
    24    21    22    1
    25    22    23    1
    26    23    24    1
    27    24    25   ar
    28    24    33   ar
    29    25    26   ar
    30    26    27   ar
    31    27    28    1
    32    27    32   ar
    33    28    29    2
    34    28    30    2
    35    28    31    1
    36    32    33   ar
