@<TRIPOS>MOLECULE
36917_ChemDiv_K279-0110
 36 41 0 0 0
SMALL
GASTEIGER
Energy = 0

@<TRIPOS>ATOM
      1 N          -0.8630   -0.4540    0.0000 N.ar    1  LIG1       -0.1479
      2 C          -1.7250    0.0580    0.0000 C.ar    1  LIG1        0.3753
      3 N          -1.5170    1.0460    0.0000 N.2     1  LIG1        0.0759
      4 C          -0.5130    1.1500    0.0000 C.3     1  LIG1        0.4008
      5 C          -0.1210    0.2250    0.0000 C.2     1  LIG1        0.3291
      6 O           0.8880    0.1210    0.0000 O.2     1  LIG1       -0.2637
      7 C          -0.0170    2.0130    0.0000 C.3     1  LIG1        0.1230
      8 C           0.9830    2.0000    0.0000 C.ar    1  LIG1        0.0060
      9 C           1.5710    1.1960    0.0000 C.ar    1  LIG1        0.0948
     10 N           2.5130    1.4960    0.0000 N.ar    1  LIG1       -0.2442
     11 C           2.5210    2.4960    0.0000 C.ar    1  LIG1        0.0810
     12 C           1.5750    2.8130    0.0000 C.ar    1  LIG1        0.0154
     13 C           1.3710    3.7830    0.0000 C.ar    1  LIG1        0.0012
     14 C           2.1130    4.4460    0.0000 C.ar    1  LIG1        0.0001
     15 C           3.0670    4.1250    0.0000 C.ar    1  LIG1        0.0015
     16 C           3.2710    3.1630    0.0000 C.ar    1  LIG1        0.0191
     17 C          -2.5920   -0.4540    0.0000 C.ar    1  LIG1        0.1585
     18 C          -2.5920   -1.4540    0.0000 C.ar    1  LIG1        0.3068
     19 N          -1.7250   -1.9540    0.0000 N.ar    1  LIG1        0.1032
     20 C          -0.8630   -1.4540    0.0000 C.ar    1  LIG1        0.4035
     21 S           0.0170   -1.9540    0.0000 S.3     1  LIG1       -0.0097
     22 C           0.0250   -2.9500    0.0000 C.3     1  LIG1        0.1547
     23 C           0.8920   -3.4460    0.0000 C.2     1  LIG1        0.2372
     24 N           1.7420   -2.9380    0.0000 N.am    1  LIG1       -0.2788
     25 C           2.6130   -3.4290    0.0000 C.3     1  LIG1        0.0934
     26 C           3.4670   -2.9210    0.0000 C.3     1  LIG1        0.0199
     27 C           3.4500   -1.9330    0.0000 C.3     1  LIG1        0.0034
     28 C           2.5880   -1.4380    0.0000 C.3     1  LIG1        0.0199
     29 C           1.7250   -1.9460    0.0000 C.3     1  LIG1        0.0934
     30 C           2.5750   -0.4380    0.0000 C.3     1  LIG1        0.0018
     31 C           4.3290   -3.4170    0.0000 C.3     1  LIG1        0.0018
     32 O           0.8920   -4.4460    0.0000 O.2     1  LIG1       -0.2739
     33 C          -3.4670   -1.9540    0.0000 C.ar    1  LIG1        0.0765
     34 C          -4.3330   -1.4540    0.0000 C.ar    1  LIG1        0.0063
     35 C          -4.3330   -0.4540    0.0000 C.ar    1  LIG1        0.0007
     36 C          -3.4670    0.0580    0.0000 C.ar    1  LIG1        0.0141
@<TRIPOS>BOND
     1     1     2   ar
     2     1     5   am
     3     1    20   ar
     4     2     3    2
     5     2    17   ar
     6     3     4    1
     7     4     5    1
     8     4     7    1
     9     5     6    2
    10     7     8    1
    11     8     9   ar
    12     8    12   ar
    13     9    10   ar
    14    10    11   ar
    15    11    12   ar
    16    11    16   ar
    17    12    13   ar
    18    13    14   ar
    19    14    15   ar
    20    15    16   ar
    21    17    18   ar
    22    17    36   ar
    23    18    19   ar
    24    18    33   ar
    25    19    20   ar
    26    20    21    1
    27    21    22    1
    28    22    23    1
    29    23    24   am
    30    23    32    2
    31    24    25    1
    32    24    29    1
    33    25    26    1
    34    26    27    1
    35    26    31    1
    36    27    28    1
    37    28    29    1
    38    28    30    1
    39    33    34   ar
    40    34    35   ar
    41    35    36   ar
