@<TRIPOS>MOLECULE
36911_ChemDiv_C324-1608
 34 38 0 0 0
SMALL
GASTEIGER
Energy = 0

@<TRIPOS>ATOM
      1 S          -2.5580   -2.8830    0.0000 S.O2    1  LIG1        0.0672
      2 C          -3.4380   -3.3830    0.0000 C.ar    1  LIG1        0.1715
      3 C          -3.6500   -4.3630    0.0000 C.ar    1  LIG1        0.1729
      4 O          -4.6290   -4.4630    0.0000 O.2     1  LIG1       -0.3567
      5 N          -5.0500   -3.5580    0.0000 N.ar    1  LIG1       -0.0803
      6 C          -4.3080   -2.8830    0.0000 C.ar    1  LIG1        0.1192
      7 C          -4.4170   -1.8880    0.0000 C.3     1  LIG1        0.0571
      8 C          -2.9790   -5.1040    0.0000 C.3     1  LIG1        0.0768
      9 N          -1.6880   -2.3750    0.0000 N.3     1  LIG1       -0.1554
     10 C          -0.8080   -2.8750    0.0000 C.3     1  LIG1        0.0963
     11 C           0.0540   -2.3750    0.0000 C.3     1  LIG1        0.0283
     12 C           0.0540   -1.3710    0.0000 C.3     1  LIG1        0.0796
     13 C           0.9170   -0.8710    0.0000 C.2     1  LIG1        0.2256
     14 N           0.9170    0.1250    0.0000 N.am    1  LIG1       -0.2681
     15 C           0.0460    0.6250    0.0000 C.3     1  LIG1        0.1565
     16 C           0.0460    1.6210    0.0000 C.3     1  LIG1        0.1610
     17 N           0.9170    2.1210    0.0000 N.4     1  LIG1        0.3834
     18 C           0.9170    3.1170    0.0000 C.3     1  LIG1        0.1664
     19 C           1.7880    3.6170    0.0000 C.ar    1  LIG1        0.0376
     20 C           2.6460    3.1170    0.0000 C.ar    1  LIG1        0.0416
     21 C           3.5080    3.6170    0.0000 C.ar    1  LIG1        0.1763
     22 C           3.5080    4.6080    0.0000 C.ar    1  LIG1        0.1764
     23 O           4.4630    4.9130    0.0000 O.3     1  LIG1       -0.4346
     24 C           5.0460    4.1080    0.0000 C.3     1  LIG1        0.4294
     25 O           4.4630    3.3130    0.0000 O.3     1  LIG1       -0.4346
     26 C           2.6460    5.1040    0.0000 C.ar    1  LIG1        0.0401
     27 C           1.7880    4.6080    0.0000 C.ar    1  LIG1        0.0048
     28 C           1.7750    1.6210    0.0000 C.3     1  LIG1        0.1610
     29 C           1.7750    0.6250    0.0000 C.3     1  LIG1        0.1565
     30 O           1.7750   -1.3710    0.0000 O.2     1  LIG1       -0.2749
     31 C          -0.8170   -0.8710    0.0000 C.3     1  LIG1        0.0283
     32 C          -1.6880   -1.3710    0.0000 C.3     1  LIG1        0.0963
     33 O          -2.0500   -3.7540    0.0000 O.2     1  LIG1       -0.1526
     34 O          -3.0580   -2.0040    0.0000 O.2     1  LIG1       -0.1526
@<TRIPOS>BOND
     1     1     2    1
     2     1     9    1
     3     1    33    2
     4     1    34    2
     5     2     3   ar
     6     2     6   ar
     7     3     4   ar
     8     3     8    1
     9     4     5   ar
    10     5     6   ar
    11     6     7    1
    12     9    10    1
    13     9    32    1
    14    10    11    1
    15    11    12    1
    16    12    13    1
    17    12    31    1
    18    13    14   am
    19    13    30    2
    20    14    15    1
    21    14    29    1
    22    15    16    1
    23    16    17    1
    24    17    18    1
    25    17    28    1
    26    18    19    1
    27    19    20   ar
    28    19    27   ar
    29    20    21   ar
    30    21    22   ar
    31    21    25    1
    32    22    23    1
    33    22    26   ar
    34    23    24    1
    35    24    25    1
    36    26    27   ar
    37    28    29    1
    38    31    32    1
