@<TRIPOS>MOLECULE
36916_ChemDiv_C378-0450
 32 35 0 0 0
SMALL
GASTEIGER
Energy = 0

@<TRIPOS>ATOM
      1 C           0.4460   -0.7460    0.0000 C.ar    1  LIG1        0.2033
      2 C          -0.4250   -1.2460    0.0000 C.ar    1  LIG1        0.0395
      3 C          -1.2920   -0.7460    0.0000 C.ar    1  LIG1        0.0093
      4 C          -1.2920    0.2500    0.0000 C.ar    1  LIG1        0.0761
      5 C          -0.4250    0.7500    0.0000 C.ar    1  LIG1        0.3458
      6 O           0.4460    0.2500    0.0000 O.2     1  LIG1       -0.4163
      7 O          -0.4250    1.7500    0.0000 O.2     1  LIG1       -0.2445
      8 C          -2.1500    0.7500    0.0000 C.ar    1  LIG1        0.0065
      9 C          -3.0170    0.2500    0.0000 C.ar    1  LIG1        0.0002
     10 C          -3.0170   -0.7460    0.0000 C.ar    1  LIG1        0.0000
     11 C          -2.1500   -1.2460    0.0000 C.ar    1  LIG1        0.0003
     12 C          -0.4250   -2.2460    0.0000 C.ar    1  LIG1        0.0031
     13 C          -1.2920   -2.7460    0.0000 C.ar    1  LIG1       -0.0002
     14 C          -1.2920   -3.7460    0.0000 C.ar    1  LIG1       -0.0043
     15 C          -0.4250   -4.2460    0.0000 C.ar    1  LIG1       -0.0218
     16 C           0.4460   -3.7460    0.0000 C.ar    1  LIG1       -0.0043
     17 C           0.4460   -2.7460    0.0000 C.ar    1  LIG1       -0.0002
     18 C          -0.4250   -5.2460    0.0000 C.3     1  LIG1        0.0310
     19 C           1.3040   -1.2460    0.0000 C.2     1  LIG1        0.2996
     20 N           2.1710   -0.7460    0.0000 N.am    1  LIG1       -0.2007
     21 C           2.1540    0.2500    0.0000 C.3     1  LIG1        0.0991
     22 C           1.2790    0.7330    0.0000 C.3     1  LIG1        0.0433
     23 C           1.2500    1.7330    0.0000 C.3     1  LIG1        0.0985
     24 N           2.1040    2.2580    0.0000 N.am    1  LIG1       -0.2459
     25 C           2.0920    3.2500    0.0000 C.2     1  LIG1        0.4049
     26 O           2.9460    3.7670    0.0000 O.2     1  LIG1       -0.2262
     27 O           1.2080    3.7250    0.0000 O.3     1  LIG1       -0.4345
     28 C           1.1830    4.7290    0.0000 C.3     1  LIG1        0.2102
     29 C           2.0250    5.2460    0.0000 C.3     1  LIG1        0.0513
     30 C           2.9880    1.7710    0.0000 C.3     1  LIG1        0.0985
     31 C           3.0130    0.7710    0.0000 C.3     1  LIG1        0.0433
     32 O           1.3040   -2.2460    0.0000 O.2     1  LIG1       -0.2650
@<TRIPOS>BOND
     1     1     2   ar
     2     1     6   ar
     3     1    19    1
     4     2     3   ar
     5     2    12    1
     6     3     4   ar
     7     3    11   ar
     8     4     5   ar
     9     4     8   ar
    10     5     6   ar
    11     5     7    2
    12     8     9   ar
    13     9    10   ar
    14    10    11   ar
    15    12    13   ar
    16    12    17   ar
    17    13    14   ar
    18    14    15   ar
    19    15    16   ar
    20    15    18    1
    21    16    17   ar
    22    19    20   am
    23    19    32    2
    24    20    21    1
    25    21    22    1
    26    21    31    1
    27    22    23    1
    28    23    24    1
    29    24    25   am
    30    24    30    1
    31    25    26    2
    32    25    27    1
    33    27    28    1
    34    28    29    1
    35    30    31    1
