@<TRIPOS>MOLECULE
36915_ChemDiv_K279-0073
 36 41 0 0 0
SMALL
GASTEIGER
Energy = 0

@<TRIPOS>ATOM
      1 N          -0.8630   -0.4630    0.0000 N.ar    1  LIG1       -0.1479
      2 C          -1.7250    0.0540    0.0000 C.ar    1  LIG1        0.3753
      3 N          -1.5290    1.0330    0.0000 N.2     1  LIG1        0.0759
      4 C          -0.5170    1.1420    0.0000 C.3     1  LIG1        0.4008
      5 C          -0.1250    0.2210    0.0000 C.2     1  LIG1        0.3291
      6 O           0.8750    0.1130    0.0000 O.2     1  LIG1       -0.2637
      7 C          -0.0170    2.0040    0.0000 C.3     1  LIG1        0.1230
      8 C           0.9790    2.0040    0.0000 C.ar    1  LIG1        0.0060
      9 C           1.5540    1.1920    0.0000 C.ar    1  LIG1        0.0948
     10 N           2.5080    1.4920    0.0000 N.ar    1  LIG1       -0.2442
     11 C           2.5080    2.4880    0.0000 C.ar    1  LIG1        0.0810
     12 C           1.5670    2.8040    0.0000 C.ar    1  LIG1        0.0154
     13 C           1.3580    3.7750    0.0000 C.ar    1  LIG1        0.0012
     14 C           2.1000    4.4380    0.0000 C.ar    1  LIG1        0.0001
     15 C           3.0500    4.1210    0.0000 C.ar    1  LIG1        0.0015
     16 C           3.2580    3.1500    0.0000 C.ar    1  LIG1        0.0191
     17 C          -2.6000   -0.4630    0.0000 C.ar    1  LIG1        0.1585
     18 C          -2.6000   -1.4580    0.0000 C.ar    1  LIG1        0.3068
     19 N          -1.7250   -1.9580    0.0000 N.ar    1  LIG1        0.1032
     20 C          -0.8630   -1.4580    0.0000 C.ar    1  LIG1        0.4034
     21 S           0.0130   -1.9580    0.0000 S.3     1  LIG1       -0.0112
     22 C           0.0130   -2.9540    0.0000 C.3     1  LIG1        0.1386
     23 C           0.8830   -3.4380    0.0000 C.2     1  LIG1        0.1846
     24 C           1.7380   -2.9420    0.0000 C.ar    1  LIG1        0.0390
     25 C           2.6080   -3.4380    0.0000 C.ar    1  LIG1        0.0483
     26 C           3.4710   -2.9420    0.0000 C.ar    1  LIG1        0.2343
     27 C           3.4710   -1.9420    0.0000 C.ar    1  LIG1        0.2343
     28 C           2.5960   -1.4460    0.0000 C.ar    1  LIG1        0.0455
     29 C           1.7380   -1.9540    0.0000 C.ar    1  LIG1        0.0064
     30 O           4.3290   -1.4380    0.0000 O.3     1  LIG1       -0.2831
     31 O           4.3380   -3.4380    0.0000 O.3     1  LIG1       -0.2831
     32 O           0.8830   -4.4380    0.0000 O.2     1  LIG1       -0.2904
     33 C          -3.4630   -1.9580    0.0000 C.ar    1  LIG1        0.0765
     34 C          -4.3420   -1.4580    0.0000 C.ar    1  LIG1        0.0063
     35 C          -4.3420   -0.4630    0.0000 C.ar    1  LIG1        0.0007
     36 C          -3.4630    0.0540    0.0000 C.ar    1  LIG1        0.0141
@<TRIPOS>BOND
     1     1     2   ar
     2     1     5   am
     3     1    20   ar
     4     2     3    2
     5     2    17   ar
     6     3     4    1
     7     4     5    1
     8     4     7    1
     9     5     6    2
    10     7     8    1
    11     8     9   ar
    12     8    12   ar
    13     9    10   ar
    14    10    11   ar
    15    11    12   ar
    16    11    16   ar
    17    12    13   ar
    18    13    14   ar
    19    14    15   ar
    20    15    16   ar
    21    17    18   ar
    22    17    36   ar
    23    18    19   ar
    24    18    33   ar
    25    19    20   ar
    26    20    21    1
    27    21    22    1
    28    22    23    1
    29    23    24    1
    30    23    32    2
    31    24    25   ar
    32    24    29   ar
    33    25    26   ar
    34    26    27   ar
    35    26    31    1
    36    27    28   ar
    37    27    30    1
    38    28    29   ar
    39    33    34   ar
    40    34    35   ar
    41    35    36   ar
