@<TRIPOS>MOLECULE
36912_ChemDiv_C791-0409
 17 18 0 0 0
SMALL
GASTEIGER
Energy = 0

@<TRIPOS>ATOM
      1 N          -1.1130    0.3040    0.0000 N.ar    1  LIG1       -0.2414
      2 N          -0.5130    1.1210    0.0000 N.ar    1  LIG1       -0.1672
      3 C          -1.1130    1.9380    0.0000 C.ar    1  LIG1        0.1216
      4 C          -2.0670    1.6210    0.0000 C.ar    1  LIG1        0.0382
      5 C          -2.0670    0.6210    0.0000 C.ar    1  LIG1        0.0799
      6 C          -2.9290    0.1250    0.0000 C.ar    1  LIG1        0.0188
      7 C          -3.7920    0.6210    0.0000 C.ar    1  LIG1        0.0015
      8 C          -3.7920    1.6210    0.0000 C.ar    1  LIG1        0.0001
      9 C          -2.9290    2.1210    0.0000 C.ar    1  LIG1        0.0031
     10 C          -0.7960   -0.6420    0.0000 C.3     1  LIG1        0.2135
     11 C           0.1710   -0.9000    0.0000 C.2     1  LIG1        0.2663
     12 O           0.8710   -0.1920    0.0000 O.2     1  LIG1       -0.2712
     13 N           0.4250   -1.8580    0.0000 N.am    1  LIG1       -0.2010
     14 C           1.3960   -2.1170    0.0000 C.3     1  LIG1        0.1472
     15 C           2.1130   -1.4210    0.0000 C.3     1  LIG1        0.1656
     16 O           3.0670   -1.6790    0.0000 O.3     1  LIG1       -0.3492
     17 C           3.7880   -0.9830    0.0000 C.3     1  LIG1        0.1742
@<TRIPOS>BOND
     1     1     2   ar
     2     1     5   ar
     3     1    10    1
     4     2     3   ar
     5     3     4   ar
     6     4     5   ar
     7     4     9   ar
     8     5     6   ar
     9     6     7   ar
    10     7     8   ar
    11     8     9   ar
    12    10    11    1
    13    11    12    2
    14    11    13   am
    15    13    14    1
    16    14    15    1
    17    15    16    1
    18    16    17    1
