@<TRIPOS>MOLECULE
36927_ChemDiv_K279-0720
 32 35 0 0 0
SMALL
GASTEIGER
Energy = 0

@<TRIPOS>ATOM
      1 N          -1.7210    0.4250    0.0000 N.ar    1  LIG1       -0.1479
      2 C          -1.7210    1.4170    0.0000 C.ar    1  LIG1        0.3753
      3 N          -0.7790    1.7170    0.0000 N.2     1  LIG1        0.0755
      4 C          -0.2080    0.9250    0.0000 C.3     1  LIG1        0.3970
      5 C          -0.7790    0.1210    0.0000 C.2     1  LIG1        0.3288
      6 O          -0.4500   -0.8420    0.0000 O.2     1  LIG1       -0.2637
      7 C           0.8040    0.9040    0.0000 C.3     1  LIG1        0.1047
      8 C           1.2960    1.7790    0.0000 C.3     1  LIG1        0.0946
      9 C           2.3130    1.7670    0.0000 C.2     1  LIG1        0.2419
     10 N           2.8040    0.9040    0.0000 N.am    1  LIG1       -0.2005
     11 C           2.3130    0.0330    0.0000 C.3     1  LIG1        0.1415
     12 C           2.8040   -0.8420    0.0000 C.ar    1  LIG1       -0.0004
     13 C           3.8170   -0.8420    0.0000 C.ar    1  LIG1       -0.0002
     14 C           4.3080   -1.7130    0.0000 C.ar    1  LIG1        0.0294
     15 C           3.8170   -2.5580    0.0000 C.ar    1  LIG1        0.1401
     16 F           4.3290   -3.4290    0.0000 F       1  LIG1       -0.2042
     17 C           2.8040   -2.5670    0.0000 C.ar    1  LIG1        0.0294
     18 C           2.3130   -1.7130    0.0000 C.ar    1  LIG1       -0.0002
     19 O           2.8040    2.6210    0.0000 O.2     1  LIG1       -0.2733
     20 C          -2.5960    1.9290    0.0000 C.ar    1  LIG1        0.1585
     21 C          -3.4580    1.4170    0.0000 C.ar    1  LIG1        0.3068
     22 N          -3.4580    0.4250    0.0000 N.ar    1  LIG1        0.1032
     23 C          -2.5880   -0.0880    0.0000 C.ar    1  LIG1        0.4035
     24 S          -2.5880   -1.0830    0.0000 S.3     1  LIG1       -0.0096
     25 C          -1.7210   -1.5630    0.0000 C.3     1  LIG1        0.1579
     26 C          -1.7420   -2.5880    0.0000 C.2     1  LIG1        0.2723
     27 O          -0.8710   -3.1000    0.0000 O.2     1  LIG1       -0.2707
     28 N          -2.5960   -3.1000    0.0000 N.am    1  LIG1       -0.0870
     29 C          -4.3330    1.9290    0.0000 C.ar    1  LIG1        0.0765
     30 C          -4.3330    2.9210    0.0000 C.ar    1  LIG1        0.0063
     31 C          -3.4670    3.4330    0.0000 C.ar    1  LIG1        0.0007
     32 C          -2.6170    2.9210    0.0000 C.ar    1  LIG1        0.0141
@<TRIPOS>BOND
     1     1     2   ar
     2     1     5   am
     3     1    23   ar
     4     2     3    2
     5     2    20   ar
     6     3     4    1
     7     4     5    1
     8     4     7    1
     9     5     6    2
    10     7     8    1
    11     8     9    1
    12     9    10   am
    13     9    19    2
    14    10    11    1
    15    11    12    1
    16    12    13   ar
    17    12    18   ar
    18    13    14   ar
    19    14    15   ar
    20    15    16    1
    21    15    17   ar
    22    17    18   ar
    23    20    21   ar
    24    20    32   ar
    25    21    22   ar
    26    21    29   ar
    27    22    23   ar
    28    23    24    1
    29    24    25    1
    30    25    26    1
    31    26    27    2
    32    26    28   am
    33    29    30   ar
    34    30    31   ar
    35    31    32   ar
