@<TRIPOS>MOLECULE
36920_ChemDiv_C378-0551
 31 33 0 0 0
SMALL
GASTEIGER
Energy = 0

@<TRIPOS>ATOM
      1 C          -1.3080   -0.4920    0.0000 C.ar    1  LIG1        0.2033
      2 C          -2.1710   -1.0000    0.0000 C.ar    1  LIG1        0.0395
      3 C          -3.0460   -0.4920    0.0000 C.ar    1  LIG1        0.0093
      4 C          -3.0460    0.4960    0.0000 C.ar    1  LIG1        0.0761
      5 C          -2.1710    1.0040    0.0000 C.ar    1  LIG1        0.3458
      6 O          -1.3080    0.4960    0.0000 O.2     1  LIG1       -0.4163
      7 O          -2.1710    2.0040    0.0000 O.2     1  LIG1       -0.2445
      8 C          -3.9080    1.0040    0.0000 C.ar    1  LIG1        0.0065
      9 C          -4.7710    0.4960    0.0000 C.ar    1  LIG1        0.0002
     10 C          -4.7710   -0.4920    0.0000 C.ar    1  LIG1        0.0000
     11 C          -3.9080   -1.0000    0.0000 C.ar    1  LIG1        0.0003
     12 C          -2.1710   -2.0000    0.0000 C.ar    1  LIG1        0.0031
     13 C          -3.0460   -2.4960    0.0000 C.ar    1  LIG1       -0.0002
     14 C          -3.0460   -3.4960    0.0000 C.ar    1  LIG1       -0.0043
     15 C          -2.1710   -3.9920    0.0000 C.ar    1  LIG1       -0.0218
     16 C          -1.3080   -3.4960    0.0000 C.ar    1  LIG1       -0.0043
     17 C          -1.3080   -2.4960    0.0000 C.ar    1  LIG1       -0.0002
     18 C          -2.1710   -4.9920    0.0000 C.3     1  LIG1        0.0310
     19 C          -0.4580   -1.0000    0.0000 C.2     1  LIG1        0.2996
     20 O          -0.4580   -2.0000    0.0000 O.2     1  LIG1       -0.2650
     21 N           0.4170   -0.4920    0.0000 N.am    1  LIG1       -0.1988
     22 C           0.4170    0.4960    0.0000 C.3     1  LIG1        0.1217
     23 C           1.2790    1.0040    0.0000 C.3     1  LIG1        0.0861
     24 C           1.2790    2.0040    0.0000 C.3     1  LIG1        0.1404
     25 N           2.1540    2.5000    0.0000 N.4     1  LIG1        0.3773
     26 C           3.0210    2.0040    0.0000 C.3     1  LIG1        0.1385
     27 C           3.8830    2.5000    0.0000 C.3     1  LIG1        0.0627
     28 C           4.7670    2.0040    0.0000 C.3     1  LIG1        0.0063
     29 C           2.1540    3.4880    0.0000 C.3     1  LIG1        0.1385
     30 C           1.2920    3.9960    0.0000 C.3     1  LIG1        0.0627
     31 C           1.2920    4.9920    0.0000 C.3     1  LIG1        0.0063
@<TRIPOS>BOND
     1     1     2   ar
     2     1     6   ar
     3     1    19    1
     4     2     3   ar
     5     2    12    1
     6     3     4   ar
     7     3    11   ar
     8     4     5   ar
     9     4     8   ar
    10     5     6   ar
    11     5     7    2
    12     8     9   ar
    13     9    10   ar
    14    10    11   ar
    15    12    13   ar
    16    12    17   ar
    17    13    14   ar
    18    14    15   ar
    19    15    16   ar
    20    15    18    1
    21    16    17   ar
    22    19    20    2
    23    19    21   am
    24    21    22    1
    25    22    23    1
    26    23    24    1
    27    24    25    1
    28    25    26    1
    29    25    29    1
    30    26    27    1
    31    27    28    1
    32    29    30    1
    33    30    31    1
