@<TRIPOS>MOLECULE
36925_ChemDiv_K279-0550
 40 43 0 0 0
SMALL
GASTEIGER
Energy = 0

@<TRIPOS>ATOM
      1 N          -2.0960    2.8380    0.0000 N.ar    1  LIG1       -0.1479
      2 C          -2.0960    3.8290    0.0000 C.ar    1  LIG1        0.3753
      3 N          -1.1580    4.1250    0.0000 N.2     1  LIG1        0.0755
      4 C          -0.5830    3.3330    0.0000 C.3     1  LIG1        0.3970
      5 C          -1.1580    2.5380    0.0000 C.2     1  LIG1        0.3288
      6 O          -0.8250    1.5750    0.0000 O.2     1  LIG1       -0.2637
      7 C           0.4250    3.3170    0.0000 C.3     1  LIG1        0.1047
      8 C           0.9170    4.1880    0.0000 C.3     1  LIG1        0.0946
      9 C           1.9290    4.1710    0.0000 C.2     1  LIG1        0.2416
     10 O           2.3920    3.3170    0.0000 O.2     1  LIG1       -0.2733
     11 N           2.4250    5.0330    0.0000 N.am    1  LIG1       -0.2054
     12 C           3.4250    5.0420    0.0000 C.3     1  LIG1        0.1151
     13 C           3.9330    5.8960    0.0000 C.3     1  LIG1        0.0234
     14 C           4.9330    5.9130    0.0000 C.3     1  LIG1        0.0018
     15 C           5.4250    6.7580    0.0000 C.3     1  LIG1        0.0001
     16 C          -2.9670    4.3380    0.0000 C.ar    1  LIG1        0.1585
     17 C          -3.8290    3.8290    0.0000 C.ar    1  LIG1        0.3068
     18 N          -3.8290    2.8380    0.0000 N.ar    1  LIG1        0.1032
     19 C          -2.9580    2.3290    0.0000 C.ar    1  LIG1        0.4035
     20 S          -2.9580    1.3380    0.0000 S.3     1  LIG1       -0.0096
     21 C          -2.0960    0.8540    0.0000 C.3     1  LIG1        0.1562
     22 C          -2.1170   -0.1670    0.0000 C.2     1  LIG1        0.2530
     23 O          -1.2460   -0.6750    0.0000 O.2     1  LIG1       -0.2724
     24 N          -2.9670   -0.6750    0.0000 N.am    1  LIG1       -0.2043
     25 C          -2.9290   -1.6830    0.0000 C.3     1  LIG1        0.1198
     26 C          -3.7830   -2.2080    0.0000 C.3     1  LIG1        0.0499
     27 C          -3.7500   -3.2130    0.0000 C.ar    1  LIG1       -0.0172
     28 C          -4.6040   -3.7420    0.0000 C.ar    1  LIG1        0.0358
     29 C          -4.5670   -4.7460    0.0000 C.ar    1  LIG1        0.1721
     30 C          -3.6880   -5.2210    0.0000 C.ar    1  LIG1        0.1724
     31 C          -2.8330   -4.6880    0.0000 C.ar    1  LIG1        0.0397
     32 C          -2.8670   -3.6790    0.0000 C.ar    1  LIG1       -0.0009
     33 O          -3.6500   -6.2290    0.0000 O.3     1  LIG1       -0.4684
     34 C          -4.5170   -6.7580    0.0000 C.3     1  LIG1        0.2526
     35 O          -5.4290   -5.2830    0.0000 O.3     1  LIG1       -0.4684
     36 C          -5.3710   -6.2920    0.0000 C.3     1  LIG1        0.2526
     37 C          -4.7000    4.3380    0.0000 C.ar    1  LIG1        0.0765
     38 C          -4.7000    5.3290    0.0000 C.ar    1  LIG1        0.0063
     39 C          -3.8380    5.8380    0.0000 C.ar    1  LIG1        0.0007
     40 C          -2.9880    5.3290    0.0000 C.ar    1  LIG1        0.0141
@<TRIPOS>BOND
     1     1     2   ar
     2     1     5   am
     3     1    19   ar
     4     2     3    2
     5     2    16   ar
     6     3     4    1
     7     4     5    1
     8     4     7    1
     9     5     6    2
    10     7     8    1
    11     8     9    1
    12     9    10    2
    13     9    11   am
    14    11    12    1
    15    12    13    1
    16    13    14    1
    17    14    15    1
    18    16    17   ar
    19    16    40   ar
    20    17    18   ar
    21    17    37   ar
    22    18    19   ar
    23    19    20    1
    24    20    21    1
    25    21    22    1
    26    22    23    2
    27    22    24   am
    28    24    25    1
    29    25    26    1
    30    26    27    1
    31    27    28   ar
    32    27    32   ar
    33    28    29   ar
    34    29    30   ar
    35    29    35    1
    36    30    31   ar
    37    30    33    1
    38    31    32   ar
    39    33    34    1
    40    35    36    1
    41    37    38   ar
    42    38    39   ar
    43    39    40   ar
