@<TRIPOS>MOLECULE
36928_ChemDiv_C607-0784
 31 34 0 0 0
SMALL
GASTEIGER
Energy = 0

@<TRIPOS>ATOM
      1 C          -0.7960   -0.2540    0.0000 C.ar    1  LIG1        0.2018
      2 C          -1.6750   -0.7540    0.0000 C.ar    1  LIG1        0.0395
      3 C          -2.5460   -0.2540    0.0000 C.ar    1  LIG1        0.0093
      4 C          -2.5460    0.7460    0.0000 C.ar    1  LIG1        0.0761
      5 C          -1.6830    1.2540    0.0000 C.ar    1  LIG1        0.3458
      6 O          -0.8080    0.7460    0.0000 O.2     1  LIG1       -0.4164
      7 O          -1.6830    2.2540    0.0000 O.2     1  LIG1       -0.2445
      8 C          -3.4130    1.2460    0.0000 C.ar    1  LIG1        0.0065
      9 C          -4.2830    0.7420    0.0000 C.ar    1  LIG1        0.0002
     10 C          -4.2830   -0.2670    0.0000 C.ar    1  LIG1        0.0000
     11 C          -3.4080   -0.7540    0.0000 C.ar    1  LIG1        0.0003
     12 C          -1.6710   -1.7500    0.0000 C.ar    1  LIG1        0.0031
     13 C          -2.5380   -2.2500    0.0000 C.ar    1  LIG1        0.0001
     14 C          -2.5380   -3.2460    0.0000 C.ar    1  LIG1        0.0000
     15 C          -1.6750   -3.7460    0.0000 C.ar    1  LIG1        0.0000
     16 C          -0.8080   -3.2420    0.0000 C.ar    1  LIG1        0.0000
     17 C          -0.8080   -2.2500    0.0000 C.ar    1  LIG1        0.0001
     18 C           0.0670   -0.7540    0.0000 C.2     1  LIG1        0.2842
     19 N           0.9290   -0.2540    0.0000 N.am    1  LIG1       -0.2664
     20 C           1.8000   -0.7540    0.0000 C.3     1  LIG1        0.1585
     21 C           2.6670   -0.2540    0.0000 C.ar    1  LIG1        0.1430
     22 O           2.8790    0.7290    0.0000 O.2     1  LIG1       -0.4530
     23 C           3.8630    0.8250    0.0000 C.ar    1  LIG1        0.1792
     24 C           4.2790   -0.0750    0.0000 C.ar    1  LIG1        0.0435
     25 C           3.5290   -0.7540    0.0000 C.ar    1  LIG1        0.0379
     26 C           0.9290    0.7460    0.0000 C.3     1  LIG1        0.0968
     27 C           0.0670    1.2460    0.0000 C.3     1  LIG1        0.0536
     28 C           0.0670    2.2540    0.0000 C.3     1  LIG1        0.1440
     29 O          -0.7920    2.7540    0.0000 O.3     1  LIG1       -0.3510
     30 C          -0.7920    3.7500    0.0000 C.3     1  LIG1        0.1741
     31 O           0.0790   -1.7500    0.0000 O.2     1  LIG1       -0.2665
@<TRIPOS>BOND
     1     1     2   ar
     2     1     6   ar
     3     1    18    1
     4     2     3   ar
     5     2    12    1
     6     3     4   ar
     7     3    11   ar
     8     4     5   ar
     9     4     8   ar
    10     5     6   ar
    11     5     7    2
    12     8     9   ar
    13     9    10   ar
    14    10    11   ar
    15    12    13   ar
    16    12    17   ar
    17    13    14   ar
    18    14    15   ar
    19    15    16   ar
    20    16    17   ar
    21    18    19   am
    22    18    31    2
    23    19    20    1
    24    19    26    1
    25    20    21    1
    26    21    22   ar
    27    21    25   ar
    28    22    23   ar
    29    23    24   ar
    30    24    25   ar
    31    26    27    1
    32    27    28    1
    33    28    29    1
    34    29    30    1
