@<TRIPOS>MOLECULE
36926_ChemDiv_C607-0760
 31 34 0 0 0
SMALL
GASTEIGER
Energy = 0

@<TRIPOS>ATOM
      1 C          -0.4380    0.4000    0.0000 C.ar    1  LIG1        0.2018
      2 C          -1.3040   -0.1000    0.0000 C.ar    1  LIG1        0.0395
      3 C          -2.1670    0.4000    0.0000 C.ar    1  LIG1        0.0093
      4 C          -2.1670    1.4000    0.0000 C.ar    1  LIG1        0.0761
      5 C          -1.3040    1.9000    0.0000 C.ar    1  LIG1        0.3458
      6 O          -0.4380    1.4000    0.0000 O.2     1  LIG1       -0.4164
      7 O          -1.3040    2.8960    0.0000 O.2     1  LIG1       -0.2445
      8 C          -3.0290    1.9000    0.0000 C.ar    1  LIG1        0.0065
      9 C          -3.9040    1.4000    0.0000 C.ar    1  LIG1        0.0002
     10 C          -3.9040    0.4000    0.0000 C.ar    1  LIG1        0.0000
     11 C          -3.0290   -0.1000    0.0000 C.ar    1  LIG1        0.0003
     12 C          -1.3040   -1.1040    0.0000 C.ar    1  LIG1        0.0031
     13 C          -0.4420   -1.6000    0.0000 C.ar    1  LIG1        0.0001
     14 C          -0.4420   -2.6000    0.0000 C.ar    1  LIG1        0.0000
     15 C          -1.3040   -3.1000    0.0000 C.ar    1  LIG1        0.0000
     16 C          -2.1790   -2.6000    0.0000 C.ar    1  LIG1        0.0000
     17 C          -2.1790   -1.6000    0.0000 C.ar    1  LIG1        0.0001
     18 C           0.4330   -0.1040    0.0000 C.2     1  LIG1        0.2842
     19 N           1.2960    0.3960    0.0000 N.am    1  LIG1       -0.2665
     20 C           1.2880    1.3960    0.0000 C.3     1  LIG1        0.1585
     21 C           2.1500    1.8920    0.0000 C.ar    1  LIG1        0.1430
     22 O           3.0670    1.4920    0.0000 O.2     1  LIG1       -0.4530
     23 C           3.7210    2.2330    0.0000 C.ar    1  LIG1        0.1792
     24 C           3.2080    3.1040    0.0000 C.ar    1  LIG1        0.0435
     25 C           2.2500    2.8920    0.0000 C.ar    1  LIG1        0.0379
     26 C           2.1630   -0.1040    0.0000 C.3     1  LIG1        0.0942
     27 C           2.1630   -1.1040    0.0000 C.3     1  LIG1        0.0215
     28 C           3.0380   -1.5960    0.0000 C.3     1  LIG1        0.0017
     29 C           3.0420   -2.5960    0.0000 C.3     1  LIG1        0.0001
     30 C           3.9000   -1.0880    0.0000 C.3     1  LIG1        0.0001
     31 O           0.4250   -1.1130    0.0000 O.2     1  LIG1       -0.2665
@<TRIPOS>BOND
     1     1     2   ar
     2     1     6   ar
     3     1    18    1
     4     2     3   ar
     5     2    12    1
     6     3     4   ar
     7     3    11   ar
     8     4     5   ar
     9     4     8   ar
    10     5     6   ar
    11     5     7    2
    12     8     9   ar
    13     9    10   ar
    14    10    11   ar
    15    12    13   ar
    16    12    17   ar
    17    13    14   ar
    18    14    15   ar
    19    15    16   ar
    20    16    17   ar
    21    18    19   am
    22    18    31    2
    23    19    20    1
    24    19    26    1
    25    20    21    1
    26    21    22   ar
    27    21    25   ar
    28    22    23   ar
    29    23    24   ar
    30    24    25   ar
    31    26    27    1
    32    27    28    1
    33    28    29    1
    34    28    30    1
