@<TRIPOS>MOLECULE
36929_ChemDiv_C324-1619
 31 34 0 0 0
SMALL
GASTEIGER
Energy = 0

@<TRIPOS>ATOM
      1 S           3.1460   -1.0790    0.0000 S.O2    1  LIG1        0.0672
      2 C           3.8210   -1.8210    0.0000 C.ar    1  LIG1        0.1715
      3 C           4.8040   -1.8210    0.0000 C.ar    1  LIG1        0.1729
      4 O           5.1290   -2.7670    0.0000 O.2     1  LIG1       -0.3567
      5 N           4.3170   -3.3670    0.0000 N.ar    1  LIG1       -0.0803
      6 C           3.5080   -2.7670    0.0000 C.ar    1  LIG1        0.1192
      7 C           2.5540   -3.0880    0.0000 C.3     1  LIG1        0.0571
      8 C           5.4080   -1.0130    0.0000 C.3     1  LIG1        0.0768
      9 N           2.4710   -0.3380    0.0000 N.3     1  LIG1       -0.1554
     10 C           1.5040   -0.5500    0.0000 C.3     1  LIG1        0.0963
     11 C           0.8290    0.1920    0.0000 C.3     1  LIG1        0.0283
     12 C           1.1330    1.1460    0.0000 C.3     1  LIG1        0.0796
     13 C           0.4670    1.8880    0.0000 C.2     1  LIG1        0.2253
     14 N          -0.5000    1.6920    0.0000 N.am    1  LIG1       -0.2760
     15 C          -1.1670    2.4380    0.0000 C.3     1  LIG1        0.1149
     16 C          -2.1380    2.2420    0.0000 C.3     1  LIG1        0.1153
     17 N          -2.4540    1.2790    0.0000 N.am    1  LIG1       -0.2701
     18 C          -3.4460    1.0830    0.0000 C.2     1  LIG1        0.2839
     19 C          -4.1130    1.8330    0.0000 C.ar    1  LIG1        0.1987
     20 O          -5.1040    1.8420    0.0000 O.2     1  LIG1       -0.4458
     21 C          -5.4130    2.7880    0.0000 C.ar    1  LIG1        0.1798
     22 C          -4.5960    3.3710    0.0000 C.ar    1  LIG1        0.0440
     23 C          -3.7920    2.7790    0.0000 C.ar    1  LIG1        0.0455
     24 O          -3.7630    0.1380    0.0000 O.2     1  LIG1       -0.2666
     25 C          -1.7960    0.5380    0.0000 C.3     1  LIG1        0.1153
     26 C          -0.8210    0.7380    0.0000 C.3     1  LIG1        0.1149
     27 O           0.7830    2.8380    0.0000 O.2     1  LIG1       -0.2749
     28 C           2.1080    1.3580    0.0000 C.3     1  LIG1        0.0283
     29 C           2.7830    0.6080    0.0000 C.3     1  LIG1        0.0963
     30 O           3.8960   -0.4080    0.0000 O.2     1  LIG1       -0.1526
     31 O           2.4040   -1.7540    0.0000 O.2     1  LIG1       -0.1526
@<TRIPOS>BOND
     1     1     2    1
     2     1     9    1
     3     1    30    2
     4     1    31    2
     5     2     3   ar
     6     2     6   ar
     7     3     4   ar
     8     3     8    1
     9     4     5   ar
    10     5     6   ar
    11     6     7    1
    12     9    10    1
    13     9    29    1
    14    10    11    1
    15    11    12    1
    16    12    13    1
    17    12    28    1
    18    13    14   am
    19    13    27    2
    20    14    15    1
    21    14    26    1
    22    15    16    1
    23    16    17    1
    24    17    18   am
    25    17    25    1
    26    18    19    1
    27    18    24    2
    28    19    20   ar
    29    19    23   ar
    30    20    21   ar
    31    21    22   ar
    32    22    23   ar
    33    25    26    1
    34    28    29    1
