@<TRIPOS>MOLECULE
36922_ChemDiv_C607-0728
 32 35 0 0 0
SMALL
GASTEIGER
Energy = 0

@<TRIPOS>ATOM
      1 C          -1.3080    1.2500    0.0000 C.ar    1  LIG1        0.2033
      2 C          -2.1710    0.7500    0.0000 C.ar    1  LIG1        0.0395
      3 C          -3.0330    1.2500    0.0000 C.ar    1  LIG1        0.0093
      4 C          -3.0330    2.2500    0.0000 C.ar    1  LIG1        0.0761
      5 C          -2.1710    2.7500    0.0000 C.ar    1  LIG1        0.3458
      6 O          -1.3080    2.2500    0.0000 O.2     1  LIG1       -0.4163
      7 O          -2.1710    3.7500    0.0000 O.2     1  LIG1       -0.2445
      8 C          -3.8960    2.7500    0.0000 C.ar    1  LIG1        0.0065
      9 C          -4.7630    2.2420    0.0000 C.ar    1  LIG1        0.0002
     10 C          -4.7630    1.2500    0.0000 C.ar    1  LIG1        0.0000
     11 C          -3.8960    0.7500    0.0000 C.ar    1  LIG1        0.0003
     12 C          -2.1710   -0.2580    0.0000 C.ar    1  LIG1        0.0031
     13 C          -3.0380   -0.7580    0.0000 C.ar    1  LIG1        0.0001
     14 C          -3.0380   -1.7630    0.0000 C.ar    1  LIG1        0.0000
     15 C          -2.1710   -2.2630    0.0000 C.ar    1  LIG1        0.0000
     16 C          -1.3080   -1.7630    0.0000 C.ar    1  LIG1        0.0000
     17 C          -1.3080   -0.7580    0.0000 C.ar    1  LIG1        0.0001
     18 C          -0.4290    0.7380    0.0000 C.2     1  LIG1        0.2996
     19 O          -0.4380   -0.2630    0.0000 O.2     1  LIG1       -0.2650
     20 N           0.4330    1.2380    0.0000 N.am    1  LIG1       -0.1988
     21 C           1.2960    0.7380    0.0000 C.3     1  LIG1        0.1217
     22 C           2.1630    1.2420    0.0000 C.3     1  LIG1        0.0861
     23 C           3.0250    0.7420    0.0000 C.3     1  LIG1        0.1412
     24 N           3.0250   -0.2580    0.0000 N.4     1  LIG1        0.3855
     25 C           3.8960   -0.7580    0.0000 C.3     1  LIG1        0.1665
     26 C           3.8960   -1.7580    0.0000 C.ar    1  LIG1        0.0344
     27 C           3.0250   -2.2460    0.0000 C.ar    1  LIG1        0.0014
     28 C           3.0250   -3.2460    0.0000 C.ar    1  LIG1       -0.0001
     29 C           3.8960   -3.7460    0.0000 C.ar    1  LIG1       -0.0000
     30 C           4.7580   -3.2460    0.0000 C.ar    1  LIG1       -0.0001
     31 C           4.7580   -2.2460    0.0000 C.ar    1  LIG1        0.0014
     32 C           2.1630   -0.7580    0.0000 C.3     1  LIG1        0.2027
@<TRIPOS>BOND
     1     1     2   ar
     2     1     6   ar
     3     1    18    1
     4     2     3   ar
     5     2    12    1
     6     3     4   ar
     7     3    11   ar
     8     4     5   ar
     9     4     8   ar
    10     5     6   ar
    11     5     7    2
    12     8     9   ar
    13     9    10   ar
    14    10    11   ar
    15    12    13   ar
    16    12    17   ar
    17    13    14   ar
    18    14    15   ar
    19    15    16   ar
    20    16    17   ar
    21    18    19    2
    22    18    20   am
    23    20    21    1
    24    21    22    1
    25    22    23    1
    26    23    24    1
    27    24    25    1
    28    24    32    1
    29    25    26    1
    30    26    27   ar
    31    26    31   ar
    32    27    28   ar
    33    28    29   ar
    34    29    30   ar
    35    30    31   ar
