@<TRIPOS>MOLECULE
36921_ChemDiv_K279-0235
 24 26 0 0 0
SMALL
GASTEIGER
Energy = 0

@<TRIPOS>ATOM
      1 N          -0.4210    0.3330    0.0000 N.ar    1  LIG1       -0.1479
      2 C          -1.2830    0.8460    0.0000 C.ar    1  LIG1        0.3753
      3 N          -1.0830    1.8250    0.0000 N.2     1  LIG1        0.0755
      4 C          -0.0750    1.9330    0.0000 C.3     1  LIG1        0.3962
      5 C           0.3210    1.0130    0.0000 C.2     1  LIG1        0.3287
      6 O           1.3210    0.9040    0.0000 O.2     1  LIG1       -0.2637
      7 C           0.4290    2.7920    0.0000 C.3     1  LIG1        0.0878
      8 C           1.4250    2.7830    0.0000 C.3     1  LIG1        0.0078
      9 C          -0.0710    3.6540    0.0000 C.3     1  LIG1        0.0078
     10 C          -2.1540    0.3330    0.0000 C.ar    1  LIG1        0.1585
     11 C          -2.1540   -0.6670    0.0000 C.ar    1  LIG1        0.3068
     12 N          -1.2830   -1.1630    0.0000 N.ar    1  LIG1        0.1032
     13 C          -0.4210   -0.6670    0.0000 C.ar    1  LIG1        0.4035
     14 S           0.4540   -1.1630    0.0000 S.3     1  LIG1       -0.0075
     15 C           0.4580   -2.1580    0.0000 C.3     1  LIG1        0.1789
     16 C           1.3290   -2.6540    0.0000 C.2     1  LIG1        0.3287
     17 O           1.3290   -3.6500    0.0000 O.2     1  LIG1       -0.2491
     18 O           2.1790   -2.1460    0.0000 O.3     1  LIG1       -0.4479
     19 C           3.0420   -2.6290    0.0000 C.3     1  LIG1        0.2086
     20 C           3.8880   -2.1250    0.0000 C.3     1  LIG1        0.0513
     21 C          -3.0210   -1.1630    0.0000 C.ar    1  LIG1        0.0765
     22 C          -3.8920   -0.6670    0.0000 C.ar    1  LIG1        0.0063
     23 C          -3.8920    0.3330    0.0000 C.ar    1  LIG1        0.0007
     24 C          -3.0210    0.8460    0.0000 C.ar    1  LIG1        0.0141
@<TRIPOS>BOND
     1     1     2   ar
     2     1     5   am
     3     1    13   ar
     4     2     3    2
     5     2    10   ar
     6     3     4    1
     7     4     5    1
     8     4     7    1
     9     5     6    2
    10     7     8    1
    11     7     9    1
    12    10    11   ar
    13    10    24   ar
    14    11    12   ar
    15    11    21   ar
    16    12    13   ar
    17    13    14    1
    18    14    15    1
    19    15    16    1
    20    16    17    2
    21    16    18    1
    22    18    19    1
    23    19    20    1
    24    21    22   ar
    25    22    23   ar
    26    23    24   ar
