@<TRIPOS>MOLECULE
36923_ChemDiv_K279-0538
 27 29 0 0 0
SMALL
GASTEIGER
Energy = 0

@<TRIPOS>ATOM
      1 N          -0.9630    0.5000    0.0000 N.ar    1  LIG1       -0.1479
      2 C          -0.9630    1.4920    0.0000 C.ar    1  LIG1        0.3753
      3 N          -0.0170    1.7960    0.0000 N.2     1  LIG1        0.0755
      4 C           0.5540    1.0000    0.0000 C.3     1  LIG1        0.3970
      5 C          -0.0170    0.2000    0.0000 C.2     1  LIG1        0.3288
      6 O           0.3130   -0.7670    0.0000 O.2     1  LIG1       -0.2637
      7 C           1.5710    0.9790    0.0000 C.3     1  LIG1        0.1047
      8 C           2.0630    1.8540    0.0000 C.3     1  LIG1        0.0946
      9 C           3.0750    1.8460    0.0000 C.2     1  LIG1        0.2416
     10 O           3.5670    2.7000    0.0000 O.2     1  LIG1       -0.2733
     11 N           3.5670    0.9790    0.0000 N.am    1  LIG1       -0.2054
     12 C           3.0750    0.1080    0.0000 C.3     1  LIG1        0.1151
     13 C           3.5670   -0.7670    0.0000 C.3     1  LIG1        0.0234
     14 C           3.0750   -1.6420    0.0000 C.3     1  LIG1        0.0018
     15 C           3.5670   -2.4960    0.0000 C.3     1  LIG1        0.0001
     16 C          -1.8330    2.0040    0.0000 C.ar    1  LIG1        0.1585
     17 C          -2.7000    1.4920    0.0000 C.ar    1  LIG1        0.3068
     18 N          -2.7000    0.5000    0.0000 N.ar    1  LIG1        0.1032
     19 C          -1.8250   -0.0130    0.0000 C.ar    1  LIG1        0.4040
     20 S          -1.8250   -1.0080    0.0000 S.3     1  LIG1       -0.0029
     21 C          -0.9630   -1.4880    0.0000 C.3     1  LIG1        0.1745
     22 C          -0.9830   -2.5130    0.0000 C.1     1  LIG1        0.0857
     23 N          -0.9830   -3.5080    0.0000 N.1     1  LIG1       -0.1949
     24 C          -3.5710    2.0040    0.0000 C.ar    1  LIG1        0.0765
     25 C          -3.5710    3.0000    0.0000 C.ar    1  LIG1        0.0063
     26 C          -2.7080    3.5130    0.0000 C.ar    1  LIG1        0.0007
     27 C          -1.8540    3.0000    0.0000 C.ar    1  LIG1        0.0141
@<TRIPOS>BOND
     1     1     2   ar
     2     1     5   am
     3     1    19   ar
     4     2     3    2
     5     2    16   ar
     6     3     4    1
     7     4     5    1
     8     4     7    1
     9     5     6    2
    10     7     8    1
    11     8     9    1
    12     9    10    2
    13     9    11   am
    14    11    12    1
    15    12    13    1
    16    13    14    1
    17    14    15    1
    18    16    17   ar
    19    16    27   ar
    20    17    18   ar
    21    17    24   ar
    22    18    19   ar
    23    19    20    1
    24    20    21    1
    25    21    22    1
    26    22    23    3
    27    24    25   ar
    28    25    26   ar
    29    26    27   ar
