@<TRIPOS>MOLECULE
36938_ChemDiv_C791-0444
 24 26 0 0 0
SMALL
GASTEIGER
Energy = 0

@<TRIPOS>ATOM
      1 N          -2.1080    1.7790    0.0000 N.ar    1  LIG1       -0.2414
      2 N          -1.5080    2.5960    0.0000 N.ar    1  LIG1       -0.1672
      3 C          -2.1080    3.4080    0.0000 C.ar    1  LIG1        0.1216
      4 C          -3.0580    3.0920    0.0000 C.ar    1  LIG1        0.0382
      5 C          -3.0580    2.0960    0.0000 C.ar    1  LIG1        0.0799
      6 C          -3.9210    1.5960    0.0000 C.ar    1  LIG1        0.0188
      7 C          -4.7830    2.0960    0.0000 C.ar    1  LIG1        0.0015
      8 C          -4.7830    3.0920    0.0000 C.ar    1  LIG1        0.0001
      9 C          -3.9210    3.5920    0.0000 C.ar    1  LIG1        0.0031
     10 C          -1.7920    0.8290    0.0000 C.3     1  LIG1        0.2135
     11 C          -0.8290    0.5750    0.0000 C.2     1  LIG1        0.2662
     12 N          -0.5710   -0.3830    0.0000 N.am    1  LIG1       -0.2054
     13 C           0.4130   -0.6420    0.0000 C.3     1  LIG1        0.0988
     14 C           0.6540   -1.6040    0.0000 C.3     1  LIG1        0.0433
     15 C           1.6250   -1.8580    0.0000 C.3     1  LIG1        0.0985
     16 N           2.3290   -1.1500    0.0000 N.am    1  LIG1       -0.2459
     17 C           3.2880   -1.3960    0.0000 C.2     1  LIG1        0.4049
     18 O           4.0000   -0.6880    0.0000 O.2     1  LIG1       -0.2262
     19 O           3.5460   -2.3630    0.0000 O.3     1  LIG1       -0.4345
     20 C           4.5210   -2.6210    0.0000 C.3     1  LIG1        0.2102
     21 C           4.7790   -3.5880    0.0000 C.3     1  LIG1        0.0513
     22 C           2.0580   -0.1830    0.0000 C.3     1  LIG1        0.0985
     23 C           1.0920    0.0710    0.0000 C.3     1  LIG1        0.0433
     24 O          -0.1290    1.2830    0.0000 O.2     1  LIG1       -0.2712
@<TRIPOS>BOND
     1     1     2   ar
     2     1     5   ar
     3     1    10    1
     4     2     3   ar
     5     3     4   ar
     6     4     5   ar
     7     4     9   ar
     8     5     6   ar
     9     6     7   ar
    10     7     8   ar
    11     8     9   ar
    12    10    11    1
    13    11    12   am
    14    11    24    2
    15    12    13    1
    16    13    14    1
    17    13    23    1
    18    14    15    1
    19    15    16    1
    20    16    17   am
    21    16    22    1
    22    17    18    2
    23    17    19    1
    24    19    20    1
    25    20    21    1
    26    22    23    1
