@<TRIPOS>MOLECULE
36939_ChemDiv_K906-2238
 17 17 0 0 0
SMALL
GASTEIGER
Energy = 0

@<TRIPOS>ATOM
      1 S          -1.2170   -0.0540    0.0000 S.O2    1  LIG1        0.0813
      2 C          -1.7670   -0.8880    0.0000 C.ar    1  LIG1        0.1728
      3 C          -1.4130   -1.8170    0.0000 C.ar    1  LIG1        0.1730
      4 O          -2.2000   -2.4420    0.0000 O.2     1  LIG1       -0.3567
      5 N          -3.0290   -1.9000    0.0000 N.ar    1  LIG1       -0.0803
      6 C          -2.7670   -0.9330    0.0000 C.ar    1  LIG1        0.1192
      7 C          -3.4080   -0.1460    0.0000 C.3     1  LIG1        0.0571
      8 C          -0.4290   -2.0920    0.0000 C.3     1  LIG1        0.0768
      9 N          -0.6710    0.7710    0.0000 N.3     1  LIG1       -0.0656
     10 C           0.3170    0.7130    0.0000 C.3     1  LIG1        0.2243
     11 C           0.8710    1.5500    0.0000 C.2     1  LIG1        0.3369
     12 O           0.4170    2.4460    0.0000 O.2     1  LIG1       -0.2484
     13 O           1.8580    1.4880    0.0000 O.3     1  LIG1       -0.4475
     14 C           2.4080    2.3330    0.0000 C.3     1  LIG1        0.2086
     15 C           3.4040    2.2710    0.0000 C.3     1  LIG1        0.0513
     16 O          -0.3880   -0.6040    0.0000 O.2     1  LIG1       -0.1515
     17 O          -2.0460    0.4920    0.0000 O.2     1  LIG1       -0.1515
@<TRIPOS>BOND
     1     1     2    1
     2     1     9    1
     3     1    16    2
     4     1    17    2
     5     2     3   ar
     6     2     6   ar
     7     3     4   ar
     8     3     8    1
     9     4     5   ar
    10     5     6   ar
    11     6     7    1
    12     9    10    1
    13    10    11    1
    14    11    12    2
    15    11    13    1
    16    13    14    1
    17    14    15    1
