@<TRIPOS>MOLECULE
36935_ChemDiv_C514-0346
 36 40 0 0 0
SMALL
GASTEIGER
Energy = 0

@<TRIPOS>ATOM
      1 S           0.4380    2.2790    0.0000 S.O2    1  LIG1        0.0676
      2 C           1.0250    3.0880    0.0000 C.ar    1  LIG1        0.1757
      3 C           2.0250    3.1000    0.0000 C.ar    1  LIG1        0.1952
      4 O           2.3330    4.0370    0.0000 O.2     1  LIG1       -0.3523
      5 N           1.5250    4.6330    0.0000 N.ar    1  LIG1       -0.0799
      6 C           0.7000    4.0370    0.0000 C.ar    1  LIG1        0.1195
      7 C          -0.2420    4.3500    0.0000 C.3     1  LIG1        0.0571
      8 C           2.6080    2.2920    0.0000 C.2     1  LIG1        0.0448
      9 C           3.6080    2.4000    0.0000 C.2     1  LIG1        0.0408
     10 C           4.1960    1.5880    0.0000 C.ar    1  LIG1        0.1456
     11 O           5.1960    1.5880    0.0000 O.2     1  LIG1       -0.4504
     12 C           5.5170    0.6330    0.0000 C.ar    1  LIG1        0.1796
     13 C           4.7080    0.0500    0.0000 C.ar    1  LIG1        0.0438
     14 C           3.8960    0.6330    0.0000 C.ar    1  LIG1        0.0407
     15 N          -0.0630    1.4210    0.0000 N.3     1  LIG1       -0.1554
     16 C          -1.0500    1.4210    0.0000 C.3     1  LIG1        0.0963
     17 C          -1.5500    0.5630    0.0000 C.3     1  LIG1        0.0283
     18 C          -1.0500   -0.3080    0.0000 C.3     1  LIG1        0.0814
     19 C          -1.5500   -1.1790    0.0000 C.2     1  LIG1        0.2452
     20 N          -2.5420   -1.1790    0.0000 N.am    1  LIG1       -0.1788
     21 C          -3.0420   -2.0500    0.0000 C.ar    1  LIG1        0.0851
     22 C          -2.5290   -2.9080    0.0000 C.ar    1  LIG1        0.0857
     23 C          -3.0040   -3.7750    0.0000 C.ar    1  LIG1        0.2974
     24 N          -4.0080   -3.8000    0.0000 N.ar    1  LIG1        0.0713
     25 C          -4.5210   -2.9420    0.0000 C.ar    1  LIG1        0.2759
     26 C          -4.0420   -2.0580    0.0000 C.ar    1  LIG1        0.0881
     27 C          -5.5210   -2.9670    0.0000 C.3     1  LIG1        0.1152
     28 C          -2.4920   -4.6330    0.0000 C.ar    1  LIG1        0.0762
     29 C          -1.4920   -4.6130    0.0000 C.ar    1  LIG1        0.0063
     30 C          -1.0170   -3.7420    0.0000 C.ar    1  LIG1        0.0004
     31 C          -1.5290   -2.8830    0.0000 C.ar    1  LIG1        0.0075
     32 O          -1.0500   -2.0380    0.0000 O.2     1  LIG1       -0.2730
     33 C          -0.0500   -0.3080    0.0000 C.3     1  LIG1        0.0283
     34 C           0.4500    0.5630    0.0000 C.3     1  LIG1        0.0963
     35 O           1.3080    1.7920    0.0000 O.2     1  LIG1       -0.1526
     36 O          -0.4290    2.7920    0.0000 O.2     1  LIG1       -0.1526
@<TRIPOS>BOND
     1     1     2    1
     2     1    15    1
     3     1    35    2
     4     1    36    2
     5     2     3   ar
     6     2     6   ar
     7     3     4   ar
     8     3     8    1
     9     4     5   ar
    10     5     6   ar
    11     6     7    1
    12     8     9    2
    13     9    10    1
    14    10    11   ar
    15    10    14   ar
    16    11    12   ar
    17    12    13   ar
    18    13    14   ar
    19    15    16    1
    20    15    34    1
    21    16    17    1
    22    17    18    1
    23    18    19    1
    24    18    33    1
    25    19    20   am
    26    19    32    2
    27    20    21    1
    28    21    22   ar
    29    21    26   ar
    30    22    23   ar
    31    22    31   ar
    32    23    24   ar
    33    23    28   ar
    34    24    25   ar
    35    25    26   ar
    36    25    27    1
    37    28    29   ar
    38    29    30   ar
    39    30    31   ar
    40    33    34    1
