@<TRIPOS>MOLECULE
36936_ChemDiv_C791-0441
 25 28 0 0 0
SMALL
GASTEIGER
Energy = 0

@<TRIPOS>ATOM
      1 N          -1.3540    2.6130    0.0000 N.ar    1  LIG1       -0.2415
      2 N          -0.7540    3.4290    0.0000 N.ar    1  LIG1       -0.1672
      3 C          -1.3540    4.2420    0.0000 C.ar    1  LIG1        0.1216
      4 C          -2.3080    3.9250    0.0000 C.ar    1  LIG1        0.0382
      5 C          -2.3080    2.9290    0.0000 C.ar    1  LIG1        0.0799
      6 C          -3.1710    2.4290    0.0000 C.ar    1  LIG1        0.0188
      7 C          -4.0330    2.9290    0.0000 C.ar    1  LIG1        0.0015
      8 C          -4.0330    3.9250    0.0000 C.ar    1  LIG1        0.0001
      9 C          -3.1710    4.4210    0.0000 C.ar    1  LIG1        0.0031
     10 C          -1.0380    1.6630    0.0000 C.3     1  LIG1        0.2120
     11 C          -0.0750    1.4040    0.0000 C.2     1  LIG1        0.2506
     12 N           0.1830    0.4500    0.0000 N.am    1  LIG1       -0.2744
     13 C           0.6210   -0.3040    0.0000 C.3     1  LIG1        0.1150
     14 C           1.5920   -0.5500    0.0000 C.3     1  LIG1        0.1153
     15 N           1.8500   -1.5330    0.0000 N.am    1  LIG1       -0.2701
     16 C           2.8330   -1.8040    0.0000 C.2     1  LIG1        0.2839
     17 C           3.0880   -2.7880    0.0000 C.ar    1  LIG1        0.1987
     18 O           4.0290   -3.1670    0.0000 O.2     1  LIG1       -0.4458
     19 C           3.9540   -4.1790    0.0000 C.ar    1  LIG1        0.1798
     20 C           2.9790   -4.4210    0.0000 C.ar    1  LIG1        0.0440
     21 C           2.4420   -3.5750    0.0000 C.ar    1  LIG1        0.0455
     22 O           3.5540   -1.0960    0.0000 O.2     1  LIG1       -0.2666
     23 C           1.1330   -0.8210    0.0000 C.3     1  LIG1        0.1153
     24 C           0.1830   -0.5580    0.0000 C.3     1  LIG1        0.1150
     25 O           0.6250    2.1170    0.0000 O.2     1  LIG1       -0.2727
@<TRIPOS>BOND
     1     1     2   ar
     2     1     5   ar
     3     1    10    1
     4     2     3   ar
     5     3     4   ar
     6     4     5   ar
     7     4     9   ar
     8     5     6   ar
     9     6     7   ar
    10     7     8   ar
    11     8     9   ar
    12    10    11    1
    13    11    12   am
    14    11    25    2
    15    12    13    1
    16    12    24    1
    17    13    14    1
    18    14    15    1
    19    15    16   am
    20    15    23    1
    21    16    17    1
    22    16    22    2
    23    17    18   ar
    24    17    21   ar
    25    18    19   ar
    26    19    20   ar
    27    20    21   ar
    28    23    24    1
