@<TRIPOS>MOLECULE
36946_ChemDiv_K953-0121
 25 27 0 0 0
SMALL
GASTEIGER
Energy = 0

@<TRIPOS>ATOM
      1 C          -0.0080   -0.9920    0.0000 C.ar    1  LIG1        0.2033
      2 C           0.8540   -0.4920    0.0000 C.ar    1  LIG1        0.0395
      3 C           1.7250   -0.9880    0.0000 C.ar    1  LIG1        0.0093
      4 C           1.7250   -1.9830    0.0000 C.ar    1  LIG1        0.0761
      5 C           0.8670   -2.4960    0.0000 C.ar    1  LIG1        0.3458
      6 O          -0.0040   -1.9920    0.0000 O.2     1  LIG1       -0.4163
      7 O           0.8670   -3.5000    0.0000 O.2     1  LIG1       -0.2445
      8 C           2.5960   -2.4830    0.0000 C.ar    1  LIG1        0.0065
      9 C           3.4630   -1.9750    0.0000 C.ar    1  LIG1        0.0002
     10 C           3.4580   -0.9790    0.0000 C.ar    1  LIG1        0.0000
     11 C           2.5880   -0.4880    0.0000 C.ar    1  LIG1        0.0003
     12 C           0.8540    0.5040    0.0000 C.ar    1  LIG1        0.0031
     13 C          -0.0040    0.9960    0.0000 C.ar    1  LIG1       -0.0002
     14 C          -0.0040    1.9960    0.0000 C.ar    1  LIG1       -0.0043
     15 C           0.8630    2.5040    0.0000 C.ar    1  LIG1       -0.0218
     16 C           1.7250    1.9960    0.0000 C.ar    1  LIG1       -0.0043
     17 C           1.7250    0.9960    0.0000 C.ar    1  LIG1       -0.0002
     18 C           0.8540    3.5040    0.0000 C.3     1  LIG1        0.0310
     19 C          -0.8790   -0.4920    0.0000 C.2     1  LIG1        0.2996
     20 N          -1.7460   -0.9880    0.0000 N.am    1  LIG1       -0.1991
     21 C          -1.7460   -1.9830    0.0000 C.3     1  LIG1        0.1155
     22 C          -2.6130   -2.4920    0.0000 C.3     1  LIG1        0.0217
     23 C          -2.6460   -3.4920    0.0000 C.3     1  LIG1        0.0018
     24 C          -3.4670   -1.9830    0.0000 C.3     1  LIG1        0.0018
     25 O          -0.8790    0.5080    0.0000 O.2     1  LIG1       -0.2650
@<TRIPOS>BOND
     1     1     2   ar
     2     1     6   ar
     3     1    19    1
     4     2     3   ar
     5     2    12    1
     6     3     4   ar
     7     3    11   ar
     8     4     5   ar
     9     4     8   ar
    10     5     6   ar
    11     5     7    2
    12     8     9   ar
    13     9    10   ar
    14    10    11   ar
    15    12    13   ar
    16    12    17   ar
    17    13    14   ar
    18    14    15   ar
    19    15    16   ar
    20    15    18    1
    21    16    17   ar
    22    19    20   am
    23    19    25    2
    24    20    21    1
    25    21    22    1
    26    22    23    1
    27    22    24    1
