@<TRIPOS>MOLECULE
36948_ChemDiv_C378-0048
 30 33 0 0 0
SMALL
GASTEIGER
Energy = 0

@<TRIPOS>ATOM
      1 C           1.2670   -0.5040    0.0000 C.ar    1  LIG1        0.2036
      2 C           2.1420    0.0000    0.0000 C.ar    1  LIG1        0.0395
      3 C           3.0080   -0.5040    0.0000 C.ar    1  LIG1        0.0093
      4 C           3.0080   -1.5040    0.0000 C.ar    1  LIG1        0.0761
      5 C           2.1420   -2.0080    0.0000 C.ar    1  LIG1        0.3458
      6 O           1.2670   -1.5040    0.0000 O.2     1  LIG1       -0.4163
      7 O           2.1420   -3.0130    0.0000 O.2     1  LIG1       -0.2445
      8 C           3.8830   -2.0080    0.0000 C.ar    1  LIG1        0.0065
      9 C           4.7580   -1.5040    0.0000 C.ar    1  LIG1        0.0002
     10 C           4.7580   -0.5040    0.0000 C.ar    1  LIG1        0.0000
     11 C           3.8830    0.0000    0.0000 C.ar    1  LIG1        0.0003
     12 C           2.1420    1.0040    0.0000 C.ar    1  LIG1        0.0031
     13 C           1.2670    1.5080    0.0000 C.ar    1  LIG1        0.0001
     14 C           1.2670    2.5080    0.0000 C.ar    1  LIG1        0.0000
     15 C           2.1420    3.0170    0.0000 C.ar    1  LIG1        0.0000
     16 C           3.0080    2.5080    0.0000 C.ar    1  LIG1        0.0000
     17 C           3.0080    1.5080    0.0000 C.ar    1  LIG1        0.0001
     18 C           0.4000    0.0000    0.0000 C.2     1  LIG1        0.3039
     19 N          -0.4750   -0.5040    0.0000 N.am    1  LIG1       -0.1698
     20 C          -1.3380    0.0000    0.0000 C.ar    1  LIG1        0.1078
     21 C          -2.1830   -0.4920    0.0000 C.ar    1  LIG1        0.1569
     22 C          -3.0420   -0.0080    0.0000 C.ar    1  LIG1        0.0751
     23 C          -3.0420    0.9750    0.0000 C.ar    1  LIG1        0.1418
     24 C          -2.1830    1.4790    0.0000 C.ar    1  LIG1        0.0384
     25 C          -1.3380    1.0040    0.0000 C.ar    1  LIG1        0.0228
     26 O          -3.9170    1.4790    0.0000 O.3     1  LIG1       -0.4713
     27 C          -4.7630    0.9830    0.0000 C.3     1  LIG1        0.2525
     28 O          -2.1830   -1.4830    0.0000 O.3     1  LIG1       -0.4700
     29 C          -3.0420   -1.9790    0.0000 C.3     1  LIG1        0.2525
     30 O           0.4000    1.0040    0.0000 O.2     1  LIG1       -0.2646
@<TRIPOS>BOND
     1     1     2   ar
     2     1     6   ar
     3     1    18    1
     4     2     3   ar
     5     2    12    1
     6     3     4   ar
     7     3    11   ar
     8     4     5   ar
     9     4     8   ar
    10     5     6   ar
    11     5     7    2
    12     8     9   ar
    13     9    10   ar
    14    10    11   ar
    15    12    13   ar
    16    12    17   ar
    17    13    14   ar
    18    14    15   ar
    19    15    16   ar
    20    16    17   ar
    21    18    19   am
    22    18    30    2
    23    19    20    1
    24    20    21   ar
    25    20    25   ar
    26    21    22   ar
    27    21    28    1
    28    22    23   ar
    29    23    24   ar
    30    23    26    1
    31    24    25   ar
    32    26    27    1
    33    28    29    1
