@<TRIPOS>MOLECULE
36940_ChemDiv_C791-0480
 20 21 0 0 0
SMALL
GASTEIGER
Energy = 0

@<TRIPOS>ATOM
      1 N          -2.4210    0.3040    0.0000 N.ar    1  LIG1       -0.2414
      2 N          -1.8210    1.1210    0.0000 N.ar    1  LIG1       -0.1672
      3 C          -2.4210    1.9380    0.0000 C.ar    1  LIG1        0.1216
      4 C          -3.3710    1.6210    0.0000 C.ar    1  LIG1        0.0382
      5 C          -3.3710    0.6210    0.0000 C.ar    1  LIG1        0.0799
      6 C          -4.2330    0.1250    0.0000 C.ar    1  LIG1        0.0188
      7 C          -5.0960    0.6210    0.0000 C.ar    1  LIG1        0.0015
      8 C          -5.0960    1.6210    0.0000 C.ar    1  LIG1        0.0001
      9 C          -4.2330    2.1170    0.0000 C.ar    1  LIG1        0.0031
     10 C          -2.1040   -0.6420    0.0000 C.3     1  LIG1        0.2135
     11 C          -1.1420   -0.9000    0.0000 C.2     1  LIG1        0.2662
     12 O          -0.4420   -0.1880    0.0000 O.2     1  LIG1       -0.2712
     13 N          -0.8830   -1.8580    0.0000 N.am    1  LIG1       -0.2037
     14 C           0.0880   -2.1130    0.0000 C.3     1  LIG1        0.1161
     15 C           0.7830   -1.4000    0.0000 C.3     1  LIG1        0.0351
     16 C           1.7500   -1.6540    0.0000 C.3     1  LIG1        0.0594
     17 S           2.4460   -0.9330    0.0000 S.3     1  LIG1       -0.1402
     18 C           3.4130   -1.1880    0.0000 C.3     1  LIG1        0.0576
     19 C           4.1170   -0.4750    0.0000 C.3     1  LIG1        0.0116
     20 C           5.0920   -0.7250    0.0000 C.3     1  LIG1        0.0009
@<TRIPOS>BOND
     1     1     2   ar
     2     1     5   ar
     3     1    10    1
     4     2     3   ar
     5     3     4   ar
     6     4     5   ar
     7     4     9   ar
     8     5     6   ar
     9     6     7   ar
    10     7     8   ar
    11     8     9   ar
    12    10    11    1
    13    11    12    2
    14    11    13   am
    15    13    14    1
    16    14    15    1
    17    15    16    1
    18    16    17    1
    19    17    18    1
    20    18    19    1
    21    19    20    1
