@<TRIPOS>MOLECULE
36944_ChemDiv_E002-0059
 22 24 0 0 0
SMALL
GASTEIGER
Energy = 0

@<TRIPOS>ATOM
      1 N          -0.8790    1.0210    0.0000 N.ar    1  LIG1       -0.2418
      2 N          -0.2960    1.8330    0.0000 N.ar    1  LIG1       -0.1732
      3 C          -0.8880    2.6420    0.0000 C.ar    1  LIG1        0.0804
      4 C          -1.8420    2.3250    0.0000 C.ar    1  LIG1        0.0325
      5 C          -1.8330    1.3250    0.0000 C.ar    1  LIG1        0.0796
      6 C          -2.7040    0.8210    0.0000 C.ar    1  LIG1        0.0188
      7 C          -3.5670    1.3210    0.0000 C.ar    1  LIG1        0.0015
      8 C          -3.5670    2.3250    0.0000 C.ar    1  LIG1        0.0001
      9 C          -2.7040    2.8250    0.0000 C.ar    1  LIG1        0.0027
     10 C          -0.5830    3.5920    0.0000 C.3     1  LIG1        0.0540
     11 C          -0.5710    0.0790    0.0000 C.3     1  LIG1        0.2135
     12 C           0.4000   -0.1790    0.0000 C.2     1  LIG1        0.2662
     13 N           0.6580   -1.1500    0.0000 N.am    1  LIG1       -0.2055
     14 C           1.6250   -1.4000    0.0000 C.3     1  LIG1        0.0953
     15 C           1.9000   -2.3630    0.0000 C.3     1  LIG1        0.0200
     16 C           2.8670   -2.6170    0.0000 C.3     1  LIG1        0.0017
     17 C           3.5630   -1.9170    0.0000 C.3     1  LIG1        0.0001
     18 C           3.3080   -0.9500    0.0000 C.3     1  LIG1        0.0018
     19 C           2.3380   -0.6960    0.0000 C.3     1  LIG1        0.0217
     20 C           3.1250   -3.5880    0.0000 C.3     1  LIG1        0.0001
     21 C           1.1960   -3.0710    0.0000 C.3     1  LIG1        0.0018
     22 O           1.0960    0.5330    0.0000 O.2     1  LIG1       -0.2712
@<TRIPOS>BOND
     1     1     2   ar
     2     1     5   ar
     3     1    11    1
     4     2     3   ar
     5     3     4   ar
     6     3    10    1
     7     4     5   ar
     8     4     9   ar
     9     5     6   ar
    10     6     7   ar
    11     7     8   ar
    12     8     9   ar
    13    11    12    1
    14    12    13   am
    15    12    22    2
    16    13    14    1
    17    14    15    1
    18    14    19    1
    19    15    16    1
    20    15    21    1
    21    16    17    1
    22    16    20    1
    23    17    18    1
    24    18    19    1
