@<TRIPOS>MOLECULE
36941_ChemDiv_K906-3795
 34 37 0 0 0
SMALL
GASTEIGER
Energy = 0

@<TRIPOS>ATOM
      1 S          -0.9130    1.5210    0.0000 S.O2    1  LIG1        0.0676
      2 C          -1.7880    2.0330    0.0000 C.ar    1  LIG1        0.1757
      3 C          -2.7380    1.7210    0.0000 C.ar    1  LIG1        0.1951
      4 O          -3.3170    2.5330    0.0000 O.2     1  LIG1       -0.3523
      5 N          -2.7210    3.3500    0.0000 N.ar    1  LIG1       -0.0799
      6 C          -1.7750    3.0380    0.0000 C.ar    1  LIG1        0.1195
      7 C          -0.9710    3.6380    0.0000 C.3     1  LIG1        0.0571
      8 C          -3.0420    0.7710    0.0000 C.2     1  LIG1        0.0416
      9 C          -4.0130    0.5580    0.0000 C.2     1  LIG1        0.0033
     10 C          -4.3250   -0.3920    0.0000 C.ar    1  LIG1       -0.0002
     11 C          -3.6500   -1.1250    0.0000 C.ar    1  LIG1       -0.0043
     12 C          -3.9500   -2.0750    0.0000 C.ar    1  LIG1       -0.0218
     13 C          -4.9290   -2.2880    0.0000 C.ar    1  LIG1       -0.0043
     14 C          -5.5960   -1.5580    0.0000 C.ar    1  LIG1       -0.0003
     15 C          -5.2920   -0.6040    0.0000 C.ar    1  LIG1       -0.0000
     16 C          -3.2830   -2.8170    0.0000 C.3     1  LIG1        0.0310
     17 N          -0.0460    1.0080    0.0000 N.3     1  LIG1       -0.1554
     18 C          -0.0460    0.0000    0.0000 C.3     1  LIG1        0.0963
     19 C           0.8130   -0.5000    0.0000 C.3     1  LIG1        0.0283
     20 C           1.6880    0.0000    0.0000 C.3     1  LIG1        0.0811
     21 C           2.5540   -0.5040    0.0000 C.2     1  LIG1        0.2409
     22 N           2.5540   -1.5130    0.0000 N.am    1  LIG1       -0.2072
     23 C           3.4130   -2.0130    0.0000 C.3     1  LIG1        0.0953
     24 C           3.4130   -3.0130    0.0000 C.3     1  LIG1        0.0217
     25 C           4.1830   -3.6330    0.0000 C.3     1  LIG1        0.0018
     26 C           5.1540   -3.4080    0.0000 C.3     1  LIG1        0.0001
     27 C           5.5920   -2.5000    0.0000 C.3     1  LIG1        0.0001
     28 C           5.1630   -1.6080    0.0000 C.3     1  LIG1        0.0018
     29 C           4.1830   -1.3920    0.0000 C.3     1  LIG1        0.0217
     30 O           3.4130   -0.0040    0.0000 O.2     1  LIG1       -0.2734
     31 C           1.6880    1.0080    0.0000 C.3     1  LIG1        0.0283
     32 C           0.8130    1.4960    0.0000 C.3     1  LIG1        0.0963
     33 O          -1.4290    0.6460    0.0000 O.2     1  LIG1       -0.1526
     34 O          -0.4000    2.3880    0.0000 O.2     1  LIG1       -0.1526
@<TRIPOS>BOND
     1     1     2    1
     2     1    17    1
     3     1    33    2
     4     1    34    2
     5     2     3   ar
     6     2     6   ar
     7     3     4   ar
     8     3     8    1
     9     4     5   ar
    10     5     6   ar
    11     6     7    1
    12     8     9    2
    13     9    10    1
    14    10    11   ar
    15    10    15   ar
    16    11    12   ar
    17    12    13   ar
    18    12    16    1
    19    13    14   ar
    20    14    15   ar
    21    17    18    1
    22    17    32    1
    23    18    19    1
    24    19    20    1
    25    20    21    1
    26    20    31    1
    27    21    22   am
    28    21    30    2
    29    22    23    1
    30    23    24    1
    31    23    29    1
    32    24    25    1
    33    25    26    1
    34    26    27    1
    35    27    28    1
    36    28    29    1
    37    31    32    1
