@<TRIPOS>MOLECULE
36942_ChemDiv_E002-0046
 19 21 0 0 0
SMALL
GASTEIGER
Energy = 0

@<TRIPOS>ATOM
      1 N          -0.7080    0.5000    0.0000 N.ar    1  LIG1       -0.2418
      2 N          -0.1290    1.3080    0.0000 N.ar    1  LIG1       -0.1732
      3 C          -0.7210    2.1170    0.0000 C.ar    1  LIG1        0.0804
      4 C          -1.6710    1.8000    0.0000 C.ar    1  LIG1        0.0325
      5 C          -1.6630    0.8000    0.0000 C.ar    1  LIG1        0.0796
      6 C          -2.5330    0.2960    0.0000 C.ar    1  LIG1        0.0188
      7 C          -3.3960    0.7960    0.0000 C.ar    1  LIG1        0.0015
      8 C          -3.3960    1.8000    0.0000 C.ar    1  LIG1        0.0001
      9 C          -2.5330    2.3080    0.0000 C.ar    1  LIG1        0.0027
     10 C          -0.4170    3.0630    0.0000 C.3     1  LIG1        0.0540
     11 C          -0.4040   -0.4460    0.0000 C.3     1  LIG1        0.2135
     12 C           0.5670   -0.7000    0.0000 C.2     1  LIG1        0.2662
     13 N           0.8210   -1.6670    0.0000 N.am    1  LIG1       -0.2055
     14 C           1.8000   -1.9250    0.0000 C.3     1  LIG1        0.0954
     15 C           1.9420   -2.9040    0.0000 C.3     1  LIG1        0.0217
     16 C           2.9380   -3.0580    0.0000 C.3     1  LIG1        0.0018
     17 C           3.3920   -2.1670    0.0000 C.3     1  LIG1        0.0018
     18 C           2.6830   -1.4580    0.0000 C.3     1  LIG1        0.0217
     19 O           1.2580    0.0080    0.0000 O.2     1  LIG1       -0.2712
@<TRIPOS>BOND
     1     1     2   ar
     2     1     5   ar
     3     1    11    1
     4     2     3   ar
     5     3     4   ar
     6     3    10    1
     7     4     5   ar
     8     4     9   ar
     9     5     6   ar
    10     6     7   ar
    11     7     8   ar
    12     8     9   ar
    13    11    12    1
    14    12    13   am
    15    12    19    2
    16    13    14    1
    17    14    15    1
    18    14    18    1
    19    15    16    1
    20    16    17    1
    21    17    18    1
