@<TRIPOS>MOLECULE
36949_ChemDiv_K279-0809
 37 40 0 0 0
SMALL
GASTEIGER
Energy = 0

@<TRIPOS>ATOM
      1 N          -2.2250    0.9920    0.0000 N.ar    1  LIG1       -0.1479
      2 C          -2.2250    1.9830    0.0000 C.ar    1  LIG1        0.3753
      3 N          -1.2830    2.2880    0.0000 N.2     1  LIG1        0.0755
      4 C          -0.7080    1.4920    0.0000 C.3     1  LIG1        0.3970
      5 C          -1.2830    0.6920    0.0000 C.2     1  LIG1        0.3288
      6 O          -0.9500   -0.2750    0.0000 O.2     1  LIG1       -0.2637
      7 C           0.3040    1.4710    0.0000 C.3     1  LIG1        0.1047
      8 C           0.7960    2.3460    0.0000 C.3     1  LIG1        0.0946
      9 C           1.8080    2.3380    0.0000 C.2     1  LIG1        0.2419
     10 N           2.3000    1.4710    0.0000 N.am    1  LIG1       -0.2004
     11 C           1.8080    0.6000    0.0000 C.3     1  LIG1        0.1445
     12 C           2.3000   -0.2750    0.0000 C.ar    1  LIG1        0.0334
     13 C           3.3170   -0.2750    0.0000 C.ar    1  LIG1        0.1364
     14 O           3.8290    0.6210    0.0000 O.3     1  LIG1       -0.4717
     15 C           4.8330    0.6000    0.0000 C.3     1  LIG1        0.2525
     16 C           3.8080   -1.1170    0.0000 C.ar    1  LIG1        0.0366
     17 C           3.3170   -1.9920    0.0000 C.ar    1  LIG1        0.0031
     18 C           2.3000   -2.0000    0.0000 C.ar    1  LIG1       -0.0001
     19 C           1.8080   -1.1460    0.0000 C.ar    1  LIG1        0.0005
     20 O           2.3000    3.1880    0.0000 O.2     1  LIG1       -0.2733
     21 C          -3.1000    2.4960    0.0000 C.ar    1  LIG1        0.1585
     22 C          -3.9630    1.9830    0.0000 C.ar    1  LIG1        0.3068
     23 N          -3.9630    0.9920    0.0000 N.ar    1  LIG1        0.1032
     24 C          -3.0880    0.4790    0.0000 C.ar    1  LIG1        0.4035
     25 S          -3.0880   -0.5170    0.0000 S.3     1  LIG1       -0.0096
     26 C          -2.2250   -0.9960    0.0000 C.3     1  LIG1        0.1562
     27 C          -2.2460   -2.0210    0.0000 C.2     1  LIG1        0.2529
     28 N          -1.3710   -2.5330    0.0000 N.am    1  LIG1       -0.2064
     29 C          -1.3710   -3.5170    0.0000 C.3     1  LIG1        0.0954
     30 C          -2.2250   -4.0000    0.0000 C.3     1  LIG1        0.0217
     31 C          -3.1000   -3.5170    0.0000 C.3     1  LIG1        0.0018
     32 C          -0.5000   -4.0000    0.0000 C.3     1  LIG1        0.0234
     33 O          -3.1000   -2.5330    0.0000 O.2     1  LIG1       -0.2724
     34 C          -4.8380    2.4960    0.0000 C.ar    1  LIG1        0.0765
     35 C          -4.8380    3.4920    0.0000 C.ar    1  LIG1        0.0063
     36 C          -3.9710    4.0000    0.0000 C.ar    1  LIG1        0.0007
     37 C          -3.1210    3.4920    0.0000 C.ar    1  LIG1        0.0141
@<TRIPOS>BOND
     1     1     2   ar
     2     1     5   am
     3     1    24   ar
     4     2     3    2
     5     2    21   ar
     6     3     4    1
     7     4     5    1
     8     4     7    1
     9     5     6    2
    10     7     8    1
    11     8     9    1
    12     9    10   am
    13     9    20    2
    14    10    11    1
    15    11    12    1
    16    12    13   ar
    17    12    19   ar
    18    13    14    1
    19    13    16   ar
    20    14    15    1
    21    16    17   ar
    22    17    18   ar
    23    18    19   ar
    24    21    22   ar
    25    21    37   ar
    26    22    23   ar
    27    22    34   ar
    28    23    24   ar
    29    24    25    1
    30    25    26    1
    31    26    27    1
    32    27    28   am
    33    27    33    2
    34    28    29    1
    35    29    30    1
    36    29    32    1
    37    30    31    1
    38    34    35   ar
    39    35    36   ar
    40    36    37   ar
