@<TRIPOS>MOLECULE
36943_ChemDiv_C324-3143
 26 27 0 0 0
SMALL
GASTEIGER
Energy = 0

@<TRIPOS>ATOM
      1 S           0.1670    0.7830    0.0000 S.O2    1  LIG1        0.0770
      2 C          -0.6920    0.2790    0.0000 C.ar    1  LIG1        0.1233
      3 C          -1.5630    0.7830    0.0000 C.ar    1  LIG1        0.0170
      4 C          -2.4330    0.2790    0.0000 C.ar    1  LIG1       -0.0054
      5 C          -2.4330   -0.7170    0.0000 C.ar    1  LIG1        0.0500
      6 N          -3.3830   -1.0210    0.0000 N.am    1  LIG1       -0.2586
      7 C          -3.8710   -1.8960    0.0000 C.2     1  LIG1        0.2293
      8 O          -3.3830   -2.7670    0.0000 O.2     1  LIG1       -0.2745
      9 C          -4.8790   -1.8960    0.0000 C.3     1  LIG1        0.0856
     10 C          -5.3710   -2.7670    0.0000 C.3     1  LIG1        0.0101
     11 C          -3.9630   -0.2290    0.0000 C.3     1  LIG1        0.1029
     12 C          -3.3830    0.5830    0.0000 C.3     1  LIG1        0.0495
     13 C          -1.5630   -1.2210    0.0000 C.ar    1  LIG1        0.0160
     14 C          -0.6920   -0.7170    0.0000 C.ar    1  LIG1        0.0212
     15 O           0.6710   -0.0920    0.0000 O.2     1  LIG1       -0.1516
     16 O          -0.3380    1.6380    0.0000 O.2     1  LIG1       -0.1516
     17 N           1.0380    1.2880    0.0000 N.3     1  LIG1       -0.0714
     18 C           1.8960    0.7830    0.0000 C.3     1  LIG1        0.1778
     19 C           2.7670    1.2880    0.0000 C.3     1  LIG1        0.1597
     20 N           3.6210    0.7830    0.0000 N.4     1  LIG1        0.3784
     21 C           4.4920    1.2880    0.0000 C.3     1  LIG1        0.1386
     22 C           4.4920    2.2790    0.0000 C.3     1  LIG1        0.0627
     23 C           5.3670    2.7710    0.0000 C.3     1  LIG1        0.0063
     24 C           3.6210   -0.2290    0.0000 C.3     1  LIG1        0.1386
     25 C           4.4920   -0.7170    0.0000 C.3     1  LIG1        0.0627
     26 C           4.4920   -1.7130    0.0000 C.3     1  LIG1        0.0063
@<TRIPOS>BOND
     1     1     2    1
     2     1    15    2
     3     1    16    2
     4     1    17    1
     5     2     3   ar
     6     2    14   ar
     7     3     4   ar
     8     4     5   ar
     9     4    12    1
    10     5     6    1
    11     5    13   ar
    12     6     7   am
    13     6    11    1
    14     7     8    2
    15     7     9    1
    16     9    10    1
    17    11    12    1
    18    13    14   ar
    19    17    18    1
    20    18    19    1
    21    19    20    1
    22    20    21    1
    23    20    24    1
    24    21    22    1
    25    22    23    1
    26    24    25    1
    27    25    26    1
