@<TRIPOS>MOLECULE
36956_ChemDiv_C378-0532
 36 40 0 0 0
SMALL
GASTEIGER
Energy = 0

@<TRIPOS>ATOM
      1 S           2.0710    2.7170    0.0000 S.O2    1  LIG1        0.0634
      2 N           2.0710    3.7380    0.0000 N.3     1  LIG1       -0.1504
      3 C           1.1830    4.2380    0.0000 C.3     1  LIG1        0.1279
      4 C           1.1830    5.2380    0.0000 C.3     1  LIG1        0.1613
      5 O           2.0630    5.7630    0.0000 O.3     1  LIG1       -0.3507
      6 C           2.9420    5.2500    0.0000 C.3     1  LIG1        0.1613
      7 C           2.9500    4.2380    0.0000 C.3     1  LIG1        0.1279
      8 C           2.0710    1.7170    0.0000 C.ar    1  LIG1        0.1223
      9 C           2.9500    1.2040    0.0000 C.ar    1  LIG1        0.0212
     10 C           2.9420    0.1920    0.0000 C.ar    1  LIG1        0.0180
     11 C           2.0710   -0.3040    0.0000 C.ar    1  LIG1        0.0739
     12 N           2.0630   -1.2960    0.0000 N.am    1  LIG1       -0.1728
     13 C           1.2040   -1.7920    0.0000 C.2     1  LIG1        0.3038
     14 C           0.3420   -1.2960    0.0000 C.ar    1  LIG1        0.2036
     15 C          -0.5170   -1.7920    0.0000 C.ar    1  LIG1        0.0395
     16 C          -1.3750   -1.2960    0.0000 C.ar    1  LIG1        0.0093
     17 C          -1.3750   -0.3040    0.0000 C.ar    1  LIG1        0.0761
     18 C          -0.5170    0.1920    0.0000 C.ar    1  LIG1        0.3458
     19 O           0.3420   -0.3040    0.0000 O.2     1  LIG1       -0.4163
     20 O          -0.5170    1.1830    0.0000 O.2     1  LIG1       -0.2445
     21 C          -2.2330    0.1920    0.0000 C.ar    1  LIG1        0.0065
     22 C          -3.0960   -0.3040    0.0000 C.ar    1  LIG1        0.0002
     23 C          -3.0960   -1.2960    0.0000 C.ar    1  LIG1        0.0000
     24 C          -2.2330   -1.7920    0.0000 C.ar    1  LIG1        0.0003
     25 C          -0.5170   -2.7830    0.0000 C.ar    1  LIG1        0.0031
     26 C          -1.3750   -3.2790    0.0000 C.ar    1  LIG1       -0.0002
     27 C          -1.3750   -4.2750    0.0000 C.ar    1  LIG1       -0.0043
     28 C          -0.5170   -4.7710    0.0000 C.ar    1  LIG1       -0.0218
     29 C           0.3420   -4.2750    0.0000 C.ar    1  LIG1       -0.0043
     30 C           0.3420   -3.2790    0.0000 C.ar    1  LIG1       -0.0002
     31 C          -0.5170   -5.7630    0.0000 C.3     1  LIG1        0.0310
     32 O           1.2040   -2.7830    0.0000 O.2     1  LIG1       -0.2646
     33 C           1.1960    0.2080    0.0000 C.ar    1  LIG1        0.0180
     34 C           1.2040    1.2130    0.0000 C.ar    1  LIG1        0.0212
     35 O           1.0630    2.7250    0.0000 O.2     1  LIG1       -0.1528
     36 O           3.0920    2.7250    0.0000 O.2     1  LIG1       -0.1528
@<TRIPOS>BOND
     1     1     2    1
     2     1     8    1
     3     1    35    2
     4     1    36    2
     5     2     3    1
     6     2     7    1
     7     3     4    1
     8     4     5    1
     9     5     6    1
    10     6     7    1
    11     8     9   ar
    12     8    34   ar
    13     9    10   ar
    14    10    11   ar
    15    11    12    1
    16    11    33   ar
    17    12    13   am
    18    13    14    1
    19    13    32    2
    20    14    15   ar
    21    14    19   ar
    22    15    16   ar
    23    15    25    1
    24    16    17   ar
    25    16    24   ar
    26    17    18   ar
    27    17    21   ar
    28    18    19   ar
    29    18    20    2
    30    21    22   ar
    31    22    23   ar
    32    23    24   ar
    33    25    26   ar
    34    25    30   ar
    35    26    27   ar
    36    27    28   ar
    37    28    29   ar
    38    28    31    1
    39    29    30   ar
    40    33    34   ar
