@<TRIPOS>MOLECULE
36952_ChemDiv_C378-0241
 35 39 0 0 0
SMALL
GASTEIGER
Energy = 0

@<TRIPOS>ATOM
      1 S          -3.0080    1.2420    0.0000 S.O2    1  LIG1        0.0634
      2 N          -3.8830    1.7500    0.0000 N.3     1  LIG1       -0.1504
      3 C          -4.7500    1.2290    0.0000 C.3     1  LIG1        0.1279
      4 C          -5.6290    1.7420    0.0000 C.3     1  LIG1        0.1613
      5 O          -5.6380    2.7420    0.0000 O.3     1  LIG1       -0.3507
      6 C          -4.7630    3.2540    0.0000 C.3     1  LIG1        0.1613
      7 C          -3.8830    2.7540    0.0000 C.3     1  LIG1        0.1279
      8 C          -2.1420    0.7380    0.0000 C.ar    1  LIG1        0.1223
      9 C          -2.1290   -0.2630    0.0000 C.ar    1  LIG1        0.0212
     10 C          -1.2750   -0.7630    0.0000 C.ar    1  LIG1        0.0180
     11 C          -0.4080   -0.2630    0.0000 C.ar    1  LIG1        0.0739
     12 N           0.4500   -0.7630    0.0000 N.am    1  LIG1       -0.1728
     13 C           1.3170   -0.2630    0.0000 C.2     1  LIG1        0.3038
     14 C           2.1750   -0.7630    0.0000 C.ar    1  LIG1        0.2036
     15 C           3.0420   -0.2630    0.0000 C.ar    1  LIG1        0.0395
     16 C           3.9000   -0.7630    0.0000 C.ar    1  LIG1        0.0093
     17 C           3.9000   -1.7540    0.0000 C.ar    1  LIG1        0.0761
     18 C           3.0420   -2.2580    0.0000 C.ar    1  LIG1        0.3458
     19 O           2.1750   -1.7540    0.0000 O.2     1  LIG1       -0.4163
     20 O           3.0420   -3.2500    0.0000 O.2     1  LIG1       -0.2445
     21 C           4.7670   -2.2580    0.0000 C.ar    1  LIG1        0.0065
     22 C           5.6330   -1.7540    0.0000 C.ar    1  LIG1        0.0002
     23 C           5.6330   -0.7630    0.0000 C.ar    1  LIG1        0.0000
     24 C           4.7670   -0.2630    0.0000 C.ar    1  LIG1        0.0003
     25 C           3.0420    0.7290    0.0000 C.ar    1  LIG1        0.0031
     26 C           3.9000    1.2290    0.0000 C.ar    1  LIG1        0.0001
     27 C           3.9000    2.2210    0.0000 C.ar    1  LIG1        0.0000
     28 C           3.0420    2.7250    0.0000 C.ar    1  LIG1        0.0000
     29 C           2.1750    2.2210    0.0000 C.ar    1  LIG1        0.0000
     30 C           2.1750    1.2290    0.0000 C.ar    1  LIG1        0.0001
     31 O           1.3170    0.7290    0.0000 O.2     1  LIG1       -0.2646
     32 C          -0.3960    0.7380    0.0000 C.ar    1  LIG1        0.0180
     33 C          -1.2630    1.2420    0.0000 C.ar    1  LIG1        0.0212
     34 O          -2.5080    2.1170    0.0000 O.2     1  LIG1       -0.1528
     35 O          -3.5170    0.3750    0.0000 O.2     1  LIG1       -0.1528
@<TRIPOS>BOND
     1     1     2    1
     2     1     8    1
     3     1    34    2
     4     1    35    2
     5     2     3    1
     6     2     7    1
     7     3     4    1
     8     4     5    1
     9     5     6    1
    10     6     7    1
    11     8     9   ar
    12     8    33   ar
    13     9    10   ar
    14    10    11   ar
    15    11    12    1
    16    11    32   ar
    17    12    13   am
    18    13    14    1
    19    13    31    2
    20    14    15   ar
    21    14    19   ar
    22    15    16   ar
    23    15    25    1
    24    16    17   ar
    25    16    24   ar
    26    17    18   ar
    27    17    21   ar
    28    18    19   ar
    29    18    20    2
    30    21    22   ar
    31    22    23   ar
    32    23    24   ar
    33    25    26   ar
    34    25    30   ar
    35    26    27   ar
    36    27    28   ar
    37    28    29   ar
    38    29    30   ar
    39    32    33   ar
