@<TRIPOS>MOLECULE
36958_ChemDiv_C378-0583
 35 38 0 0 0
SMALL
GASTEIGER
Energy = 0

@<TRIPOS>ATOM
      1 C           0.4080   -1.2670    0.0000 C.ar    1  LIG1        0.2036
      2 C          -0.4540   -1.7670    0.0000 C.ar    1  LIG1        0.0395
      3 C          -0.4540   -2.7630    0.0000 C.ar    1  LIG1        0.0093
      4 C           0.4080   -3.2710    0.0000 C.ar    1  LIG1        0.0761
      5 C           1.2830   -2.7630    0.0000 C.ar    1  LIG1        0.3458
      6 O           1.2830   -1.7670    0.0000 O.2     1  LIG1       -0.4163
      7 O           2.1460   -3.2710    0.0000 O.2     1  LIG1       -0.2445
      8 C           0.4080   -4.2540    0.0000 C.ar    1  LIG1        0.0065
      9 C          -0.4540   -4.7630    0.0000 C.ar    1  LIG1        0.0002
     10 C          -1.3170   -4.2540    0.0000 C.ar    1  LIG1        0.0000
     11 C          -1.3170   -3.2710    0.0000 C.ar    1  LIG1        0.0003
     12 C          -1.3170   -1.2670    0.0000 C.ar    1  LIG1        0.0031
     13 C          -2.1830   -1.7670    0.0000 C.ar    1  LIG1       -0.0002
     14 C          -3.0460   -1.2670    0.0000 C.ar    1  LIG1       -0.0043
     15 C          -3.0460   -0.2710    0.0000 C.ar    1  LIG1       -0.0218
     16 C          -2.1830    0.2380    0.0000 C.ar    1  LIG1       -0.0043
     17 C          -1.3170   -0.2710    0.0000 C.ar    1  LIG1       -0.0002
     18 C          -3.9080    0.2380    0.0000 C.3     1  LIG1        0.0310
     19 C           0.4080   -0.2710    0.0000 C.2     1  LIG1        0.3038
     20 N           1.2830    0.2380    0.0000 N.am    1  LIG1       -0.1728
     21 C           1.2830    1.2330    0.0000 C.ar    1  LIG1        0.0742
     22 C           0.4210    1.7500    0.0000 C.ar    1  LIG1        0.0231
     23 C           0.4290    2.7540    0.0000 C.ar    1  LIG1        0.0771
     24 C          -0.4330    3.2540    0.0000 C.2     1  LIG1        0.3414
     25 O          -1.3080    2.7670    0.0000 O.2     1  LIG1       -0.2449
     26 O          -0.4330    4.2460    0.0000 O.3     1  LIG1       -0.4413
     27 C          -1.2880    4.7630    0.0000 C.3     1  LIG1        0.2560
     28 C           1.3040    3.2460    0.0000 C.ar    1  LIG1        0.0130
     29 C           2.1670    2.7380    0.0000 C.ar    1  LIG1        0.0771
     30 C           3.0330    3.2330    0.0000 C.2     1  LIG1        0.3414
     31 O           3.9040    2.7170    0.0000 O.2     1  LIG1       -0.2449
     32 O           3.0420    4.2170    0.0000 O.3     1  LIG1       -0.4413
     33 C           2.1880    4.7250    0.0000 C.3     1  LIG1        0.2560
     34 C           2.1580    1.7210    0.0000 C.ar    1  LIG1        0.0231
     35 O          -0.4540    0.2380    0.0000 O.2     1  LIG1       -0.2646
@<TRIPOS>BOND
     1     1     2   ar
     2     1     6   ar
     3     1    19    1
     4     2     3   ar
     5     2    12    1
     6     3     4   ar
     7     3    11   ar
     8     4     5   ar
     9     4     8   ar
    10     5     6   ar
    11     5     7    2
    12     8     9   ar
    13     9    10   ar
    14    10    11   ar
    15    12    13   ar
    16    12    17   ar
    17    13    14   ar
    18    14    15   ar
    19    15    16   ar
    20    15    18    1
    21    16    17   ar
    22    19    20   am
    23    19    35    2
    24    20    21    1
    25    21    22   ar
    26    21    34   ar
    27    22    23   ar
    28    23    24    1
    29    23    28   ar
    30    24    25    2
    31    24    26    1
    32    26    27    1
    33    28    29   ar
    34    29    30    1
    35    29    34   ar
    36    30    31    2
    37    30    32    1
    38    32    33    1
