@<TRIPOS>MOLECULE
36950_ChemDiv_C378-0051
 28 31 0 0 0
SMALL
GASTEIGER
Energy = 0

@<TRIPOS>ATOM
      1 C          -0.0080   -0.2500    0.0000 C.ar    1  LIG1        0.2036
      2 C           0.8630    0.2540    0.0000 C.ar    1  LIG1        0.0395
      3 C           1.7250   -0.2500    0.0000 C.ar    1  LIG1        0.0093
      4 C           1.7250   -1.2460    0.0000 C.ar    1  LIG1        0.0761
      5 C           0.8630   -1.7500    0.0000 C.ar    1  LIG1        0.3458
      6 O          -0.0080   -1.2460    0.0000 O.2     1  LIG1       -0.4163
      7 O           0.8630   -2.7460    0.0000 O.2     1  LIG1       -0.2445
      8 C           2.5960   -1.7500    0.0000 C.ar    1  LIG1        0.0065
      9 C           3.4670   -1.2460    0.0000 C.ar    1  LIG1        0.0002
     10 C           3.4670   -0.2500    0.0000 C.ar    1  LIG1        0.0000
     11 C           2.5960    0.2540    0.0000 C.ar    1  LIG1        0.0003
     12 C           0.8630    1.2500    0.0000 C.ar    1  LIG1        0.0031
     13 C           1.7250    1.7540    0.0000 C.ar    1  LIG1        0.0001
     14 C           1.7250    2.7500    0.0000 C.ar    1  LIG1        0.0000
     15 C           0.8630    3.2540    0.0000 C.ar    1  LIG1        0.0000
     16 C          -0.0080    2.7500    0.0000 C.ar    1  LIG1        0.0000
     17 C          -0.0080    1.7540    0.0000 C.ar    1  LIG1        0.0001
     18 C          -0.8670    0.2540    0.0000 C.2     1  LIG1        0.3038
     19 N          -1.7380   -0.2500    0.0000 N.am    1  LIG1       -0.1732
     20 C          -1.7500   -1.2460    0.0000 C.ar    1  LIG1        0.0695
     21 C          -2.6000   -1.7420    0.0000 C.ar    1  LIG1       -0.0104
     22 C          -2.6080   -2.7460    0.0000 C.ar    1  LIG1       -0.0245
     23 C          -1.7380   -3.2420    0.0000 C.ar    1  LIG1       -0.0045
     24 C          -0.8790   -2.7380    0.0000 C.ar    1  LIG1        0.0010
     25 C          -0.8790   -1.7500    0.0000 C.ar    1  LIG1        0.0163
     26 C          -3.4710   -3.2500    0.0000 C.3     1  LIG1        0.0307
     27 C          -3.4710   -1.2380    0.0000 C.3     1  LIG1        0.0321
     28 O          -0.8670    1.2500    0.0000 O.2     1  LIG1       -0.2646
@<TRIPOS>BOND
     1     1     2   ar
     2     1     6   ar
     3     1    18    1
     4     2     3   ar
     5     2    12    1
     6     3     4   ar
     7     3    11   ar
     8     4     5   ar
     9     4     8   ar
    10     5     6   ar
    11     5     7    2
    12     8     9   ar
    13     9    10   ar
    14    10    11   ar
    15    12    13   ar
    16    12    17   ar
    17    13    14   ar
    18    14    15   ar
    19    15    16   ar
    20    16    17   ar
    21    18    19   am
    22    18    28    2
    23    19    20    1
    24    20    21   ar
    25    20    25   ar
    26    21    22   ar
    27    21    27    1
    28    22    23   ar
    29    22    26    1
    30    23    24   ar
    31    24    25   ar
