@<TRIPOS>MOLECULE
36955_ChemDiv_K279-1087
 28 31 0 0 0
SMALL
GASTEIGER
Energy = 0

@<TRIPOS>ATOM
      1 N          -2.2580    0.5040    0.0000 N.ar    1  LIG1       -0.1479
      2 C          -2.2580    1.5040    0.0000 C.ar    1  LIG1        0.3753
      3 N          -1.3080    1.8130    0.0000 N.2     1  LIG1        0.0760
      4 C          -0.7290    1.0040    0.0000 C.3     1  LIG1        0.4056
      5 C          -1.3080    0.1920    0.0000 C.2     1  LIG1        0.3293
      6 O          -1.0000   -0.7630    0.0000 O.2     1  LIG1       -0.2637
      7 C           0.2710    0.9920    0.0000 C.3     1  LIG1        0.1816
      8 C           0.7710    0.1290    0.0000 C.2     1  LIG1        0.2495
      9 N           1.7790    0.1290    0.0000 N.am    1  LIG1       -0.1970
     10 C           2.2790   -0.7330    0.0000 C.3     1  LIG1        0.1791
     11 C           3.2830   -0.7330    0.0000 C.ar    1  LIG1        0.1449
     12 O           3.9580   -1.4790    0.0000 O.2     1  LIG1       -0.4529
     13 C           4.8580   -1.0710    0.0000 C.ar    1  LIG1        0.1792
     14 C           4.7630   -0.0790    0.0000 C.ar    1  LIG1        0.0435
     15 C           3.7830    0.1290    0.0000 C.ar    1  LIG1        0.0380
     16 O           0.2710   -0.7380    0.0000 O.2     1  LIG1       -0.2731
     17 C          -3.1250    2.0040    0.0000 C.ar    1  LIG1        0.1585
     18 C          -3.9880    1.5040    0.0000 C.ar    1  LIG1        0.3068
     19 N          -3.9880    0.5040    0.0000 N.ar    1  LIG1        0.1032
     20 C          -3.1250    0.0040    0.0000 C.ar    1  LIG1        0.4040
     21 S          -3.1250   -0.9960    0.0000 S.3     1  LIG1       -0.0029
     22 C          -3.9880   -1.4960    0.0000 C.3     1  LIG1        0.1745
     23 C          -3.9880   -2.5040    0.0000 C.1     1  LIG1        0.0857
     24 N          -3.9880   -3.5000    0.0000 N.1     1  LIG1       -0.1949
     25 C          -4.8630    2.0040    0.0000 C.ar    1  LIG1        0.0765
     26 C          -4.8630    3.0080    0.0000 C.ar    1  LIG1        0.0063
     27 C          -3.9880    3.5040    0.0000 C.ar    1  LIG1        0.0007
     28 C          -3.1250    3.0080    0.0000 C.ar    1  LIG1        0.0141
@<TRIPOS>BOND
     1     1     2   ar
     2     1     5   am
     3     1    20   ar
     4     2     3    2
     5     2    17   ar
     6     3     4    1
     7     4     5    1
     8     4     7    1
     9     5     6    2
    10     7     8    1
    11     8     9   am
    12     8    16    2
    13     9    10    1
    14    10    11    1
    15    11    12   ar
    16    11    15   ar
    17    12    13   ar
    18    13    14   ar
    19    14    15   ar
    20    17    18   ar
    21    17    28   ar
    22    18    19   ar
    23    18    25   ar
    24    19    20   ar
    25    20    21    1
    26    21    22    1
    27    22    23    1
    28    23    24    3
    29    25    26   ar
    30    26    27   ar
    31    27    28   ar
