@<TRIPOS>MOLECULE
36957_ChemDiv_K279-1098
 31 34 0 0 0
SMALL
GASTEIGER
Energy = 0

@<TRIPOS>ATOM
      1 N          -1.8330    1.0080    0.0000 N.ar    1  LIG1       -0.1479
      2 C          -1.8330    2.0040    0.0000 C.ar    1  LIG1        0.3753
      3 N          -0.8790    2.3130    0.0000 N.2     1  LIG1        0.0760
      4 C          -0.2960    1.5040    0.0000 C.3     1  LIG1        0.4056
      5 C          -0.8790    0.6920    0.0000 C.2     1  LIG1        0.3293
      6 O          -0.5790   -0.2630    0.0000 O.2     1  LIG1       -0.2637
      7 C           0.7040    1.4960    0.0000 C.3     1  LIG1        0.1816
      8 C           1.2040    0.6330    0.0000 C.2     1  LIG1        0.2495
      9 N           2.2080    0.6330    0.0000 N.am    1  LIG1       -0.1970
     10 C           2.7080   -0.2290    0.0000 C.3     1  LIG1        0.1791
     11 C           3.7080   -0.2290    0.0000 C.ar    1  LIG1        0.1449
     12 O           4.3920   -0.9790    0.0000 O.2     1  LIG1       -0.4529
     13 C           5.2830   -0.5670    0.0000 C.ar    1  LIG1        0.1792
     14 C           5.1920    0.4210    0.0000 C.ar    1  LIG1        0.0435
     15 C           4.2080    0.6330    0.0000 C.ar    1  LIG1        0.0380
     16 O           0.7040   -0.2380    0.0000 O.2     1  LIG1       -0.2731
     17 C          -2.6960    2.5040    0.0000 C.ar    1  LIG1        0.1585
     18 C          -3.5630    2.0040    0.0000 C.ar    1  LIG1        0.3068
     19 N          -3.5630    1.0080    0.0000 N.ar    1  LIG1        0.1032
     20 C          -2.6960    0.5080    0.0000 C.ar    1  LIG1        0.4035
     21 S          -2.6960   -0.4920    0.0000 S.3     1  LIG1       -0.0075
     22 C          -3.5630   -0.9920    0.0000 C.3     1  LIG1        0.1789
     23 C          -3.5630   -2.0040    0.0000 C.2     1  LIG1        0.3287
     24 O          -2.6960   -2.5000    0.0000 O.2     1  LIG1       -0.2491
     25 O          -4.4250   -2.5000    0.0000 O.3     1  LIG1       -0.4479
     26 C          -4.4250   -3.5080    0.0000 C.3     1  LIG1        0.2086
     27 C          -5.2880   -4.0040    0.0000 C.3     1  LIG1        0.0513
     28 C          -4.4290    2.5040    0.0000 C.ar    1  LIG1        0.0765
     29 C          -4.4290    3.5080    0.0000 C.ar    1  LIG1        0.0063
     30 C          -3.5630    4.0040    0.0000 C.ar    1  LIG1        0.0007
     31 C          -2.6960    3.5080    0.0000 C.ar    1  LIG1        0.0141
@<TRIPOS>BOND
     1     1     2   ar
     2     1     5   am
     3     1    20   ar
     4     2     3    2
     5     2    17   ar
     6     3     4    1
     7     4     5    1
     8     4     7    1
     9     5     6    2
    10     7     8    1
    11     8     9   am
    12     8    16    2
    13     9    10    1
    14    10    11    1
    15    11    12   ar
    16    11    15   ar
    17    12    13   ar
    18    13    14   ar
    19    14    15   ar
    20    17    18   ar
    21    17    31   ar
    22    18    19   ar
    23    18    28   ar
    24    19    20   ar
    25    20    21    1
    26    21    22    1
    27    22    23    1
    28    23    24    2
    29    23    25    1
    30    25    26    1
    31    26    27    1
    32    28    29   ar
    33    29    30   ar
    34    30    31   ar
