@<TRIPOS>MOLECULE
36951_ChemDiv_K279-0976
 37 40 0 0 0
SMALL
GASTEIGER
Energy = 0

@<TRIPOS>ATOM
      1 N          -0.6540    2.2500    0.0000 N.ar    1  LIG1       -0.1479
      2 C          -0.6540    3.2580    0.0000 C.ar    1  LIG1        0.3753
      3 N           0.3000    3.5670    0.0000 N.2     1  LIG1        0.0755
      4 C           0.8880    2.7500    0.0000 C.3     1  LIG1        0.3970
      5 C           0.3000    1.9460    0.0000 C.2     1  LIG1        0.3288
      6 O           0.6040    0.9920    0.0000 O.2     1  LIG1       -0.2637
      7 C           1.8830    2.7500    0.0000 C.3     1  LIG1        0.1047
      8 C           2.3830    1.8880    0.0000 C.3     1  LIG1        0.0946
      9 C           3.3880    1.8880    0.0000 C.2     1  LIG1        0.2420
     10 N           3.8880    1.0250    0.0000 N.am    1  LIG1       -0.1972
     11 C           3.3880    0.1540    0.0000 C.3     1  LIG1        0.1791
     12 C           3.8880   -0.7170    0.0000 C.ar    1  LIG1        0.1449
     13 O           4.8670   -0.9290    0.0000 O.2     1  LIG1       -0.4529
     14 C           4.9630   -1.9130    0.0000 C.ar    1  LIG1        0.1792
     15 C           4.0630   -2.3250    0.0000 C.ar    1  LIG1        0.0435
     16 C           3.3880   -1.5790    0.0000 C.ar    1  LIG1        0.0380
     17 O           3.8880    2.7500    0.0000 O.2     1  LIG1       -0.2733
     18 C          -1.5170    3.7580    0.0000 C.ar    1  LIG1        0.1585
     19 C          -2.3790    3.2580    0.0000 C.ar    1  LIG1        0.3068
     20 N          -2.3790    2.2500    0.0000 N.ar    1  LIG1        0.1032
     21 C          -1.5170    1.7500    0.0000 C.ar    1  LIG1        0.4034
     22 S          -1.5170    0.7500    0.0000 S.3     1  LIG1       -0.0110
     23 C          -2.3790    0.2500    0.0000 C.3     1  LIG1        0.1370
     24 C          -2.3790   -0.7460    0.0000 C.2     1  LIG1        0.2516
     25 O          -1.5170   -1.2460    0.0000 O.2     1  LIG1       -0.2724
     26 N          -3.2420   -1.2460    0.0000 N.am    1  LIG1       -0.2046
     27 C          -3.2420   -2.2500    0.0000 C.3     1  LIG1        0.1178
     28 C          -4.1040   -2.7500    0.0000 C.3     1  LIG1        0.0555
     29 C          -4.1040   -3.7580    0.0000 C.3     1  LIG1        0.1441
     30 O          -4.9670   -4.2580    0.0000 O.3     1  LIG1       -0.3510
     31 C          -4.9670   -5.2580    0.0000 C.3     1  LIG1        0.1741
     32 C          -3.2460    0.7500    0.0000 C.3     1  LIG1        0.0207
     33 C          -3.2460    1.7580    0.0000 C.3     1  LIG1        0.0014
     34 C          -3.2460    3.7580    0.0000 C.ar    1  LIG1        0.0765
     35 C          -3.2460    4.7580    0.0000 C.ar    1  LIG1        0.0063
     36 C          -2.3790    5.2580    0.0000 C.ar    1  LIG1        0.0007
     37 C          -1.5170    4.7580    0.0000 C.ar    1  LIG1        0.0141
@<TRIPOS>BOND
     1     1     2   ar
     2     1     5   am
     3     1    21   ar
     4     2     3    2
     5     2    18   ar
     6     3     4    1
     7     4     5    1
     8     4     7    1
     9     5     6    2
    10     7     8    1
    11     8     9    1
    12     9    10   am
    13     9    17    2
    14    10    11    1
    15    11    12    1
    16    12    13   ar
    17    12    16   ar
    18    13    14   ar
    19    14    15   ar
    20    15    16   ar
    21    18    19   ar
    22    18    37   ar
    23    19    20   ar
    24    19    34   ar
    25    20    21   ar
    26    21    22    1
    27    22    23    1
    28    23    24    1
    29    23    32    1
    30    24    25    2
    31    24    26   am
    32    26    27    1
    33    27    28    1
    34    28    29    1
    35    29    30    1
    36    30    31    1
    37    32    33    1
    38    34    35   ar
    39    35    36   ar
    40    36    37   ar
