@<TRIPOS>MOLECULE
36963_ChemDiv_C361-0774
 30 33 0 0 0
SMALL
GASTEIGER
Energy = 0

@<TRIPOS>ATOM
      1 N          -1.9790   -3.5540    0.0000 N.am    1  LIG1       -0.2586
      2 C          -2.4710   -4.4210    0.0000 C.2     1  LIG1        0.2288
      3 C          -3.4710   -4.4210    0.0000 C.3     1  LIG1        0.0771
      4 C          -4.3250   -4.9170    0.0000 C.3     1  LIG1        0.0096
      5 C          -4.3250   -3.9170    0.0000 C.3     1  LIG1        0.0096
      6 O          -1.9790   -5.2750    0.0000 O.2     1  LIG1       -0.2745
      7 C          -1.0290   -3.2500    0.0000 C.ar    1  LIG1        0.0500
      8 C          -1.0290   -2.2460    0.0000 C.ar    1  LIG1       -0.0054
      9 C          -0.1630   -1.7540    0.0000 C.ar    1  LIG1        0.0170
     10 C           0.6920   -2.2460    0.0000 C.ar    1  LIG1        0.1233
     11 S           1.5580   -1.7540    0.0000 S.O2    1  LIG1        0.0768
     12 O           2.0540   -2.6210    0.0000 O.2     1  LIG1       -0.1516
     13 O           1.0670   -0.9000    0.0000 O.2     1  LIG1       -0.1516
     14 N           2.4290   -1.2580    0.0000 N.3     1  LIG1       -0.0774
     15 C           2.4290   -0.2580    0.0000 C.3     1  LIG1        0.1201
     16 C           3.2960    0.2380    0.0000 C.3     1  LIG1        0.0472
     17 C           3.2960    1.2500    0.0000 C.ar    1  LIG1       -0.0206
     18 C           4.1630    1.7580    0.0000 C.ar    1  LIG1       -0.0028
     19 C           4.1630    2.7580    0.0000 C.ar    1  LIG1        0.0197
     20 C           3.2960    3.2540    0.0000 C.ar    1  LIG1        0.1250
     21 S           3.3080    4.2750    0.0000 S.O2    1  LIG1        0.0935
     22 O           2.2790    4.2750    0.0000 O.2     1  LIG1       -0.1503
     23 O           4.3210    4.2630    0.0000 O.2     1  LIG1       -0.1503
     24 N           3.3080    5.2750    0.0000 N.3     1  LIG1        0.0392
     25 C           2.4290    2.7580    0.0000 C.ar    1  LIG1        0.0197
     26 C           2.4130    1.7580    0.0000 C.ar    1  LIG1       -0.0028
     27 C           0.6920   -3.2500    0.0000 C.ar    1  LIG1        0.0212
     28 C          -0.1630   -3.7420    0.0000 C.ar    1  LIG1        0.0160
     29 C          -1.9790   -1.9420    0.0000 C.3     1  LIG1        0.0495
     30 C          -2.5500   -2.7540    0.0000 C.3     1  LIG1        0.1029
@<TRIPOS>BOND
     1     1     2   am
     2     1     7    1
     3     1    30    1
     4     2     3    1
     5     2     6    2
     6     3     4    1
     7     3     5    1
     8     4     5    1
     9     7     8   ar
    10     7    28   ar
    11     8     9   ar
    12     8    29    1
    13     9    10   ar
    14    10    11    1
    15    10    27   ar
    16    11    12    2
    17    11    13    2
    18    11    14    1
    19    14    15    1
    20    15    16    1
    21    16    17    1
    22    17    18   ar
    23    17    26   ar
    24    18    19   ar
    25    19    20   ar
    26    20    21    1
    27    20    25   ar
    28    21    22    2
    29    21    23    2
    30    21    24    1
    31    25    26   ar
    32    27    28   ar
    33    29    30    1
