@<TRIPOS>MOLECULE
36960_ChemDiv_C378-0591
 33 36 0 0 0
SMALL
GASTEIGER
Energy = 0

@<TRIPOS>ATOM
      1 C          -1.2830    1.0040    0.0000 C.ar    1  LIG1        0.2036
      2 C          -2.1580    0.5080    0.0000 C.ar    1  LIG1        0.0395
      3 C          -3.0210    1.0040    0.0000 C.ar    1  LIG1        0.0093
      4 C          -3.0210    2.0170    0.0000 C.ar    1  LIG1        0.0761
      5 C          -2.1580    2.5080    0.0000 C.ar    1  LIG1        0.3458
      6 O          -1.2830    2.0170    0.0000 O.2     1  LIG1       -0.4163
      7 O          -2.1580    3.5130    0.0000 O.2     1  LIG1       -0.2445
      8 C          -3.8960    2.5080    0.0000 C.ar    1  LIG1        0.0065
      9 C          -4.7580    2.0170    0.0000 C.ar    1  LIG1        0.0002
     10 C          -4.7580    1.0040    0.0000 C.ar    1  LIG1        0.0000
     11 C          -3.8960    0.5080    0.0000 C.ar    1  LIG1        0.0003
     12 C          -2.1580   -0.4920    0.0000 C.ar    1  LIG1        0.0031
     13 C          -3.0210   -1.0000    0.0000 C.ar    1  LIG1       -0.0002
     14 C          -3.0210   -2.0000    0.0000 C.ar    1  LIG1       -0.0043
     15 C          -2.1580   -2.5040    0.0000 C.ar    1  LIG1       -0.0218
     16 C          -1.2830   -2.0000    0.0000 C.ar    1  LIG1       -0.0043
     17 C          -1.2830   -1.0000    0.0000 C.ar    1  LIG1       -0.0002
     18 C          -2.1580   -3.5080    0.0000 C.3     1  LIG1        0.0310
     19 C          -0.4210    0.5080    0.0000 C.2     1  LIG1        0.3038
     20 N           0.4540    1.0040    0.0000 N.am    1  LIG1       -0.1726
     21 C           1.3170    0.5080    0.0000 C.ar    1  LIG1        0.0800
     22 C           2.1790    1.0040    0.0000 C.ar    1  LIG1        0.0568
     23 C           3.0420    0.5080    0.0000 C.ar    1  LIG1        0.1767
     24 C           3.0420   -0.4790    0.0000 C.ar    1  LIG1        0.2061
     25 C           2.1670   -0.9880    0.0000 C.ar    1  LIG1        0.1767
     26 C           1.3170   -0.4920    0.0000 C.ar    1  LIG1        0.0568
     27 O           2.1670   -1.9880    0.0000 O.3     1  LIG1       -0.4682
     28 C           3.0420   -2.4830    0.0000 C.3     1  LIG1        0.2526
     29 O           3.8920   -0.9750    0.0000 O.3     1  LIG1       -0.4654
     30 C           3.9040   -1.9750    0.0000 C.3     1  LIG1        0.2528
     31 O           3.8920    1.0040    0.0000 O.3     1  LIG1       -0.4682
     32 C           4.7540    0.5080    0.0000 C.3     1  LIG1        0.2526
     33 O          -0.4210   -0.4920    0.0000 O.2     1  LIG1       -0.2646
@<TRIPOS>BOND
     1     1     2   ar
     2     1     6   ar
     3     1    19    1
     4     2     3   ar
     5     2    12    1
     6     3     4   ar
     7     3    11   ar
     8     4     5   ar
     9     4     8   ar
    10     5     6   ar
    11     5     7    2
    12     8     9   ar
    13     9    10   ar
    14    10    11   ar
    15    12    13   ar
    16    12    17   ar
    17    13    14   ar
    18    14    15   ar
    19    15    16   ar
    20    15    18    1
    21    16    17   ar
    22    19    20   am
    23    19    33    2
    24    20    21    1
    25    21    22   ar
    26    21    26   ar
    27    22    23   ar
    28    23    24   ar
    29    23    31    1
    30    24    25   ar
    31    24    29    1
    32    25    26   ar
    33    25    27    1
    34    27    28    1
    35    29    30    1
    36    31    32    1
