@<TRIPOS>MOLECULE
36962_ChemDiv_E002-0104
 19 21 0 0 0
SMALL
GASTEIGER
Energy = 0

@<TRIPOS>ATOM
      1 N           0.3500    1.1130    0.0000 N.ar    1  LIG1       -0.2415
      2 N           0.9290    1.9080    0.0000 N.ar    1  LIG1       -0.1672
      3 C           0.3500    2.7250    0.0000 C.ar    1  LIG1        0.1216
      4 C          -0.6000    2.4130    0.0000 C.ar    1  LIG1        0.0382
      5 C          -0.6000    1.4130    0.0000 C.ar    1  LIG1        0.0796
      6 C          -1.4710    0.9130    0.0000 C.ar    1  LIG1        0.0145
      7 C          -2.3330    1.4130    0.0000 C.ar    1  LIG1       -0.0204
      8 C          -2.3330    2.4130    0.0000 C.ar    1  LIG1       -0.0041
      9 C          -1.4710    2.9210    0.0000 C.ar    1  LIG1        0.0028
     10 C          -3.2080    0.9000    0.0000 C.3     1  LIG1        0.0311
     11 C           0.6580    0.1500    0.0000 C.3     1  LIG1        0.2120
     12 C           1.6210   -0.0630    0.0000 C.2     1  LIG1        0.2505
     13 N           1.9330   -1.0170    0.0000 N.am    1  LIG1       -0.2779
     14 C           1.2540   -1.7500    0.0000 C.3     1  LIG1        0.0935
     15 C           1.5460   -2.7000    0.0000 C.3     1  LIG1        0.0216
     16 C           2.5290   -2.9170    0.0000 C.3     1  LIG1        0.0035
     17 C           3.2040   -2.1790    0.0000 C.3     1  LIG1        0.0216
     18 C           2.9040   -1.2290    0.0000 C.3     1  LIG1        0.0935
     19 O           2.3000    0.6750    0.0000 O.2     1  LIG1       -0.2727
@<TRIPOS>BOND
     1     1     2   ar
     2     1     5   ar
     3     1    11    1
     4     2     3   ar
     5     3     4   ar
     6     4     5   ar
     7     4     9   ar
     8     5     6   ar
     9     6     7   ar
    10     7     8   ar
    11     7    10    1
    12     8     9   ar
    13    11    12    1
    14    12    13   am
    15    12    19    2
    16    13    14    1
    17    13    18    1
    18    14    15    1
    19    15    16    1
    20    16    17    1
    21    17    18    1
