@<TRIPOS>MOLECULE
36961_ChemDiv_C361-0712
 30 34 0 0 0
SMALL
GASTEIGER
Energy = 0

@<TRIPOS>ATOM
      1 S          -0.0670    0.7710    0.0000 S.O2    1  LIG1        0.0633
      2 N           0.7960    1.2790    0.0000 N.3     1  LIG1       -0.1555
      3 C           1.6630    0.7710    0.0000 C.3     1  LIG1        0.0958
      4 C           2.5250    1.2790    0.0000 C.3     1  LIG1        0.0195
      5 C           2.5250    2.2710    0.0000 C.3     1  LIG1        0.0072
      6 C           3.3880    2.7670    0.0000 C.3     1  LIG1        0.0264
      7 C           4.2500    2.2880    0.0000 C.ar    1  LIG1       -0.0222
      8 C           4.2500    1.2790    0.0000 C.ar    1  LIG1       -0.0043
      9 C           5.1130    0.7880    0.0000 C.ar    1  LIG1       -0.0003
     10 C           5.9920    1.2790    0.0000 C.ar    1  LIG1       -0.0000
     11 C           5.9790    2.2710    0.0000 C.ar    1  LIG1       -0.0003
     12 C           5.1130    2.7830    0.0000 C.ar    1  LIG1       -0.0043
     13 C           1.6630    2.7670    0.0000 C.3     1  LIG1        0.0195
     14 C           0.7960    2.2710    0.0000 C.3     1  LIG1        0.0958
     15 C          -0.9460    0.2750    0.0000 C.ar    1  LIG1        0.1220
     16 C          -1.8080    0.7710    0.0000 C.ar    1  LIG1        0.0169
     17 C          -2.6710    0.2750    0.0000 C.ar    1  LIG1       -0.0054
     18 C          -2.6710   -0.7330    0.0000 C.ar    1  LIG1        0.0500
     19 N          -3.6330   -1.0380    0.0000 N.am    1  LIG1       -0.2586
     20 C          -4.1250   -1.9000    0.0000 C.2     1  LIG1        0.2288
     21 C          -5.1170   -1.9000    0.0000 C.3     1  LIG1        0.0771
     22 C          -5.9960   -2.4130    0.0000 C.3     1  LIG1        0.0096
     23 C          -5.9960   -1.4040    0.0000 C.3     1  LIG1        0.0096
     24 O          -3.6330   -2.7790    0.0000 O.2     1  LIG1       -0.2745
     25 C          -4.2080   -0.2210    0.0000 C.3     1  LIG1        0.1029
     26 C          -3.6330    0.5790    0.0000 C.3     1  LIG1        0.0495
     27 C          -1.8080   -1.2290    0.0000 C.ar    1  LIG1        0.0160
     28 C          -0.9460   -0.7330    0.0000 C.ar    1  LIG1        0.0212
     29 O          -0.5790    1.6330    0.0000 O.2     1  LIG1       -0.1528
     30 O           0.4290   -0.0960    0.0000 O.2     1  LIG1       -0.1528
@<TRIPOS>BOND
     1     1     2    1
     2     1    15    1
     3     1    29    2
     4     1    30    2
     5     2     3    1
     6     2    14    1
     7     3     4    1
     8     4     5    1
     9     5     6    1
    10     5    13    1
    11     6     7    1
    12     7     8   ar
    13     7    12   ar
    14     8     9   ar
    15     9    10   ar
    16    10    11   ar
    17    11    12   ar
    18    13    14    1
    19    15    16   ar
    20    15    28   ar
    21    16    17   ar
    22    17    18   ar
    23    17    26    1
    24    18    19    1
    25    18    27   ar
    26    19    20   am
    27    19    25    1
    28    20    21    1
    29    20    24    2
    30    21    22    1
    31    21    23    1
    32    22    23    1
    33    25    26    1
    34    27    28   ar
