@<TRIPOS>MOLECULE
36964_ChemDiv_E002-0196
 22 24 0 0 0
SMALL
GASTEIGER
Energy = 0

@<TRIPOS>ATOM
      1 N           0.3670    1.8290    0.0000 N.ar    1  LIG1       -0.2418
      2 N           0.9540    2.6380    0.0000 N.ar    1  LIG1       -0.1732
      3 C           0.3670    3.4500    0.0000 C.ar    1  LIG1        0.0804
      4 C          -0.5830    3.1460    0.0000 C.ar    1  LIG1        0.0325
      5 C          -0.5830    2.1380    0.0000 C.ar    1  LIG1        0.0796
      6 C          -1.4500    1.6420    0.0000 C.ar    1  LIG1        0.0188
      7 C          -2.3210    2.1380    0.0000 C.ar    1  LIG1        0.0015
      8 C          -2.3210    3.1460    0.0000 C.ar    1  LIG1        0.0001
      9 C          -1.4500    3.6460    0.0000 C.ar    1  LIG1        0.0027
     10 C           0.6790    4.3960    0.0000 C.3     1  LIG1        0.0540
     11 C           0.6710    0.8790    0.0000 C.3     1  LIG1        0.2135
     12 C           1.6500    0.6670    0.0000 C.2     1  LIG1        0.2664
     13 O           2.3170    1.3960    0.0000 O.2     1  LIG1       -0.2712
     14 N           1.9540   -0.2830    0.0000 N.am    1  LIG1       -0.1973
     15 C           1.2750   -1.0250    0.0000 C.3     1  LIG1        0.1775
     16 C           1.5790   -1.9790    0.0000 C.3     1  LIG1        0.1626
     17 N           0.9080   -2.7210    0.0000 N.4     1  LIG1        0.3827
     18 C          -0.0710   -2.4920    0.0000 C.3     1  LIG1        0.1714
     19 C          -0.7330   -3.2290    0.0000 C.3     1  LIG1        0.2047
     20 O          -0.4380   -4.1790    0.0000 O.3     1  LIG1       -0.3411
     21 C           0.5330   -4.3960    0.0000 C.3     1  LIG1        0.2047
     22 C           1.2170   -3.6580    0.0000 C.3     1  LIG1        0.1714
@<TRIPOS>BOND
     1     1     2   ar
     2     1     5   ar
     3     1    11    1
     4     2     3   ar
     5     3     4   ar
     6     3    10    1
     7     4     5   ar
     8     4     9   ar
     9     5     6   ar
    10     6     7   ar
    11     7     8   ar
    12     8     9   ar
    13    11    12    1
    14    12    13    2
    15    12    14   am
    16    14    15    1
    17    15    16    1
    18    16    17    1
    19    17    18    1
    20    17    22    1
    21    18    19    1
    22    19    20    1
    23    20    21    1
    24    21    22    1
