@<TRIPOS>MOLECULE
36969_ChemDiv_C361-0992
 25 27 0 0 0
SMALL
GASTEIGER
Energy = 0

@<TRIPOS>ATOM
      1 S           1.0670    0.7790    0.0000 S.O2    1  LIG1        0.0633
      2 C           0.2040    0.2790    0.0000 C.ar    1  LIG1        0.1220
      3 C          -0.6750    0.7790    0.0000 C.ar    1  LIG1        0.0169
      4 C          -1.5380    0.2790    0.0000 C.ar    1  LIG1       -0.0054
      5 C          -1.5380   -0.7290    0.0000 C.ar    1  LIG1        0.0500
      6 N          -2.4920   -1.0380    0.0000 N.am    1  LIG1       -0.2586
      7 C          -2.9880   -1.9000    0.0000 C.2     1  LIG1        0.2288
      8 O          -2.4920   -2.7670    0.0000 O.2     1  LIG1       -0.2745
      9 C          -3.9830   -1.9000    0.0000 C.3     1  LIG1        0.0770
     10 C          -4.7000   -1.2000    0.0000 C.3     1  LIG1        0.0091
     11 C          -5.4040   -1.9000    0.0000 C.3     1  LIG1        0.0010
     12 C          -4.7000   -2.6040    0.0000 C.3     1  LIG1        0.0091
     13 C          -3.0750   -0.2330    0.0000 C.3     1  LIG1        0.1029
     14 C          -2.4920    0.5880    0.0000 C.3     1  LIG1        0.0495
     15 C          -0.6750   -1.2290    0.0000 C.ar    1  LIG1        0.0160
     16 C           0.2040   -0.7290    0.0000 C.ar    1  LIG1        0.0212
     17 N           1.9290    1.2750    0.0000 N.3     1  LIG1       -0.1555
     18 C           1.9290    2.2710    0.0000 C.3     1  LIG1        0.0958
     19 C           1.0670    2.7710    0.0000 C.3     1  LIG1        0.0206
     20 C           2.7960    0.7790    0.0000 C.3     1  LIG1        0.0958
     21 C           3.6580    1.2750    0.0000 C.3     1  LIG1        0.0191
     22 C           4.5210    0.7790    0.0000 C.3     1  LIG1        0.0015
     23 C           5.4000    1.2750    0.0000 C.3     1  LIG1        0.0000
     24 O           1.5630   -0.0880    0.0000 O.2     1  LIG1       -0.1528
     25 O           0.5710    1.6420    0.0000 O.2     1  LIG1       -0.1528
@<TRIPOS>BOND
     1     1     2    1
     2     1    17    1
     3     1    24    2
     4     1    25    2
     5     2     3   ar
     6     2    16   ar
     7     3     4   ar
     8     4     5   ar
     9     4    14    1
    10     5     6    1
    11     5    15   ar
    12     6     7   am
    13     6    13    1
    14     7     8    2
    15     7     9    1
    16     9    10    1
    17     9    12    1
    18    10    11    1
    19    11    12    1
    20    13    14    1
    21    15    16   ar
    22    17    18    1
    23    17    20    1
    24    18    19    1
    25    20    21    1
    26    21    22    1
    27    22    23    1
