@<TRIPOS>MOLECULE
36966_ChemDiv_E002-0197
 23 25 0 0 0
SMALL
GASTEIGER
Energy = 0

@<TRIPOS>ATOM
      1 N           0.2830    2.4130    0.0000 N.ar    1  LIG1       -0.2418
      2 N           0.8710    3.2210    0.0000 N.ar    1  LIG1       -0.1732
      3 C           0.2830    4.0250    0.0000 C.ar    1  LIG1        0.0804
      4 C          -0.6670    3.7290    0.0000 C.ar    1  LIG1        0.0325
      5 C          -0.6670    2.7210    0.0000 C.ar    1  LIG1        0.0796
      6 C          -1.5330    2.2210    0.0000 C.ar    1  LIG1        0.0188
      7 C          -2.4040    2.7210    0.0000 C.ar    1  LIG1        0.0015
      8 C          -2.4040    3.7290    0.0000 C.ar    1  LIG1        0.0001
      9 C          -1.5330    4.2250    0.0000 C.ar    1  LIG1        0.0027
     10 C           0.5960    4.9790    0.0000 C.3     1  LIG1        0.0540
     11 C           0.5880    1.4630    0.0000 C.3     1  LIG1        0.2135
     12 C           1.5670    1.2500    0.0000 C.2     1  LIG1        0.2662
     13 O           2.2380    1.9790    0.0000 O.2     1  LIG1       -0.2712
     14 N           1.8710    0.2960    0.0000 N.am    1  LIG1       -0.2035
     15 C           1.1920   -0.4460    0.0000 C.3     1  LIG1        0.1214
     16 C           1.4960   -1.3960    0.0000 C.3     1  LIG1        0.0861
     17 C           0.8250   -2.1380    0.0000 C.3     1  LIG1        0.1404
     18 N           1.1250   -3.0830    0.0000 N.4     1  LIG1        0.3773
     19 C           0.4500   -3.8170    0.0000 C.3     1  LIG1        0.1385
     20 C           0.7500   -4.7630    0.0000 C.3     1  LIG1        0.0629
     21 C           1.7210   -4.9790    0.0000 C.3     1  LIG1        0.0123
     22 C           2.4000   -4.2500    0.0000 C.3     1  LIG1        0.0629
     23 C           2.1000   -3.2880    0.0000 C.3     1  LIG1        0.1385
@<TRIPOS>BOND
     1     1     2   ar
     2     1     5   ar
     3     1    11    1
     4     2     3   ar
     5     3     4   ar
     6     3    10    1
     7     4     5   ar
     8     4     9   ar
     9     5     6   ar
    10     6     7   ar
    11     7     8   ar
    12     8     9   ar
    13    11    12    1
    14    12    13    2
    15    12    14   am
    16    14    15    1
    17    15    16    1
    18    16    17    1
    19    17    18    1
    20    18    19    1
    21    18    23    1
    22    19    20    1
    23    20    21    1
    24    21    22    1
    25    22    23    1
