@<TRIPOS>MOLECULE
36965_ChemDiv_C361-0885
 31 35 0 0 0
SMALL
GASTEIGER
Energy = 0

@<TRIPOS>ATOM
      1 S           0.6250   -0.0210    0.0000 S.O2    1  LIG1        0.0634
      2 N           1.4960    0.4830    0.0000 N.3     1  LIG1       -0.1520
      3 C           1.4960    1.4790    0.0000 C.3     1  LIG1        0.1172
      4 C           2.3710    1.9670    0.0000 C.3     1  LIG1        0.1100
      5 N           3.2250    1.4790    0.0000 N.pl3   1  LIG1       -0.3039
      6 C           4.1000    1.9670    0.0000 C.ar    1  LIG1        0.0586
      7 C           5.0460    1.6000    0.0000 C.ar    1  LIG1        0.0709
      8 CL          5.1830    0.6080    0.0000 Cl      1  LIG1       -0.0810
      9 C           5.8290    2.2130    0.0000 C.ar    1  LIG1        0.0126
     10 C           5.6750    3.2210    0.0000 C.ar    1  LIG1        0.0009
     11 C           4.7420    3.5750    0.0000 C.ar    1  LIG1        0.0013
     12 C           3.9630    2.9630    0.0000 C.ar    1  LIG1        0.0154
     13 C           3.2250    0.4830    0.0000 C.3     1  LIG1        0.1100
     14 C           2.3710   -0.0210    0.0000 C.3     1  LIG1        0.1172
     15 C          -0.2330   -0.5250    0.0000 C.ar    1  LIG1        0.1220
     16 C          -1.1040   -0.0210    0.0000 C.ar    1  LIG1        0.0169
     17 C          -1.9630   -0.5250    0.0000 C.ar    1  LIG1       -0.0054
     18 C          -1.9630   -1.5210    0.0000 C.ar    1  LIG1        0.0500
     19 N          -2.9080   -1.8420    0.0000 N.am    1  LIG1       -0.2586
     20 C          -3.4130   -2.7000    0.0000 C.2     1  LIG1        0.2288
     21 O          -2.9080   -3.5710    0.0000 O.2     1  LIG1       -0.2745
     22 C          -4.4250   -2.7000    0.0000 C.3     1  LIG1        0.0770
     23 C          -5.1290   -3.4040    0.0000 C.3     1  LIG1        0.0091
     24 C          -5.8330   -2.7000    0.0000 C.3     1  LIG1        0.0010
     25 C          -5.1290   -1.9960    0.0000 C.3     1  LIG1        0.0091
     26 C          -3.5040   -1.0290    0.0000 C.3     1  LIG1        0.1029
     27 C          -2.9080   -0.2210    0.0000 C.3     1  LIG1        0.0495
     28 C          -1.1040   -2.0250    0.0000 C.ar    1  LIG1        0.0160
     29 C          -0.2330   -1.5210    0.0000 C.ar    1  LIG1        0.0212
     30 O           1.1290   -0.8920    0.0000 O.2     1  LIG1       -0.1528
     31 O           0.1380    0.8380    0.0000 O.2     1  LIG1       -0.1528
@<TRIPOS>BOND
     1     1     2    1
     2     1    15    1
     3     1    30    2
     4     1    31    2
     5     2     3    1
     6     2    14    1
     7     3     4    1
     8     4     5    1
     9     5     6    1
    10     5    13    1
    11     6     7   ar
    12     6    12   ar
    13     7     8    1
    14     7     9   ar
    15     9    10   ar
    16    10    11   ar
    17    11    12   ar
    18    13    14    1
    19    15    16   ar
    20    15    29   ar
    21    16    17   ar
    22    17    18   ar
    23    17    27    1
    24    18    19    1
    25    18    28   ar
    26    19    20   am
    27    19    26    1
    28    20    21    2
    29    20    22    1
    30    22    23    1
    31    22    25    1
    32    23    24    1
    33    24    25    1
    34    26    27    1
    35    28    29   ar
