@<TRIPOS>MOLECULE
36967_ChemDiv_C361-0945
 26 28 0 0 0
SMALL
GASTEIGER
Energy = 0

@<TRIPOS>ATOM
      1 S           1.4960    0.7790    0.0000 S.O2    1  LIG1        0.0635
      2 N           2.3630    1.2830    0.0000 N.3     1  LIG1       -0.1489
      3 C           3.2290    0.7790    0.0000 C.3     1  LIG1        0.1570
      4 C           4.0830    1.2670    0.0000 C.3     1  LIG1        0.2537
      5 O           4.9500    0.7920    0.0000 O.3     1  LIG1       -0.3267
      6 C           4.9790   -0.2000    0.0000 C.3     1  LIG1        0.1769
      7 O           4.0710    2.2750    0.0000 O.3     1  LIG1       -0.3267
      8 C           4.9250    2.7790    0.0000 C.3     1  LIG1        0.1769
      9 C           2.3750    2.2920    0.0000 C.3     1  LIG1        0.1151
     10 C           0.6290    0.2750    0.0000 C.ar    1  LIG1        0.1220
     11 C          -0.2420    0.7790    0.0000 C.ar    1  LIG1        0.0169
     12 C          -1.1080    0.2750    0.0000 C.ar    1  LIG1       -0.0054
     13 C          -1.1080   -0.7170    0.0000 C.ar    1  LIG1        0.0500
     14 N          -2.0580   -1.0420    0.0000 N.am    1  LIG1       -0.2586
     15 C          -2.5630   -1.9080    0.0000 C.2     1  LIG1        0.2288
     16 O          -2.0580   -2.7750    0.0000 O.2     1  LIG1       -0.2745
     17 C          -3.5710   -1.9080    0.0000 C.3     1  LIG1        0.0770
     18 C          -4.2710   -2.6080    0.0000 C.3     1  LIG1        0.0091
     19 C          -4.9830   -1.9080    0.0000 C.3     1  LIG1        0.0010
     20 C          -4.2710   -1.1960    0.0000 C.3     1  LIG1        0.0091
     21 C          -2.6460   -0.2290    0.0000 C.3     1  LIG1        0.1029
     22 C          -2.0580    0.5830    0.0000 C.3     1  LIG1        0.0495
     23 C          -0.2420   -1.2210    0.0000 C.ar    1  LIG1        0.0160
     24 C           0.6290   -0.7170    0.0000 C.ar    1  LIG1        0.0212
     25 O           1.0040    1.6460    0.0000 O.2     1  LIG1       -0.1528
     26 O           2.0000   -0.0880    0.0000 O.2     1  LIG1       -0.1528
@<TRIPOS>BOND
     1     1     2    1
     2     1    10    1
     3     1    25    2
     4     1    26    2
     5     2     3    1
     6     2     9    1
     7     3     4    1
     8     4     5    1
     9     4     7    1
    10     5     6    1
    11     7     8    1
    12    10    11   ar
    13    10    24   ar
    14    11    12   ar
    15    12    13   ar
    16    12    22    1
    17    13    14    1
    18    13    23   ar
    19    14    15   am
    20    14    21    1
    21    15    16    2
    22    15    17    1
    23    17    18    1
    24    17    20    1
    25    18    19    1
    26    19    20    1
    27    21    22    1
    28    23    24   ar
