@<TRIPOS>MOLECULE
36973_ChemDiv_C361-1031
 30 33 0 0 0
SMALL
GASTEIGER
Energy = 0

@<TRIPOS>ATOM
      1 S          -0.2420    1.3420    0.0000 S.O2    1  LIG1        0.0768
      2 C          -1.1080    0.8420    0.0000 C.ar    1  LIG1        0.1233
      3 C          -1.9750    1.3420    0.0000 C.ar    1  LIG1        0.0170
      4 C          -2.8420    0.8420    0.0000 C.ar    1  LIG1       -0.0054
      5 C          -2.8420   -0.1540    0.0000 C.ar    1  LIG1        0.0500
      6 N          -3.7920   -0.4710    0.0000 N.am    1  LIG1       -0.2586
      7 C          -4.2920   -1.3380    0.0000 C.2     1  LIG1        0.2288
      8 O          -3.7920   -2.2040    0.0000 O.2     1  LIG1       -0.2745
      9 C          -5.2880   -1.3380    0.0000 C.3     1  LIG1        0.0770
     10 C          -5.9880   -2.0380    0.0000 C.3     1  LIG1        0.0091
     11 C          -6.7000   -1.3380    0.0000 C.3     1  LIG1        0.0010
     12 C          -5.9880   -0.6210    0.0000 C.3     1  LIG1        0.0091
     13 C          -4.3750    0.3420    0.0000 C.3     1  LIG1        0.1029
     14 C          -3.7920    1.1420    0.0000 C.3     1  LIG1        0.0495
     15 C          -1.9750   -0.6540    0.0000 C.ar    1  LIG1        0.0160
     16 C          -1.1080   -0.1540    0.0000 C.ar    1  LIG1        0.0212
     17 N           0.6210    1.8420    0.0000 N.3     1  LIG1       -0.0792
     18 C           1.4880    1.3580    0.0000 C.3     1  LIG1        0.1011
     19 C           2.3540    1.8580    0.0000 C.3     1  LIG1        0.0410
     20 C           3.2210    1.3750    0.0000 C.3     1  LIG1        0.0982
     21 N           3.2380    0.3750    0.0000 N.am    1  LIG1       -0.2459
     22 C           4.1040   -0.1210    0.0000 C.2     1  LIG1        0.4049
     23 O           4.1210   -1.1210    0.0000 O.2     1  LIG1       -0.2262
     24 O           4.9710    0.3920    0.0000 O.3     1  LIG1       -0.4345
     25 C           5.8330   -0.1040    0.0000 C.3     1  LIG1        0.2102
     26 C           6.7000    0.4080    0.0000 C.3     1  LIG1        0.0513
     27 C           2.3710   -0.1380    0.0000 C.3     1  LIG1        0.0982
     28 C           1.5040    0.3420    0.0000 C.3     1  LIG1        0.0410
     29 O           0.2540    0.4750    0.0000 O.2     1  LIG1       -0.1516
     30 O          -0.7420    2.2080    0.0000 O.2     1  LIG1       -0.1516
@<TRIPOS>BOND
     1     1     2    1
     2     1    17    1
     3     1    29    2
     4     1    30    2
     5     2     3   ar
     6     2    16   ar
     7     3     4   ar
     8     4     5   ar
     9     4    14    1
    10     5     6    1
    11     5    15   ar
    12     6     7   am
    13     6    13    1
    14     7     8    2
    15     7     9    1
    16     9    10    1
    17     9    12    1
    18    10    11    1
    19    11    12    1
    20    13    14    1
    21    15    16   ar
    22    17    18    1
    23    18    19    1
    24    18    28    1
    25    19    20    1
    26    20    21    1
    27    21    22   am
    28    21    27    1
    29    22    23    2
    30    22    24    1
    31    24    25    1
    32    25    26    1
    33    27    28    1
