@<TRIPOS>MOLECULE
36974_ChemDiv_E002-0602
 19 20 0 0 0
SMALL
GASTEIGER
Energy = 0

@<TRIPOS>ATOM
      1 N          -0.1040    0.8880    0.0000 N.ar    1  LIG1       -0.2414
      2 N           0.4750    1.6880    0.0000 N.ar    1  LIG1       -0.1672
      3 C          -0.1040    2.5040    0.0000 C.ar    1  LIG1        0.1224
      4 C          -1.0540    2.1920    0.0000 C.ar    1  LIG1        0.0487
      5 C          -1.0540    1.1880    0.0000 C.ar    1  LIG1        0.0808
      6 C          -1.9290    0.6920    0.0000 C.ar    1  LIG1        0.0188
      7 C          -2.7960    1.1880    0.0000 C.ar    1  LIG1        0.0024
      8 C          -2.7960    2.1920    0.0000 C.ar    1  LIG1        0.0115
      9 C          -1.9290    2.7040    0.0000 C.ar    1  LIG1        0.0606
     10 CL         -1.9170    3.7000    0.0000 Cl      1  LIG1       -0.0821
     11 C           0.2040   -0.0750    0.0000 C.3     1  LIG1        0.2135
     12 C           1.1710   -0.2880    0.0000 C.2     1  LIG1        0.2662
     13 O           1.8540    0.4500    0.0000 O.2     1  LIG1       -0.2712
     14 N           1.4750   -1.2420    0.0000 N.am    1  LIG1       -0.2037
     15 C           0.8040   -1.9710    0.0000 C.3     1  LIG1        0.1152
     16 C           1.2960   -2.8330    0.0000 C.3     1  LIG1        0.0234
     17 C           2.2920   -2.8330    0.0000 C.3     1  LIG1        0.0018
     18 C           2.7920   -3.6960    0.0000 C.3     1  LIG1        0.0001
     19 C           2.7920   -1.9710    0.0000 C.3     1  LIG1        0.0001
@<TRIPOS>BOND
     1     1     2   ar
     2     1     5   ar
     3     1    11    1
     4     2     3   ar
     5     3     4   ar
     6     4     5   ar
     7     4     9   ar
     8     5     6   ar
     9     6     7   ar
    10     7     8   ar
    11     8     9   ar
    12     9    10    1
    13    11    12    1
    14    12    13    2
    15    12    14   am
    16    14    15    1
    17    15    16    1
    18    16    17    1
    19    17    18    1
    20    17    19    1
