@<TRIPOS>MOLECULE
36976_ChemDiv_C434-0196
 33 38 0 0 0
SMALL
GASTEIGER
Energy = 0

@<TRIPOS>ATOM
      1 C           2.2670    3.5540    0.0000 C.ar    1  LIG1        0.1142
      2 C           1.6000    2.7960    0.0000 C.ar    1  LIG1        0.0891
      3 N           0.6790    3.2000    0.0000 N.ar    1  LIG1       -0.2411
      4 N           0.7710    4.1830    0.0000 N.ar    1  LIG1       -0.1670
      5 C           1.7380    4.4210    0.0000 C.ar    1  LIG1        0.1281
      6 C          -0.1920    2.6920    0.0000 C.3     1  LIG1        0.2139
      7 C          -0.1830    1.7130    0.0000 C.2     1  LIG1        0.2704
      8 N          -1.0460    1.2130    0.0000 N.am    1  LIG1       -0.1775
      9 C          -1.0460    0.2130    0.0000 C.ar    1  LIG1        0.0735
     10 C          -1.8500   -0.3750    0.0000 C.ar    1  LIG1        0.0181
     11 C          -1.7500   -1.3630    0.0000 C.ar    1  LIG1        0.0185
     12 C          -0.8380   -1.7710    0.0000 C.ar    1  LIG1        0.0600
     13 N          -0.9460   -2.7710    0.0000 N.ar    1  LIG1       -0.3272
     14 C          -1.9290   -2.9790    0.0000 C.ar    1  LIG1        0.0599
     15 C          -2.4250   -2.1040    0.0000 C.ar    1  LIG1        0.0172
     16 C          -3.4210   -2.1040    0.0000 C.ar    1  LIG1        0.0015
     17 C          -3.9210   -2.9630    0.0000 C.ar    1  LIG1        0.0001
     18 C          -3.4210   -3.8290    0.0000 C.ar    1  LIG1        0.0015
     19 C          -2.4330   -3.8460    0.0000 C.ar    1  LIG1        0.0172
     20 C          -0.2170   -3.4380    0.0000 C.3     1  LIG1        0.1061
     21 C          -0.4170   -4.4210    0.0000 C.3     1  LIG1        0.0265
     22 C          -0.0330   -1.1880    0.0000 C.ar    1  LIG1        0.0185
     23 C          -0.1290   -0.1960    0.0000 C.ar    1  LIG1        0.0181
     24 O           0.6790    1.1960    0.0000 O.2     1  LIG1       -0.2708
     25 C           1.9290    1.8630    0.0000 C.ar    1  LIG1        0.0522
     26 C           2.9130    1.6670    0.0000 C.ar    1  LIG1        0.1501
     27 O           3.5710    2.4210    0.0000 O.2     1  LIG1       -0.4209
     28 C           3.2500    3.3670    0.0000 C.ar    1  LIG1        0.3488
     29 O           3.9170    4.1250    0.0000 O.2     1  LIG1       -0.2444
     30 C           3.2330    0.7250    0.0000 C.ar    1  LIG1        0.0377
     31 C           2.5790   -0.0290    0.0000 C.ar    1  LIG1        0.0031
     32 C           1.5960    0.1540    0.0000 C.ar    1  LIG1        0.0002
     33 C           1.2710    1.1040    0.0000 C.ar    1  LIG1        0.0045
@<TRIPOS>BOND
     1     1     2   ar
     2     1     5   ar
     3     1    28   ar
     4     2     3   ar
     5     2    25   ar
     6     3     4   ar
     7     3     6    1
     8     4     5   ar
     9     6     7    1
    10     7     8   am
    11     7    24    2
    12     8     9    1
    13     9    10   ar
    14     9    23   ar
    15    10    11   ar
    16    11    12   ar
    17    11    15   ar
    18    12    13   ar
    19    12    22   ar
    20    13    14   ar
    21    13    20    1
    22    14    15   ar
    23    14    19   ar
    24    15    16   ar
    25    16    17   ar
    26    17    18   ar
    27    18    19   ar
    28    20    21    1
    29    22    23   ar
    30    25    26   ar
    31    25    33   ar
    32    26    27   ar
    33    26    30   ar
    34    27    28   ar
    35    28    29    2
    36    30    31   ar
    37    31    32   ar
    38    32    33   ar
