@<TRIPOS>MOLECULE
36971_ChemDiv_C361-1008
 30 34 0 0 0
SMALL
GASTEIGER
Energy = 0

@<TRIPOS>ATOM
      1 S           0.5130    0.2290    0.0000 S.O2    1  LIG1        0.0634
      2 N           1.3790    0.7420    0.0000 N.3     1  LIG1       -0.1520
      3 C           2.2500    0.2290    0.0000 C.3     1  LIG1        0.1173
      4 C           3.1210    0.7420    0.0000 C.3     1  LIG1        0.1113
      5 N           3.1040    1.7330    0.0000 N.pl3   1  LIG1       -0.2903
      6 C           4.0670    2.0460    0.0000 C.ar    1  LIG1        0.1318
      7 N           4.2710    3.0080    0.0000 N.ar    1  LIG1       -0.2292
      8 C           5.2170    3.3170    0.0000 C.ar    1  LIG1        0.1003
      9 C           5.9630    2.6670    0.0000 C.ar    1  LIG1        0.0208
     10 C           5.7460    1.6880    0.0000 C.ar    1  LIG1        0.0045
     11 C           4.7960    1.3750    0.0000 C.ar    1  LIG1        0.0343
     12 C           2.2500    2.2290    0.0000 C.3     1  LIG1        0.1113
     13 C           1.3790    1.7330    0.0000 C.3     1  LIG1        0.1173
     14 C          -0.3580   -0.2710    0.0000 C.ar    1  LIG1        0.1220
     15 C          -1.2290    0.2290    0.0000 C.ar    1  LIG1        0.0169
     16 C          -2.1000   -0.2710    0.0000 C.ar    1  LIG1       -0.0054
     17 C          -2.1000   -1.2630    0.0000 C.ar    1  LIG1        0.0500
     18 N          -3.0460   -1.5750    0.0000 N.am    1  LIG1       -0.2586
     19 C          -3.5420   -2.4460    0.0000 C.2     1  LIG1        0.2288
     20 O          -3.0460   -3.3130    0.0000 O.2     1  LIG1       -0.2745
     21 C          -4.5540   -2.4460    0.0000 C.3     1  LIG1        0.0770
     22 C          -5.2670   -3.1580    0.0000 C.3     1  LIG1        0.0091
     23 C          -5.9670   -2.4460    0.0000 C.3     1  LIG1        0.0010
     24 C          -5.2670   -1.7460    0.0000 C.3     1  LIG1        0.0091
     25 C          -3.6380   -0.7670    0.0000 C.3     1  LIG1        0.1029
     26 C          -3.0460    0.0420    0.0000 C.3     1  LIG1        0.0495
     27 C          -1.2290   -1.7750    0.0000 C.ar    1  LIG1        0.0160
     28 C          -0.3580   -1.2630    0.0000 C.ar    1  LIG1        0.0212
     29 O           1.0080   -0.6420    0.0000 O.2     1  LIG1       -0.1528
     30 O           0.0130    1.0960    0.0000 O.2     1  LIG1       -0.1528
@<TRIPOS>BOND
     1     1     2    1
     2     1    14    1
     3     1    29    2
     4     1    30    2
     5     2     3    1
     6     2    13    1
     7     3     4    1
     8     4     5    1
     9     5     6    1
    10     5    12    1
    11     6     7   ar
    12     6    11   ar
    13     7     8   ar
    14     8     9   ar
    15     9    10   ar
    16    10    11   ar
    17    12    13    1
    18    14    15   ar
    19    14    28   ar
    20    15    16   ar
    21    16    17   ar
    22    16    26    1
    23    17    18    1
    24    17    27   ar
    25    18    19   am
    26    18    25    1
    27    19    20    2
    28    19    21    1
    29    21    22    1
    30    21    24    1
    31    22    23    1
    32    23    24    1
    33    25    26    1
    34    27    28   ar
