@<TRIPOS>MOLECULE
36970_ChemDiv_E002-0440
 21 22 0 0 0
SMALL
GASTEIGER
Energy = 0

@<TRIPOS>ATOM
      1 N          -0.0880    0.9920    0.0000 N.ar    1  LIG1       -0.2443
      2 N           0.4920    1.8040    0.0000 N.ar    1  LIG1       -0.1733
      3 C          -0.0880    2.6130    0.0000 C.ar    1  LIG1        0.0804
      4 C          -1.0420    2.3040    0.0000 C.ar    1  LIG1        0.0325
      5 C          -1.0420    1.3040    0.0000 C.ar    1  LIG1        0.0795
      6 C          -1.9170    0.8040    0.0000 C.ar    1  LIG1        0.0188
      7 C          -2.7830    1.3040    0.0000 C.ar    1  LIG1        0.0015
      8 C          -2.7830    2.3040    0.0000 C.ar    1  LIG1        0.0001
      9 C          -1.9170    2.8080    0.0000 C.ar    1  LIG1        0.0027
     10 C           0.2210    3.5580    0.0000 C.3     1  LIG1        0.0540
     11 C           0.2210    0.0330    0.0000 C.3     1  LIG1        0.1825
     12 C           1.1880   -0.1790    0.0000 C.2     1  LIG1        0.2639
     13 N           1.4920   -1.1330    0.0000 N.am    1  LIG1       -0.1984
     14 C           0.8250   -1.8710    0.0000 C.3     1  LIG1        0.1763
     15 C           1.1290   -2.8250    0.0000 C.3     1  LIG1        0.2579
     16 O           0.4460   -3.5540    0.0000 O.3     1  LIG1       -0.3265
     17 C          -0.5210   -3.3420    0.0000 C.3     1  LIG1        0.1769
     18 O           2.0960   -3.0380    0.0000 O.3     1  LIG1       -0.3265
     19 C           2.7790   -2.3000    0.0000 C.3     1  LIG1        0.1769
     20 O           1.8710    0.5630    0.0000 O.2     1  LIG1       -0.2712
     21 C          -0.4500   -0.7080    0.0000 C.3     1  LIG1        0.0363
@<TRIPOS>BOND
     1     1     2   ar
     2     1     5   ar
     3     1    11    1
     4     2     3   ar
     5     3     4   ar
     6     3    10    1
     7     4     5   ar
     8     4     9   ar
     9     5     6   ar
    10     6     7   ar
    11     7     8   ar
    12     8     9   ar
    13    11    12    1
    14    11    21    1
    15    12    13   am
    16    12    20    2
    17    13    14    1
    18    14    15    1
    19    15    16    1
    20    15    18    1
    21    16    17    1
    22    18    19    1
