@<TRIPOS>MOLECULE
36975_ChemDiv_C361-1062
 28 30 0 0 0
SMALL
GASTEIGER
Energy = 0

@<TRIPOS>ATOM
      1 N          -2.4790   -2.5330    0.0000 N.am    1  LIG1       -0.2586
      2 C          -2.9750   -3.3960    0.0000 C.2     1  LIG1        0.2288
      3 O          -2.4790   -4.2580    0.0000 O.2     1  LIG1       -0.2745
      4 C          -3.9710   -3.3960    0.0000 C.3     1  LIG1        0.0770
      5 C          -4.6880   -4.1130    0.0000 C.3     1  LIG1        0.0091
      6 C          -5.3880   -3.3960    0.0000 C.3     1  LIG1        0.0010
      7 C          -4.6880   -2.6960    0.0000 C.3     1  LIG1        0.0091
      8 C          -1.5290   -2.2290    0.0000 C.ar    1  LIG1        0.0500
      9 C          -1.5290   -1.2170    0.0000 C.ar    1  LIG1       -0.0054
     10 C          -0.6670   -0.7210    0.0000 C.ar    1  LIG1        0.0170
     11 C           0.2080   -1.2170    0.0000 C.ar    1  LIG1        0.1233
     12 S           1.0710   -0.7210    0.0000 S.O2    1  LIG1        0.0768
     13 O           0.5750    0.1420    0.0000 O.2     1  LIG1       -0.1516
     14 O           1.5830   -1.5830    0.0000 O.2     1  LIG1       -0.1516
     15 N           1.9500   -0.2250    0.0000 N.3     1  LIG1       -0.0776
     16 C           1.9330    0.7830    0.0000 C.3     1  LIG1        0.1207
     17 C           2.7960    1.2790    0.0000 C.3     1  LIG1        0.0821
     18 C           2.7960    2.2750    0.0000 C.3     1  LIG1        0.2366
     19 O           3.6460    2.7710    0.0000 O.3     1  LIG1       -0.3305
     20 C           4.5210    2.2750    0.0000 C.3     1  LIG1        0.1449
     21 C           5.3830    2.7710    0.0000 C.3     1  LIG1        0.0347
     22 O           1.9330    2.7710    0.0000 O.3     1  LIG1       -0.3305
     23 C           1.9330    3.7670    0.0000 C.3     1  LIG1        0.1449
     24 C           1.0580    4.2580    0.0000 C.3     1  LIG1        0.0347
     25 C           0.2080   -2.2290    0.0000 C.ar    1  LIG1        0.0212
     26 C          -0.6670   -2.7250    0.0000 C.ar    1  LIG1        0.0160
     27 C          -2.4790   -0.9130    0.0000 C.3     1  LIG1        0.0495
     28 C          -3.0630   -1.7170    0.0000 C.3     1  LIG1        0.1029
@<TRIPOS>BOND
     1     1     2   am
     2     1     8    1
     3     1    28    1
     4     2     3    2
     5     2     4    1
     6     4     5    1
     7     4     7    1
     8     5     6    1
     9     6     7    1
    10     8     9   ar
    11     8    26   ar
    12     9    10   ar
    13     9    27    1
    14    10    11   ar
    15    11    12    1
    16    11    25   ar
    17    12    13    2
    18    12    14    2
    19    12    15    1
    20    15    16    1
    21    16    17    1
    22    17    18    1
    23    18    19    1
    24    18    22    1
    25    19    20    1
    26    20    21    1
    27    22    23    1
    28    23    24    1
    29    25    26   ar
    30    27    28    1
