@<TRIPOS>MOLECULE
36972_ChemDiv_E002-0552
 24 26 0 0 0
SMALL
GASTEIGER
Energy = 0

@<TRIPOS>ATOM
      1 N          -0.5880    2.2750    0.0000 N.ar    1  LIG1       -0.2414
      2 N           0.0000    3.0790    0.0000 N.ar    1  LIG1       -0.1672
      3 C          -0.5880    3.8920    0.0000 C.ar    1  LIG1        0.1216
      4 C          -1.5420    3.5790    0.0000 C.ar    1  LIG1        0.0382
      5 C          -1.5420    2.5790    0.0000 C.ar    1  LIG1        0.0808
      6 C          -2.4000    2.0790    0.0000 C.ar    1  LIG1        0.0302
      7 C          -3.2790    2.5790    0.0000 C.ar    1  LIG1        0.0592
      8 C          -3.2790    3.5790    0.0000 C.ar    1  LIG1        0.0115
      9 C          -2.4000    4.0880    0.0000 C.ar    1  LIG1        0.0040
     10 CL         -4.1420    2.0790    0.0000 Cl      1  LIG1       -0.0822
     11 C          -0.2750    1.3130    0.0000 C.3     1  LIG1        0.2120
     12 C           0.6960    1.1040    0.0000 C.2     1  LIG1        0.2506
     13 N           0.9960    0.1500    0.0000 N.am    1  LIG1       -0.2744
     14 C           1.9670   -0.0500    0.0000 C.3     1  LIG1        0.1151
     15 C           2.2670   -1.0130    0.0000 C.3     1  LIG1        0.1182
     16 N           1.5880   -1.7420    0.0000 N.am    1  LIG1       -0.2425
     17 C           1.8920   -2.6960    0.0000 C.2     1  LIG1        0.4050
     18 O           1.2080   -3.4290    0.0000 O.2     1  LIG1       -0.2262
     19 O           2.8670   -2.9170    0.0000 O.3     1  LIG1       -0.4345
     20 C           3.1580   -3.8710    0.0000 C.3     1  LIG1        0.2102
     21 C           4.1380   -4.0880    0.0000 C.3     1  LIG1        0.0513
     22 C           0.6210   -1.5250    0.0000 C.3     1  LIG1        0.1182
     23 C           0.3170   -0.5790    0.0000 C.3     1  LIG1        0.1151
     24 O           1.3710    1.8380    0.0000 O.2     1  LIG1       -0.2727
@<TRIPOS>BOND
     1     1     2   ar
     2     1     5   ar
     3     1    11    1
     4     2     3   ar
     5     3     4   ar
     6     4     5   ar
     7     4     9   ar
     8     5     6   ar
     9     6     7   ar
    10     7     8   ar
    11     7    10    1
    12     8     9   ar
    13    11    12    1
    14    12    13   am
    15    12    24    2
    16    13    14    1
    17    13    23    1
    18    14    15    1
    19    15    16    1
    20    16    17   am
    21    16    22    1
    22    17    18    2
    23    17    19    1
    24    19    20    1
    25    20    21    1
    26    22    23    1
