@<TRIPOS>MOLECULE
36978_ChemDiv_C607-0734
 33 37 0 0 0
SMALL
GASTEIGER
Energy = 0

@<TRIPOS>ATOM
      1 C          -0.3790    1.0670    0.0000 C.ar    1  LIG1        0.2036
      2 C          -1.2630    0.5630    0.0000 C.ar    1  LIG1        0.0395
      3 C          -2.1380    1.0670    0.0000 C.ar    1  LIG1        0.0093
      4 C          -2.1380    2.0790    0.0000 C.ar    1  LIG1        0.0761
      5 C          -1.2630    2.5880    0.0000 C.ar    1  LIG1        0.3458
      6 O          -0.3790    2.0790    0.0000 O.2     1  LIG1       -0.4163
      7 O          -1.2630    3.5960    0.0000 O.2     1  LIG1       -0.2445
      8 C          -3.0130    2.5880    0.0000 C.ar    1  LIG1        0.0065
      9 C          -3.8880    2.0790    0.0000 C.ar    1  LIG1        0.0002
     10 C          -3.8880    1.0670    0.0000 C.ar    1  LIG1        0.0000
     11 C          -3.0130    0.5630    0.0000 C.ar    1  LIG1        0.0003
     12 C          -1.2630   -0.4500    0.0000 C.ar    1  LIG1        0.0031
     13 C          -2.1380   -0.9580    0.0000 C.ar    1  LIG1        0.0001
     14 C          -2.1380   -1.9790    0.0000 C.ar    1  LIG1        0.0000
     15 C          -1.2630   -2.4830    0.0000 C.ar    1  LIG1        0.0000
     16 C          -0.3920   -1.9790    0.0000 C.ar    1  LIG1        0.0000
     17 C          -0.3920   -0.9580    0.0000 C.ar    1  LIG1        0.0001
     18 C           0.5000    0.5500    0.0000 C.2     1  LIG1        0.3038
     19 N           0.5000   -0.4670    0.0000 N.am    1  LIG1       -0.1725
     20 C           1.3750   -0.9710    0.0000 C.ar    1  LIG1        0.0832
     21 C           2.2460   -0.4670    0.0000 C.ar    1  LIG1        0.0942
     22 C           3.1290   -0.9710    0.0000 C.ar    1  LIG1        0.0479
     23 C           3.1290   -1.9830    0.0000 C.ar    1  LIG1        0.1767
     24 C           2.2460   -2.4920    0.0000 C.ar    1  LIG1        0.1777
     25 C           1.3750   -1.9830    0.0000 C.ar    1  LIG1        0.0570
     26 O           2.4580   -3.4880    0.0000 O.3     1  LIG1       -0.4346
     27 C           3.4580   -3.5920    0.0000 C.3     1  LIG1        0.4294
     28 O           3.8830   -2.6750    0.0000 O.3     1  LIG1       -0.4346
     29 C           2.2460    0.5460    0.0000 C.2     1  LIG1        0.3427
     30 O           1.7210    1.0580    0.0000 O.2     1  LIG1       -0.2448
     31 O           3.1210    1.0540    0.0000 O.3     1  LIG1       -0.4413
     32 C           3.1210    2.0710    0.0000 C.3     1  LIG1        0.2560
     33 O           1.1420    1.0210    0.0000 O.2     1  LIG1       -0.2646
@<TRIPOS>BOND
     1     1     2   ar
     2     1     6   ar
     3     1    18    1
     4     2     3   ar
     5     2    12    1
     6     3     4   ar
     7     3    11   ar
     8     4     5   ar
     9     4     8   ar
    10     5     6   ar
    11     5     7    2
    12     8     9   ar
    13     9    10   ar
    14    10    11   ar
    15    12    13   ar
    16    12    17   ar
    17    13    14   ar
    18    14    15   ar
    19    15    16   ar
    20    16    17   ar
    21    18    19   am
    22    18    33    2
    23    19    20    1
    24    20    21   ar
    25    20    25   ar
    26    21    22   ar
    27    21    29    1
    28    22    23   ar
    29    23    24   ar
    30    23    28    1
    31    24    25   ar
    32    24    26    1
    33    26    27    1
    34    27    28    1
    35    29    30    2
    36    29    31    1
    37    31    32    1
