@<TRIPOS>MOLECULE
36979_ChemDiv_K279-1198
 36 39 0 0 0
SMALL
GASTEIGER
Energy = 0

@<TRIPOS>ATOM
      1 N          -1.7830    2.9920    0.0000 N.ar    1  LIG1       -0.1479
      2 C          -1.7830    3.9960    0.0000 C.ar    1  LIG1        0.3753
      3 N          -0.8420    4.3040    0.0000 N.2     1  LIG1        0.0760
      4 C          -0.2500    3.4920    0.0000 C.3     1  LIG1        0.4056
      5 C          -0.8420    2.6920    0.0000 C.2     1  LIG1        0.3293
      6 O          -0.5290    1.7380    0.0000 O.2     1  LIG1       -0.2637
      7 C           0.7460    3.4920    0.0000 C.3     1  LIG1        0.1815
      8 C           1.2460    2.6290    0.0000 C.2     1  LIG1        0.2491
      9 O           0.7460    1.7580    0.0000 O.2     1  LIG1       -0.2731
     10 N           2.2420    2.6290    0.0000 N.am    1  LIG1       -0.2052
     11 C           2.7420    1.7670    0.0000 C.3     1  LIG1        0.1151
     12 C           3.7500    1.7670    0.0000 C.3     1  LIG1        0.0234
     13 C           4.2500    0.9080    0.0000 C.3     1  LIG1        0.0018
     14 C           5.2500    0.9080    0.0000 C.3     1  LIG1        0.0001
     15 C          -2.6540    4.4920    0.0000 C.ar    1  LIG1        0.1585
     16 C          -3.5170    3.9960    0.0000 C.ar    1  LIG1        0.3068
     17 N          -3.5170    2.9920    0.0000 N.ar    1  LIG1        0.1032
     18 C          -2.6540    2.4960    0.0000 C.ar    1  LIG1        0.4035
     19 S          -2.6540    1.4960    0.0000 S.3     1  LIG1       -0.0096
     20 C          -3.5170    0.9960    0.0000 C.3     1  LIG1        0.1566
     21 C          -3.5170    0.0000    0.0000 C.2     1  LIG1        0.2572
     22 N          -4.3790   -0.5000    0.0000 N.am    1  LIG1       -0.1785
     23 C          -4.3790   -1.5080    0.0000 C.ar    1  LIG1        0.0736
     24 C          -3.5080   -2.0080    0.0000 C.ar    1  LIG1        0.0197
     25 C          -3.5080   -3.0080    0.0000 C.ar    1  LIG1        0.0382
     26 C          -4.3790   -3.5080    0.0000 C.ar    1  LIG1        0.1386
     27 C          -5.2420   -3.0080    0.0000 C.ar    1  LIG1        0.0382
     28 C          -5.2420   -2.0080    0.0000 C.ar    1  LIG1        0.0197
     29 O          -4.3830   -4.5080    0.0000 O.3     1  LIG1       -0.4755
     30 C          -5.2540   -5.0000    0.0000 C.3     1  LIG1        0.2055
     31 C          -5.2540   -6.0000    0.0000 C.3     1  LIG1        0.0512
     32 O          -2.6460   -0.5000    0.0000 O.2     1  LIG1       -0.2720
     33 C          -4.3790    4.4920    0.0000 C.ar    1  LIG1        0.0765
     34 C          -4.3790    5.5000    0.0000 C.ar    1  LIG1        0.0063
     35 C          -3.5170    6.0000    0.0000 C.ar    1  LIG1        0.0007
     36 C          -2.6540    5.5000    0.0000 C.ar    1  LIG1        0.0141
@<TRIPOS>BOND
     1     1     2   ar
     2     1     5   am
     3     1    18   ar
     4     2     3    2
     5     2    15   ar
     6     3     4    1
     7     4     5    1
     8     4     7    1
     9     5     6    2
    10     7     8    1
    11     8     9    2
    12     8    10   am
    13    10    11    1
    14    11    12    1
    15    12    13    1
    16    13    14    1
    17    15    16   ar
    18    15    36   ar
    19    16    17   ar
    20    16    33   ar
    21    17    18   ar
    22    18    19    1
    23    19    20    1
    24    20    21    1
    25    21    22   am
    26    21    32    2
    27    22    23    1
    28    23    24   ar
    29    23    28   ar
    30    24    25   ar
    31    25    26   ar
    32    26    27   ar
    33    26    29    1
    34    27    28   ar
    35    29    30    1
    36    30    31    1
    37    33    34   ar
    38    34    35   ar
    39    35    36   ar
