@<TRIPOS>MOLECULE
36985_ChemDiv_K279-1433
 32 35 0 0 0
SMALL
GASTEIGER
Energy = 0

@<TRIPOS>ATOM
      1 N          -0.7170   -0.6380    0.0000 N.ar    1  LIG1       -0.1479
      2 C          -0.7170    0.3540    0.0000 C.ar    1  LIG1        0.3753
      3 N           0.2290    0.6540    0.0000 N.2     1  LIG1        0.0760
      4 C           0.7960   -0.1380    0.0000 C.3     1  LIG1        0.4056
      5 C           0.2290   -0.9380    0.0000 C.2     1  LIG1        0.3293
      6 O           0.5540   -1.9080    0.0000 O.2     1  LIG1       -0.2637
      7 C           1.8080   -0.1500    0.0000 C.3     1  LIG1        0.1816
      8 C           2.3080    0.7170    0.0000 C.2     1  LIG1        0.2494
      9 N           1.8080    1.5580    0.0000 N.am    1  LIG1       -0.2002
     10 C           0.7960    1.5580    0.0000 C.3     1  LIG1        0.1445
     11 C           0.3130    2.4330    0.0000 C.ar    1  LIG1        0.0334
     12 C           0.7960    3.2960    0.0000 C.ar    1  LIG1        0.1364
     13 O           1.7920    3.2960    0.0000 O.3     1  LIG1       -0.4717
     14 C           2.2920    4.1540    0.0000 C.3     1  LIG1        0.2525
     15 C           0.3130    4.1580    0.0000 C.ar    1  LIG1        0.0366
     16 C          -0.7040    4.1420    0.0000 C.ar    1  LIG1        0.0031
     17 C          -1.2000    3.2710    0.0000 C.ar    1  LIG1       -0.0001
     18 C          -0.7040    2.4210    0.0000 C.ar    1  LIG1        0.0005
     19 O           3.3210    0.7080    0.0000 O.2     1  LIG1       -0.2731
     20 C          -1.5830    0.8670    0.0000 C.ar    1  LIG1        0.1585
     21 C          -2.4580    0.3540    0.0000 C.ar    1  LIG1        0.3068
     22 N          -2.4580   -0.6380    0.0000 N.ar    1  LIG1        0.1032
     23 C          -1.5790   -1.1500    0.0000 C.ar    1  LIG1        0.4035
     24 S          -1.5790   -2.1420    0.0000 S.3     1  LIG1       -0.0096
     25 C          -0.7170   -2.6290    0.0000 C.3     1  LIG1        0.1579
     26 C          -0.7330   -3.6460    0.0000 C.2     1  LIG1        0.2723
     27 O          -1.5830   -4.1580    0.0000 O.2     1  LIG1       -0.2707
     28 N           0.1380   -4.1580    0.0000 N.am    1  LIG1       -0.0870
     29 C          -3.3250    0.8670    0.0000 C.ar    1  LIG1        0.0765
     30 C          -3.3250    1.8580    0.0000 C.ar    1  LIG1        0.0063
     31 C          -2.4630    2.3750    0.0000 C.ar    1  LIG1        0.0007
     32 C          -1.6130    1.8580    0.0000 C.ar    1  LIG1        0.0141
@<TRIPOS>BOND
     1     1     2   ar
     2     1     5   am
     3     1    23   ar
     4     2     3    2
     5     2    20   ar
     6     3     4    1
     7     4     5    1
     8     4     7    1
     9     5     6    2
    10     7     8    1
    11     8     9   am
    12     8    19    2
    13     9    10    1
    14    10    11    1
    15    11    12   ar
    16    11    18   ar
    17    12    13    1
    18    12    15   ar
    19    13    14    1
    20    15    16   ar
    21    16    17   ar
    22    17    18   ar
    23    20    21   ar
    24    20    32   ar
    25    21    22   ar
    26    21    29   ar
    27    22    23   ar
    28    23    24    1
    29    24    25    1
    30    25    26    1
    31    26    27    2
    32    26    28   am
    33    29    30   ar
    34    30    31   ar
    35    31    32   ar
