@<TRIPOS>MOLECULE
36988_ChemDiv_K953-0110
 31 34 0 0 0
SMALL
GASTEIGER
Energy = 0

@<TRIPOS>ATOM
      1 C           0.8670   -0.7420    0.0000 C.ar    1  LIG1        0.2036
      2 C           1.7290   -0.2420    0.0000 C.ar    1  LIG1        0.0395
      3 C           2.6000   -0.7380    0.0000 C.ar    1  LIG1        0.0093
      4 C           2.6000   -1.7330    0.0000 C.ar    1  LIG1        0.0761
      5 C           1.7380   -2.2460    0.0000 C.ar    1  LIG1        0.3458
      6 O           0.8670   -1.7420    0.0000 O.2     1  LIG1       -0.4163
      7 O           1.7380   -3.2500    0.0000 O.2     1  LIG1       -0.2445
      8 C           3.4670   -2.2330    0.0000 C.ar    1  LIG1        0.0065
      9 C           4.3330   -1.7250    0.0000 C.ar    1  LIG1        0.0002
     10 C           4.3290   -0.7290    0.0000 C.ar    1  LIG1        0.0000
     11 C           3.4580   -0.2380    0.0000 C.ar    1  LIG1        0.0003
     12 C           1.7290    0.7540    0.0000 C.ar    1  LIG1        0.0031
     13 C           0.8670    1.2460    0.0000 C.ar    1  LIG1       -0.0002
     14 C           0.8670    2.2460    0.0000 C.ar    1  LIG1       -0.0043
     15 C           1.7330    2.7540    0.0000 C.ar    1  LIG1       -0.0218
     16 C           2.6000    2.2460    0.0000 C.ar    1  LIG1       -0.0043
     17 C           2.6000    1.2460    0.0000 C.ar    1  LIG1       -0.0002
     18 C           1.7290    3.7540    0.0000 C.3     1  LIG1        0.0310
     19 C          -0.0040   -0.2420    0.0000 C.2     1  LIG1        0.3038
     20 N          -0.8710   -0.7380    0.0000 N.am    1  LIG1       -0.1728
     21 C          -0.8710   -1.7420    0.0000 C.ar    1  LIG1        0.0751
     22 C          -1.7500   -2.2460    0.0000 C.ar    1  LIG1        0.0332
     23 C          -1.7500   -3.2500    0.0000 C.ar    1  LIG1        0.0747
     24 N          -2.6130   -3.7460    0.0000 N.am    1  LIG1       -0.1792
     25 C          -3.4710   -3.2540    0.0000 C.2     1  LIG1        0.2461
     26 O          -3.4710   -2.2540    0.0000 O.2     1  LIG1       -0.2730
     27 C          -4.3380   -3.7500    0.0000 C.3     1  LIG1        0.0968
     28 C          -0.8750   -3.7420    0.0000 C.ar    1  LIG1        0.0167
     29 C          -0.0130   -3.2420    0.0000 C.ar    1  LIG1        0.0027
     30 C          -0.0040   -2.2460    0.0000 C.ar    1  LIG1        0.0167
     31 O          -0.0040    0.7580    0.0000 O.2     1  LIG1       -0.2646
@<TRIPOS>BOND
     1     1     2   ar
     2     1     6   ar
     3     1    19    1
     4     2     3   ar
     5     2    12    1
     6     3     4   ar
     7     3    11   ar
     8     4     5   ar
     9     4     8   ar
    10     5     6   ar
    11     5     7    2
    12     8     9   ar
    13     9    10   ar
    14    10    11   ar
    15    12    13   ar
    16    12    17   ar
    17    13    14   ar
    18    14    15   ar
    19    15    16   ar
    20    15    18    1
    21    16    17   ar
    22    19    20   am
    23    19    31    2
    24    20    21    1
    25    21    22   ar
    26    21    30   ar
    27    22    23   ar
    28    23    24    1
    29    23    28   ar
    30    24    25   am
    31    25    26    2
    32    25    27    1
    33    28    29   ar
    34    29    30   ar
