@<TRIPOS>MOLECULE
36987_ChemDiv_K279-1532
 36 39 0 0 0
SMALL
GASTEIGER
Energy = 0

@<TRIPOS>ATOM
      1 N          -2.4790    0.4170    0.0000 N.ar    1  LIG1       -0.1479
      2 C          -2.4790    1.4130    0.0000 C.ar    1  LIG1        0.3753
      3 N          -1.5250    1.7210    0.0000 N.2     1  LIG1        0.0760
      4 C          -0.9420    0.9170    0.0000 C.3     1  LIG1        0.4056
      5 C          -1.5250    0.1130    0.0000 C.2     1  LIG1        0.3293
      6 O          -1.2210   -0.8500    0.0000 O.2     1  LIG1       -0.2637
      7 C           0.0580    0.9040    0.0000 C.3     1  LIG1        0.1815
      8 C           0.5580    0.0420    0.0000 C.2     1  LIG1        0.2491
      9 O           0.0580   -0.8250    0.0000 O.2     1  LIG1       -0.2731
     10 N           1.5630    0.0420    0.0000 N.am    1  LIG1       -0.2049
     11 C           2.0630   -0.8210    0.0000 C.3     1  LIG1        0.1198
     12 C           3.0580   -0.8210    0.0000 C.3     1  LIG1        0.0498
     13 C           3.5580   -1.6830    0.0000 C.ar    1  LIG1       -0.0204
     14 C           4.5670   -1.6830    0.0000 C.ar    1  LIG1       -0.0042
     15 C           5.0670   -2.5460    0.0000 C.ar    1  LIG1       -0.0003
     16 C           4.5670   -3.4130    0.0000 C.ar    1  LIG1       -0.0000
     17 C           3.5580   -3.4130    0.0000 C.ar    1  LIG1       -0.0003
     18 C           3.0580   -2.5500    0.0000 C.ar    1  LIG1       -0.0042
     19 C          -3.3420    1.9130    0.0000 C.ar    1  LIG1        0.1585
     20 C          -4.2040    1.4130    0.0000 C.ar    1  LIG1        0.3068
     21 N          -4.2040    0.4170    0.0000 N.ar    1  LIG1        0.1032
     22 C          -3.3420   -0.0830    0.0000 C.ar    1  LIG1        0.4035
     23 S          -3.3420   -1.0830    0.0000 S.3     1  LIG1       -0.0096
     24 C          -4.2040   -1.5830    0.0000 C.3     1  LIG1        0.1562
     25 C          -4.2040   -2.5920    0.0000 C.2     1  LIG1        0.2530
     26 O          -5.0670   -3.0880    0.0000 O.2     1  LIG1       -0.2724
     27 N          -3.3420   -3.0880    0.0000 N.am    1  LIG1       -0.2046
     28 C          -2.4670   -2.5920    0.0000 C.3     1  LIG1        0.1178
     29 C          -1.6000   -3.0880    0.0000 C.3     1  LIG1        0.0555
     30 C          -0.7380   -2.5920    0.0000 C.3     1  LIG1        0.1441
     31 O           0.1330   -3.0880    0.0000 O.3     1  LIG1       -0.3510
     32 C           1.0000   -2.5920    0.0000 C.3     1  LIG1        0.1741
     33 C          -5.0710    1.9130    0.0000 C.ar    1  LIG1        0.0765
     34 C          -5.0710    2.9170    0.0000 C.ar    1  LIG1        0.0063
     35 C          -4.2040    3.4170    0.0000 C.ar    1  LIG1        0.0007
     36 C          -3.3420    2.9170    0.0000 C.ar    1  LIG1        0.0141
@<TRIPOS>BOND
     1     1     2   ar
     2     1     5   am
     3     1    22   ar
     4     2     3    2
     5     2    19   ar
     6     3     4    1
     7     4     5    1
     8     4     7    1
     9     5     6    2
    10     7     8    1
    11     8     9    2
    12     8    10   am
    13    10    11    1
    14    11    12    1
    15    12    13    1
    16    13    14   ar
    17    13    18   ar
    18    14    15   ar
    19    15    16   ar
    20    16    17   ar
    21    17    18   ar
    22    19    20   ar
    23    19    36   ar
    24    20    21   ar
    25    20    33   ar
    26    21    22   ar
    27    22    23    1
    28    23    24    1
    29    24    25    1
    30    25    26    2
    31    25    27   am
    32    27    28    1
    33    28    29    1
    34    29    30    1
    35    30    31    1
    36    31    32    1
    37    33    34   ar
    38    34    35   ar
    39    35    36   ar
