@<TRIPOS>MOLECULE
36980_ChemDiv_C607-0738
 27 30 0 0 0
SMALL
GASTEIGER
Energy = 0

@<TRIPOS>ATOM
      1 C          -0.8540    0.5130    0.0000 C.ar    1  LIG1        0.2036
      2 C          -1.7330    0.0040    0.0000 C.ar    1  LIG1        0.0395
      3 C          -2.5920    0.5130    0.0000 C.ar    1  LIG1        0.0093
      4 C          -2.5920    1.5080    0.0000 C.ar    1  LIG1        0.0761
      5 C          -1.7330    2.0080    0.0000 C.ar    1  LIG1        0.3458
      6 O          -0.8540    1.5080    0.0000 O.2     1  LIG1       -0.4163
      7 O          -1.7330    3.0130    0.0000 O.2     1  LIG1       -0.2445
      8 C          -3.4580    2.0080    0.0000 C.ar    1  LIG1        0.0065
      9 C          -4.3290    1.5080    0.0000 C.ar    1  LIG1        0.0002
     10 C          -4.3290    0.5130    0.0000 C.ar    1  LIG1        0.0000
     11 C          -3.4580    0.0040    0.0000 C.ar    1  LIG1        0.0003
     12 C          -1.7330   -0.9960    0.0000 C.ar    1  LIG1        0.0031
     13 C          -2.5960   -1.5040    0.0000 C.ar    1  LIG1        0.0001
     14 C          -2.5960   -2.5080    0.0000 C.ar    1  LIG1        0.0000
     15 C          -1.7330   -3.0080    0.0000 C.ar    1  LIG1        0.0000
     16 C          -0.8630   -2.5080    0.0000 C.ar    1  LIG1        0.0000
     17 C          -0.8630   -1.5040    0.0000 C.ar    1  LIG1        0.0001
     18 C           0.0210    0.0000    0.0000 C.2     1  LIG1        0.3038
     19 N           0.8830    0.5000    0.0000 N.am    1  LIG1       -0.1728
     20 C           1.7420    0.0000    0.0000 C.ar    1  LIG1        0.0740
     21 C           2.5880    0.4880    0.0000 C.ar    1  LIG1        0.0199
     22 C           3.4500    0.0000    0.0000 C.ar    1  LIG1        0.0434
     23 C           3.4580   -0.9960    0.0000 C.ar    1  LIG1        0.1958
     24 C           2.5880   -1.4960    0.0000 C.ar    1  LIG1        0.0434
     25 C           1.7420   -0.9960    0.0000 C.ar    1  LIG1        0.0199
     26 O           4.3250   -1.5040    0.0000 O.3     1  LIG1       -0.2866
     27 O           0.0210   -0.9960    0.0000 O.2     1  LIG1       -0.2646
@<TRIPOS>BOND
     1     1     2   ar
     2     1     6   ar
     3     1    18    1
     4     2     3   ar
     5     2    12    1
     6     3     4   ar
     7     3    11   ar
     8     4     5   ar
     9     4     8   ar
    10     5     6   ar
    11     5     7    2
    12     8     9   ar
    13     9    10   ar
    14    10    11   ar
    15    12    13   ar
    16    12    17   ar
    17    13    14   ar
    18    14    15   ar
    19    15    16   ar
    20    16    17   ar
    21    18    19   am
    22    18    27    2
    23    19    20    1
    24    20    21   ar
    25    20    25   ar
    26    21    22   ar
    27    22    23   ar
    28    23    24   ar
    29    23    26    1
    30    24    25   ar
