@<TRIPOS>MOLECULE
36982_ChemDiv_C607-0748
 30 33 0 0 0
SMALL
GASTEIGER
Energy = 0

@<TRIPOS>ATOM
      1 C          -0.4250    0.5130    0.0000 C.ar    1  LIG1        0.2021
      2 C          -1.3000    0.0040    0.0000 C.ar    1  LIG1        0.0395
      3 C          -2.1630    0.5130    0.0000 C.ar    1  LIG1        0.0093
      4 C          -2.1630    1.5080    0.0000 C.ar    1  LIG1        0.0761
      5 C          -1.3000    2.0080    0.0000 C.ar    1  LIG1        0.3458
      6 O          -0.4250    1.5080    0.0000 O.2     1  LIG1       -0.4163
      7 O          -1.3000    3.0080    0.0000 O.2     1  LIG1       -0.2445
      8 C          -3.0290    2.0080    0.0000 C.ar    1  LIG1        0.0065
      9 C          -3.9000    1.5080    0.0000 C.ar    1  LIG1        0.0002
     10 C          -3.9000    0.5130    0.0000 C.ar    1  LIG1        0.0000
     11 C          -3.0290    0.0040    0.0000 C.ar    1  LIG1        0.0003
     12 C          -1.3000   -0.9960    0.0000 C.ar    1  LIG1        0.0031
     13 C          -2.1670   -1.5040    0.0000 C.ar    1  LIG1        0.0001
     14 C          -2.1670   -2.5080    0.0000 C.ar    1  LIG1        0.0000
     15 C          -1.3000   -3.0040    0.0000 C.ar    1  LIG1        0.0000
     16 C          -0.4290   -2.5080    0.0000 C.ar    1  LIG1        0.0000
     17 C          -0.4290   -1.5040    0.0000 C.ar    1  LIG1        0.0001
     18 C           0.4500    0.0000    0.0000 C.2     1  LIG1        0.2877
     19 N           1.3130    0.4960    0.0000 N.am    1  LIG1       -0.2482
     20 C           2.1710    0.0000    0.0000 C.ar    1  LIG1        0.0884
     21 C           3.0290    0.4960    0.0000 C.ar    1  LIG1        0.1521
     22 O           3.0290    1.4960    0.0000 O.3     1  LIG1       -0.4742
     23 C           2.1580    1.9920    0.0000 C.3     1  LIG1        0.2056
     24 C           2.1580    2.9880    0.0000 C.3     1  LIG1        0.0512
     25 C           3.8880    0.0040    0.0000 C.ar    1  LIG1        0.0382
     26 C           3.8960   -0.9960    0.0000 C.ar    1  LIG1        0.0032
     27 C           3.0330   -1.4920    0.0000 C.ar    1  LIG1        0.0015
     28 C           2.1710   -0.9960    0.0000 C.ar    1  LIG1        0.0180
     29 C           1.3130    1.4960    0.0000 C.3     1  LIG1        0.1205
     30 O           0.4500   -0.9960    0.0000 O.2     1  LIG1       -0.2662
@<TRIPOS>BOND
     1     1     2   ar
     2     1     6   ar
     3     1    18    1
     4     2     3   ar
     5     2    12    1
     6     3     4   ar
     7     3    11   ar
     8     4     5   ar
     9     4     8   ar
    10     5     6   ar
    11     5     7    2
    12     8     9   ar
    13     9    10   ar
    14    10    11   ar
    15    12    13   ar
    16    12    17   ar
    17    13    14   ar
    18    14    15   ar
    19    15    16   ar
    20    16    17   ar
    21    18    19   am
    22    18    30    2
    23    19    20    1
    24    19    29    1
    25    20    21   ar
    26    20    28   ar
    27    21    22    1
    28    21    25   ar
    29    22    23    1
    30    23    24    1
    31    25    26   ar
    32    26    27   ar
    33    27    28   ar
