@<TRIPOS>MOLECULE
36986_ChemDiv_K953-0089
 32 35 0 0 0
SMALL
GASTEIGER
Energy = 0

@<TRIPOS>ATOM
      1 C           1.1630   -0.4330    0.0000 C.ar    1  LIG1        0.2036
      2 C           2.0250    0.0670    0.0000 C.ar    1  LIG1        0.0395
      3 C           2.8960   -0.4290    0.0000 C.ar    1  LIG1        0.0093
      4 C           2.8960   -1.4290    0.0000 C.ar    1  LIG1        0.0761
      5 C           2.0330   -1.9380    0.0000 C.ar    1  LIG1        0.3458
      6 O           1.1630   -1.4380    0.0000 O.2     1  LIG1       -0.4163
      7 O           2.0330   -2.9420    0.0000 O.2     1  LIG1       -0.2445
      8 C           3.7630   -1.9250    0.0000 C.ar    1  LIG1        0.0065
      9 C           4.6290   -1.4170    0.0000 C.ar    1  LIG1        0.0002
     10 C           4.6250   -0.4210    0.0000 C.ar    1  LIG1        0.0000
     11 C           3.7540    0.0670    0.0000 C.ar    1  LIG1        0.0003
     12 C           2.0250    1.0580    0.0000 C.ar    1  LIG1        0.0031
     13 C           1.1630    1.5500    0.0000 C.ar    1  LIG1       -0.0002
     14 C           1.1630    2.5500    0.0000 C.ar    1  LIG1       -0.0043
     15 C           2.0290    3.0580    0.0000 C.ar    1  LIG1       -0.0218
     16 C           2.8960    2.5500    0.0000 C.ar    1  LIG1       -0.0043
     17 C           2.8960    1.5500    0.0000 C.ar    1  LIG1       -0.0002
     18 C           2.0250    4.0540    0.0000 C.3     1  LIG1        0.0310
     19 C           0.2920    0.0670    0.0000 C.2     1  LIG1        0.3038
     20 N          -0.5750   -0.4290    0.0000 N.am    1  LIG1       -0.1726
     21 C          -0.5750   -2.1920    0.0000 C.ar    1  LIG1        0.0800
     22 C          -1.4080   -2.6000    0.0000 C.ar    1  LIG1        0.0909
     23 C          -2.1750   -2.1170    0.0000 C.2     1  LIG1        0.3425
     24 O          -2.1250   -1.1710    0.0000 O.2     1  LIG1       -0.2448
     25 O          -3.0000   -2.5170    0.0000 O.3     1  LIG1       -0.4454
     26 C          -3.7920   -2.0130    0.0000 C.3     1  LIG1        0.2089
     27 C          -4.6330   -2.4380    0.0000 C.3     1  LIG1        0.0513
     28 C          -1.4630   -3.5380    0.0000 C.ar    1  LIG1        0.0078
     29 C          -0.6750   -4.0540    0.0000 C.ar    1  LIG1        0.0003
     30 C           0.1630   -3.6330    0.0000 C.ar    1  LIG1        0.0013
     31 C           0.2040   -2.7130    0.0000 C.ar    1  LIG1        0.0168
     32 O           0.2920    1.0630    0.0000 O.2     1  LIG1       -0.2646
@<TRIPOS>BOND
     1     1     2   ar
     2     1     6   ar
     3     1    19    1
     4     2     3   ar
     5     2    12    1
     6     3     4   ar
     7     3    11   ar
     8     4     5   ar
     9     4     8   ar
    10     5     6   ar
    11     5     7    2
    12     8     9   ar
    13     9    10   ar
    14    10    11   ar
    15    12    13   ar
    16    12    17   ar
    17    13    14   ar
    18    14    15   ar
    19    15    16   ar
    20    15    18    1
    21    16    17   ar
    22    19    20   am
    23    19    32    2
    24    20    21    1
    25    21    22   ar
    26    21    31   ar
    27    22    23    1
    28    22    28   ar
    29    23    24    2
    30    23    25    1
    31    25    26    1
    32    26    27    1
    33    28    29   ar
    34    29    30   ar
    35    30    31   ar
