@<TRIPOS>MOLECULE
36997_ChemDiv_C361-1069
 30 33 0 0 0
SMALL
GASTEIGER
Energy = 0

@<TRIPOS>ATOM
      1 S           1.4000    0.1290    0.0000 S.O2    1  LIG1        0.0636
      2 N           2.2750    0.6380    0.0000 N.3     1  LIG1       -0.1511
      3 C           2.2750    1.6380    0.0000 C.3     1  LIG1        0.1221
      4 C           3.1880    2.0290    0.0000 C.ar    1  LIG1       -0.0045
      5 C           4.0040    1.4380    0.0000 C.ar    1  LIG1       -0.0029
      6 C           4.9210    1.8330    0.0000 C.ar    1  LIG1       -0.0003
      7 C           5.0500    2.8210    0.0000 C.ar    1  LIG1       -0.0000
      8 C           4.2330    3.4130    0.0000 C.ar    1  LIG1       -0.0003
      9 C           3.3000    3.0170    0.0000 C.ar    1  LIG1       -0.0029
     10 C           3.1460    0.1290    0.0000 C.3     1  LIG1        0.0962
     11 C           3.1630   -0.8580    0.0000 C.3     1  LIG1        0.0192
     12 C           4.0210   -1.3790    0.0000 C.3     1  LIG1        0.0015
     13 C           4.0500   -2.3670    0.0000 C.3     1  LIG1        0.0000
     14 C           0.5420   -0.3630    0.0000 C.ar    1  LIG1        0.1220
     15 C          -0.3330    0.1290    0.0000 C.ar    1  LIG1        0.0169
     16 C          -1.2080   -0.3630    0.0000 C.ar    1  LIG1       -0.0054
     17 C          -1.2080   -1.3630    0.0000 C.ar    1  LIG1        0.0500
     18 N          -2.1500   -1.6750    0.0000 N.am    1  LIG1       -0.2586
     19 C          -2.6420   -2.5460    0.0000 C.2     1  LIG1        0.2288
     20 O          -2.1500   -3.4080    0.0000 O.2     1  LIG1       -0.2745
     21 C          -3.6460   -2.5460    0.0000 C.3     1  LIG1        0.0770
     22 C          -4.3500   -3.2540    0.0000 C.3     1  LIG1        0.0091
     23 C          -5.0540   -2.5460    0.0000 C.3     1  LIG1        0.0010
     24 C          -4.3500   -1.8290    0.0000 C.3     1  LIG1        0.0091
     25 C          -2.7290   -0.8710    0.0000 C.3     1  LIG1        0.1029
     26 C          -2.1500   -0.0540    0.0000 C.3     1  LIG1        0.0495
     27 C          -0.3330   -1.8710    0.0000 C.ar    1  LIG1        0.0160
     28 C           0.5420   -1.3630    0.0000 C.ar    1  LIG1        0.0212
     29 O           1.9080   -0.7290    0.0000 O.2     1  LIG1       -0.1528
     30 O           0.9080    1.0040    0.0000 O.2     1  LIG1       -0.1528
@<TRIPOS>BOND
     1     1     2    1
     2     1    14    1
     3     1    29    2
     4     1    30    2
     5     2     3    1
     6     2    10    1
     7     3     4    1
     8     4     5   ar
     9     4     9   ar
    10     5     6   ar
    11     6     7   ar
    12     7     8   ar
    13     8     9   ar
    14    10    11    1
    15    11    12    1
    16    12    13    1
    17    14    15   ar
    18    14    28   ar
    19    15    16   ar
    20    16    17   ar
    21    16    26    1
    22    17    18    1
    23    17    27   ar
    24    18    19   am
    25    18    25    1
    26    19    20    2
    27    19    21    1
    28    21    22    1
    29    21    24    1
    30    22    23    1
    31    23    24    1
    32    25    26    1
    33    27    28   ar
