@<TRIPOS>MOLECULE
36998_ChemDiv_C445-0023
 32 36 0 0 0
SMALL
GASTEIGER
Energy = 0

@<TRIPOS>ATOM
      1 N          -0.4420    1.5420    0.0000 N.ar    1  LIG1       -0.1881
      2 C          -1.3170    2.0540    0.0000 C.ar    1  LIG1        0.1688
      3 C          -2.1790    1.5420    0.0000 C.ar    1  LIG1        0.0569
      4 C          -2.1790    0.5330    0.0000 C.ar    1  LIG1        0.0896
      5 N          -1.3170    0.0290    0.0000 N.ar    1  LIG1       -0.2209
      6 C          -0.4580    0.5330    0.0000 C.ar    1  LIG1        0.1930
      7 S           0.4170    0.0170    0.0000 S.3     1  LIG1       -0.0691
      8 C           0.4170   -0.9790    0.0000 C.3     1  LIG1        0.1109
      9 C           1.2880   -1.4750    0.0000 C.ar    1  LIG1        0.0767
     10 N           2.1540   -0.9790    0.0000 N.ar    1  LIG1       -0.2311
     11 C           3.0130   -1.4750    0.0000 C.ar    1  LIG1        0.1497
     12 N           3.0130   -2.4830    0.0000 N.ar    1  LIG1       -0.2569
     13 C           2.1540   -2.9830    0.0000 C.ar    1  LIG1        0.2672
     14 C           1.2790   -2.4830    0.0000 C.ar    1  LIG1        0.0767
     15 O           2.1500   -3.9790    0.0000 O.2     1  LIG1       -0.2665
     16 C           3.8830   -2.9830    0.0000 C.ar    1  LIG1        0.0957
     17 C           4.7580   -2.4830    0.0000 C.ar    1  LIG1        0.0754
     18 C           4.7460   -1.4750    0.0000 C.ar    1  LIG1        0.0160
     19 C           3.8830   -0.9790    0.0000 C.ar    1  LIG1        0.0384
     20 CL          5.6250   -2.9830    0.0000 Cl      1  LIG1       -0.0807
     21 C          -3.0330    0.0380    0.0000 C.ar    1  LIG1        0.0593
     22 C          -3.9080    0.5460    0.0000 C.ar    1  LIG1        0.1739
     23 C          -3.9000    1.5420    0.0000 C.ar    1  LIG1        0.1726
     24 C          -3.0330    2.0380    0.0000 C.ar    1  LIG1        0.0446
     25 O          -4.7630    2.0380    0.0000 O.3     1  LIG1       -0.4684
     26 C          -5.6290    1.5460    0.0000 C.3     1  LIG1        0.2526
     27 O          -4.7750    0.0460    0.0000 O.3     1  LIG1       -0.4683
     28 C          -4.7830   -0.9460    0.0000 C.3     1  LIG1        0.2526
     29 N          -1.0790    3.0170    0.0000 N.ar    1  LIG1       -0.2100
     30 C          -0.0920    3.1170    0.0000 C.ar    1  LIG1        0.1612
     31 N           0.3000    2.2040    0.0000 N.ar    1  LIG1       -0.1471
     32 C           0.4040    3.9830    0.0000 C.3     1  LIG1        0.0756
@<TRIPOS>BOND
     1     1     2   ar
     2     1     6   ar
     3     1    31   ar
     4     2     3   ar
     5     2    29   ar
     6     3     4   ar
     7     3    24   ar
     8     4     5   ar
     9     4    21   ar
    10     5     6   ar
    11     6     7    1
    12     7     8    1
    13     8     9    1
    14     9    10   ar
    15     9    14   ar
    16    10    11   ar
    17    11    12   ar
    18    11    19   ar
    19    12    13   ar
    20    12    16   ar
    21    13    14   ar
    22    13    15    2
    23    16    17   ar
    24    17    18   ar
    25    17    20    1
    26    18    19   ar
    27    21    22   ar
    28    22    23   ar
    29    22    27    1
    30    23    24   ar
    31    23    25    1
    32    25    26    1
    33    27    28    1
    34    29    30   ar
    35    30    31   ar
    36    30    32    1
