@<TRIPOS>MOLECULE
36990_ChemDiv_K953-0207
 28 31 0 0 0
SMALL
GASTEIGER
Energy = 0

@<TRIPOS>ATOM
      1 C           0.4330   -0.2420    0.0000 C.ar    1  LIG1        0.2036
      2 C           1.2960    0.2540    0.0000 C.ar    1  LIG1        0.0395
      3 C           2.1630   -0.2380    0.0000 C.ar    1  LIG1        0.0093
      4 C           2.1630   -1.2330    0.0000 C.ar    1  LIG1        0.0761
      5 C           1.3040   -1.7460    0.0000 C.ar    1  LIG1        0.3458
      6 O           0.4330   -1.2420    0.0000 O.2     1  LIG1       -0.4163
      7 O           1.3040   -2.7460    0.0000 O.2     1  LIG1       -0.2445
      8 C           3.0330   -1.7290    0.0000 C.ar    1  LIG1        0.0065
      9 C           3.8920   -1.2250    0.0000 C.ar    1  LIG1        0.0002
     10 C           3.8920   -0.2290    0.0000 C.ar    1  LIG1        0.0000
     11 C           3.0250    0.2630    0.0000 C.ar    1  LIG1        0.0003
     12 C           1.2960    1.2540    0.0000 C.ar    1  LIG1        0.0031
     13 C           0.4330    1.7420    0.0000 C.ar    1  LIG1        0.0001
     14 C           0.4330    2.7420    0.0000 C.ar    1  LIG1        0.0000
     15 C           1.3000    3.2500    0.0000 C.ar    1  LIG1        0.0000
     16 C           2.1630    2.7460    0.0000 C.ar    1  LIG1        0.0000
     17 C           2.1630    1.7420    0.0000 C.ar    1  LIG1        0.0001
     18 C          -0.4380    0.2580    0.0000 C.2     1  LIG1        0.3038
     19 N          -1.3040   -0.2380    0.0000 N.am    1  LIG1       -0.1732
     20 C          -1.3040   -1.2420    0.0000 C.ar    1  LIG1        0.0698
     21 C          -2.1540   -1.7290    0.0000 C.ar    1  LIG1       -0.0068
     22 C          -3.0250   -1.2250    0.0000 C.3     1  LIG1        0.0277
     23 C          -3.8960   -1.7290    0.0000 C.3     1  LIG1        0.0051
     24 C          -2.1790   -2.7420    0.0000 C.ar    1  LIG1       -0.0030
     25 C          -1.3040   -3.2460    0.0000 C.ar    1  LIG1       -0.0002
     26 C          -0.4250   -2.7380    0.0000 C.ar    1  LIG1        0.0013
     27 C          -0.4330   -1.7580    0.0000 C.ar    1  LIG1        0.0163
     28 O          -0.4380    1.2540    0.0000 O.2     1  LIG1       -0.2646
@<TRIPOS>BOND
     1     1     2   ar
     2     1     6   ar
     3     1    18    1
     4     2     3   ar
     5     2    12    1
     6     3     4   ar
     7     3    11   ar
     8     4     5   ar
     9     4     8   ar
    10     5     6   ar
    11     5     7    2
    12     8     9   ar
    13     9    10   ar
    14    10    11   ar
    15    12    13   ar
    16    12    17   ar
    17    13    14   ar
    18    14    15   ar
    19    15    16   ar
    20    16    17   ar
    21    18    19   am
    22    18    28    2
    23    19    20    1
    24    20    21   ar
    25    20    27   ar
    26    21    22    1
    27    21    24   ar
    28    22    23    1
    29    24    25   ar
    30    25    26   ar
    31    26    27   ar
