@<TRIPOS>MOLECULE
36995_ChemDiv_C361-1064
 31 34 0 0 0
SMALL
GASTEIGER
Energy = 0

@<TRIPOS>ATOM
      1 N          -1.7040   -3.5580    0.0000 N.am    1  LIG1       -0.2586
      2 C          -2.2000   -4.4250    0.0000 C.2     1  LIG1        0.2288
      3 O          -1.7040   -5.2790    0.0000 O.2     1  LIG1       -0.2745
      4 C          -3.2000   -4.4250    0.0000 C.3     1  LIG1        0.0770
      5 C          -3.8960   -5.1210    0.0000 C.3     1  LIG1        0.0091
      6 C          -4.6040   -4.4250    0.0000 C.3     1  LIG1        0.0010
      7 C          -3.8960   -3.7170    0.0000 C.3     1  LIG1        0.0091
      8 C          -0.7580   -3.2500    0.0000 C.ar    1  LIG1        0.0500
      9 C          -0.7580   -2.2500    0.0000 C.ar    1  LIG1       -0.0054
     10 C           0.1130   -1.7540    0.0000 C.ar    1  LIG1        0.0170
     11 C           0.9670   -2.2500    0.0000 C.ar    1  LIG1        0.1233
     12 S           1.8330   -1.7540    0.0000 S.O2    1  LIG1        0.0768
     13 O           1.3420   -0.9000    0.0000 O.2     1  LIG1       -0.1516
     14 O           2.3290   -2.6210    0.0000 O.2     1  LIG1       -0.1516
     15 N           2.7040   -1.2580    0.0000 N.3     1  LIG1       -0.0774
     16 C           2.7040   -0.2580    0.0000 C.3     1  LIG1        0.1201
     17 C           3.5710    0.2380    0.0000 C.3     1  LIG1        0.0472
     18 C           3.5710    1.2500    0.0000 C.ar    1  LIG1       -0.0206
     19 C           4.4380    1.7580    0.0000 C.ar    1  LIG1       -0.0028
     20 C           4.4380    2.7580    0.0000 C.ar    1  LIG1        0.0197
     21 C           3.5710    3.2540    0.0000 C.ar    1  LIG1        0.1250
     22 S           3.5830    4.2790    0.0000 S.O2    1  LIG1        0.0935
     23 O           2.5540    4.2790    0.0000 O.2     1  LIG1       -0.1503
     24 O           4.6000    4.2670    0.0000 O.2     1  LIG1       -0.1503
     25 N           3.5830    5.2790    0.0000 N.3     1  LIG1        0.0392
     26 C           2.7040    2.7580    0.0000 C.ar    1  LIG1        0.0197
     27 C           2.6880    1.7580    0.0000 C.ar    1  LIG1       -0.0028
     28 C           0.9670   -3.2500    0.0000 C.ar    1  LIG1        0.0212
     29 C           0.1130   -3.7460    0.0000 C.ar    1  LIG1        0.0160
     30 C          -1.7040   -1.9420    0.0000 C.3     1  LIG1        0.0495
     31 C          -2.2790   -2.7540    0.0000 C.3     1  LIG1        0.1029
@<TRIPOS>BOND
     1     1     2   am
     2     1     8    1
     3     1    31    1
     4     2     3    2
     5     2     4    1
     6     4     5    1
     7     4     7    1
     8     5     6    1
     9     6     7    1
    10     8     9   ar
    11     8    29   ar
    12     9    10   ar
    13     9    30    1
    14    10    11   ar
    15    11    12    1
    16    11    28   ar
    17    12    13    2
    18    12    14    2
    19    12    15    1
    20    15    16    1
    21    16    17    1
    22    17    18    1
    23    18    19   ar
    24    18    27   ar
    25    19    20   ar
    26    20    21   ar
    27    21    22    1
    28    21    26   ar
    29    22    23    2
    30    22    24    2
    31    22    25    1
    32    26    27   ar
    33    28    29   ar
    34    30    31    1
