@<TRIPOS>MOLECULE
36993_ChemDiv_C361-1063
 27 29 0 0 0
SMALL
GASTEIGER
Energy = 0

@<TRIPOS>ATOM
      1 S           0.7380    0.0630    0.0000 S.O2    1  LIG1        0.0768
      2 C          -0.1330   -0.4420    0.0000 C.ar    1  LIG1        0.1233
      3 C          -1.0040    0.0630    0.0000 C.ar    1  LIG1        0.0170
      4 C          -1.8920   -0.4420    0.0000 C.ar    1  LIG1       -0.0054
      5 C          -1.8920   -1.4500    0.0000 C.ar    1  LIG1        0.0500
      6 N          -2.8380   -1.7710    0.0000 N.am    1  LIG1       -0.2586
      7 C          -3.3420   -2.6420    0.0000 C.2     1  LIG1        0.2288
      8 O          -2.8380   -3.5170    0.0000 O.2     1  LIG1       -0.2745
      9 C          -4.3540   -2.6420    0.0000 C.3     1  LIG1        0.0770
     10 C          -5.0710   -3.3630    0.0000 C.3     1  LIG1        0.0091
     11 C          -5.7880   -2.6420    0.0000 C.3     1  LIG1        0.0010
     12 C          -5.0710   -1.9250    0.0000 C.3     1  LIG1        0.0091
     13 C          -3.4330   -0.9460    0.0000 C.3     1  LIG1        0.1029
     14 C          -2.8380   -0.1380    0.0000 C.3     1  LIG1        0.0495
     15 C          -1.0040   -1.9540    0.0000 C.ar    1  LIG1        0.0160
     16 C          -0.1330   -1.4500    0.0000 C.ar    1  LIG1        0.0212
     17 N           1.6130    0.5670    0.0000 N.3     1  LIG1       -0.0778
     18 C           1.5790    1.5750    0.0000 C.3     1  LIG1        0.1154
     19 C           2.4210    2.0500    0.0000 C.3     1  LIG1        0.0194
     20 C           2.4210    3.0290    0.0000 C.3     1  LIG1        0.0015
     21 C           1.5790    3.5210    0.0000 C.3     1  LIG1        0.0000
     22 C           3.2630    1.5750    0.0000 C.3     1  LIG1        0.0015
     23 C           4.1040    2.0500    0.0000 C.3     1  LIG1        0.0000
     24 C           4.9290    1.5750    0.0000 C.3     1  LIG1        0.0000
     25 C           5.7880    2.0500    0.0000 C.3     1  LIG1        0.0000
     26 O           1.2460   -0.8080    0.0000 O.2     1  LIG1       -0.1516
     27 O           0.2330    0.9330    0.0000 O.2     1  LIG1       -0.1516
@<TRIPOS>BOND
     1     1     2    1
     2     1    17    1
     3     1    26    2
     4     1    27    2
     5     2     3   ar
     6     2    16   ar
     7     3     4   ar
     8     4     5   ar
     9     4    14    1
    10     5     6    1
    11     5    15   ar
    12     6     7   am
    13     6    13    1
    14     7     8    2
    15     7     9    1
    16     9    10    1
    17     9    12    1
    18    10    11    1
    19    11    12    1
    20    13    14    1
    21    15    16   ar
    22    17    18    1
    23    18    19    1
    24    19    20    1
    25    19    22    1
    26    20    21    1
    27    22    23    1
    28    23    24    1
    29    24    25    1
