@<TRIPOS>MOLECULE
37005_ChemDiv_C361-1125
 29 32 0 0 0
SMALL
GASTEIGER
Energy = 0

@<TRIPOS>ATOM
      1 N          -2.6960   -2.6170    0.0000 N.am    1  LIG1       -0.2586
      2 C          -3.1880   -3.4830    0.0000 C.2     1  LIG1        0.2288
      3 O          -2.6960   -4.3500    0.0000 O.2     1  LIG1       -0.2745
      4 C          -4.1920   -3.4830    0.0000 C.3     1  LIG1        0.0770
      5 C          -4.9080   -2.7790    0.0000 C.3     1  LIG1        0.0091
      6 C          -5.6130   -3.4830    0.0000 C.3     1  LIG1        0.0010
      7 C          -4.9080   -4.2000    0.0000 C.3     1  LIG1        0.0091
      8 C          -1.7380   -2.3170    0.0000 C.ar    1  LIG1        0.0500
      9 C          -1.7380   -1.3130    0.0000 C.ar    1  LIG1       -0.0054
     10 C          -0.8830   -0.8040    0.0000 C.ar    1  LIG1        0.0170
     11 C           0.0000   -1.3130    0.0000 C.ar    1  LIG1        0.1233
     12 S           0.8500   -0.8040    0.0000 S.O2    1  LIG1        0.0768
     13 O           0.3580    0.0460    0.0000 O.2     1  LIG1       -0.1516
     14 O           1.3580   -1.6750    0.0000 O.2     1  LIG1       -0.1516
     15 N           1.7170   -0.3130    0.0000 N.3     1  LIG1       -0.0776
     16 C           1.7170    0.6920    0.0000 C.3     1  LIG1        0.1216
     17 C           2.5880    1.1830    0.0000 C.3     1  LIG1        0.0835
     18 C           2.5880    2.1880    0.0000 C.3     1  LIG1        0.1401
     19 N           3.4540    2.6960    0.0000 N.4     1  LIG1        0.3772
     20 C           4.2750    2.1250    0.0000 C.3     1  LIG1        0.1385
     21 C           5.2330    2.4080    0.0000 C.3     1  LIG1        0.0627
     22 C           5.6080    3.3210    0.0000 C.3     1  LIG1        0.0063
     23 C           5.1130    4.2000    0.0000 C.3     1  LIG1        0.0063
     24 C           4.1250    4.3500    0.0000 C.3     1  LIG1        0.0627
     25 C           3.3920    3.6830    0.0000 C.3     1  LIG1        0.1385
     26 C           0.0000   -2.3170    0.0000 C.ar    1  LIG1        0.0212
     27 C          -0.8830   -2.8080    0.0000 C.ar    1  LIG1        0.0160
     28 C          -2.6960   -1.0000    0.0000 C.3     1  LIG1        0.0495
     29 C          -3.2790   -1.8080    0.0000 C.3     1  LIG1        0.1029
@<TRIPOS>BOND
     1     1     2   am
     2     1     8    1
     3     1    29    1
     4     2     3    2
     5     2     4    1
     6     4     5    1
     7     4     7    1
     8     5     6    1
     9     6     7    1
    10     8     9   ar
    11     8    27   ar
    12     9    10   ar
    13     9    28    1
    14    10    11   ar
    15    11    12    1
    16    11    26   ar
    17    12    13    2
    18    12    14    2
    19    12    15    1
    20    15    16    1
    21    16    17    1
    22    17    18    1
    23    18    19    1
    24    19    20    1
    25    19    25    1
    26    20    21    1
    27    21    22    1
    28    22    23    1
    29    23    24    1
    30    24    25    1
    31    26    27   ar
    32    28    29    1
