@<TRIPOS>MOLECULE
37001_ChemDiv_C361-1098
 34 38 0 0 0
SMALL
GASTEIGER
Energy = 0

@<TRIPOS>ATOM
      1 S           0.1830   -0.7080    0.0000 S.O2    1  LIG1        0.0642
      2 N           1.0460   -0.2130    0.0000 N.3     1  LIG1       -0.1369
      3 C           1.9080   -0.7080    0.0000 C.3     1  LIG1        0.1815
      4 C           2.7880   -0.2130    0.0000 C.2     1  LIG1        0.2495
      5 N           2.7710    0.7790    0.0000 N.am    1  LIG1       -0.2272
      6 C           1.9080    1.2710    0.0000 C.2     1  LIG1        0.2495
      7 C           1.0460    0.7790    0.0000 C.3     1  LIG1        0.1815
      8 O           1.9250    2.2960    0.0000 O.2     1  LIG1       -0.2729
      9 C           3.6670    1.2880    0.0000 C.3     1  LIG1        0.1056
     10 C           3.6670    2.2790    0.0000 C.3     1  LIG1        0.0483
     11 C           4.5460    2.7750    0.0000 C.ar    1  LIG1       -0.0205
     12 C           4.5290    3.7670    0.0000 C.ar    1  LIG1       -0.0042
     13 C           5.4080    4.2580    0.0000 C.ar    1  LIG1       -0.0003
     14 C           6.2710    3.7670    0.0000 C.ar    1  LIG1       -0.0000
     15 C           6.2540    2.7580    0.0000 C.ar    1  LIG1       -0.0003
     16 C           5.4080    2.2630    0.0000 C.ar    1  LIG1       -0.0042
     17 O           3.6500   -0.7080    0.0000 O.2     1  LIG1       -0.2729
     18 C          -0.6830   -1.2210    0.0000 C.ar    1  LIG1        0.1220
     19 C          -1.5460   -0.7080    0.0000 C.ar    1  LIG1        0.0169
     20 C          -2.4080   -1.2210    0.0000 C.ar    1  LIG1       -0.0054
     21 C          -2.4080   -2.2130    0.0000 C.ar    1  LIG1        0.0500
     22 N          -3.3670   -2.5170    0.0000 N.am    1  LIG1       -0.2586
     23 C          -3.8630   -3.3790    0.0000 C.2     1  LIG1        0.2288
     24 O          -3.3670   -4.2580    0.0000 O.2     1  LIG1       -0.2745
     25 C          -4.8540   -3.3790    0.0000 C.3     1  LIG1        0.0770
     26 C          -5.5580   -2.6750    0.0000 C.3     1  LIG1        0.0091
     27 C          -6.2710   -3.3790    0.0000 C.3     1  LIG1        0.0010
     28 C          -5.5580   -4.0960    0.0000 C.3     1  LIG1        0.0091
     29 C          -3.9420   -1.7170    0.0000 C.3     1  LIG1        0.1029
     30 C          -3.3670   -0.9000    0.0000 C.3     1  LIG1        0.0495
     31 C          -1.5460   -2.7080    0.0000 C.ar    1  LIG1        0.0160
     32 C          -0.6830   -2.2130    0.0000 C.ar    1  LIG1        0.0212
     33 O           0.6790   -1.5710    0.0000 O.2     1  LIG1       -0.1528
     34 O          -0.3130    0.1540    0.0000 O.2     1  LIG1       -0.1528
@<TRIPOS>BOND
     1     1     2    1
     2     1    18    1
     3     1    33    2
     4     1    34    2
     5     2     3    1
     6     2     7    1
     7     3     4    1
     8     4     5   am
     9     4    17    2
    10     5     6   am
    11     5     9    1
    12     6     7    1
    13     6     8    2
    14     9    10    1
    15    10    11    1
    16    11    12   ar
    17    11    16   ar
    18    12    13   ar
    19    13    14   ar
    20    14    15   ar
    21    15    16   ar
    22    18    19   ar
    23    18    32   ar
    24    19    20   ar
    25    20    21   ar
    26    20    30    1
    27    21    22    1
    28    21    31   ar
    29    22    23   am
    30    22    29    1
    31    23    24    2
    32    23    25    1
    33    25    26    1
    34    25    28    1
    35    26    27    1
    36    27    28    1
    37    29    30    1
    38    31    32   ar
