@<TRIPOS>MOLECULE
37007_ChemDiv_C361-1130
 29 31 0 0 0
SMALL
GASTEIGER
Energy = 0

@<TRIPOS>ATOM
      1 N          -2.9290   -3.0250    0.0000 N.am    1  LIG1       -0.2586
      2 C          -3.4210   -3.9000    0.0000 C.2     1  LIG1        0.2288
      3 O          -2.9290   -4.7710    0.0000 O.2     1  LIG1       -0.2745
      4 C          -4.4330   -3.9000    0.0000 C.3     1  LIG1        0.0770
      5 C          -5.1380   -3.1920    0.0000 C.3     1  LIG1        0.0091
      6 C          -5.8420   -3.9000    0.0000 C.3     1  LIG1        0.0010
      7 C          -5.1380   -4.6040    0.0000 C.3     1  LIG1        0.0091
      8 C          -1.9790   -2.7170    0.0000 C.ar    1  LIG1        0.0500
      9 C          -1.9790   -1.7210    0.0000 C.ar    1  LIG1       -0.0054
     10 C          -1.1040   -1.2170    0.0000 C.ar    1  LIG1        0.0170
     11 C          -0.2330   -1.7210    0.0000 C.ar    1  LIG1        0.1233
     12 S           0.6250   -1.2170    0.0000 S.O2    1  LIG1        0.0768
     13 O           0.1380   -0.3580    0.0000 O.2     1  LIG1       -0.1516
     14 O           1.1330   -2.0920    0.0000 O.2     1  LIG1       -0.1516
     15 N           1.5000   -0.7130    0.0000 N.3     1  LIG1       -0.0776
     16 C           1.5000    0.2880    0.0000 C.3     1  LIG1        0.1216
     17 C           2.3580    0.7750    0.0000 C.3     1  LIG1        0.0835
     18 C           2.3580    1.7710    0.0000 C.3     1  LIG1        0.1401
     19 N           3.2330    2.2790    0.0000 N.4     1  LIG1        0.3772
     20 C           4.0920    1.7880    0.0000 C.3     1  LIG1        0.1385
     21 C           4.9630    2.2790    0.0000 C.3     1  LIG1        0.0627
     22 C           5.8380    1.7880    0.0000 C.3     1  LIG1        0.0063
     23 C           3.2330    3.2750    0.0000 C.3     1  LIG1        0.1385
     24 C           2.3750    3.7670    0.0000 C.3     1  LIG1        0.0627
     25 C           2.3750    4.7710    0.0000 C.3     1  LIG1        0.0063
     26 C          -0.2330   -2.7170    0.0000 C.ar    1  LIG1        0.0212
     27 C          -1.1040   -3.2250    0.0000 C.ar    1  LIG1        0.0160
     28 C          -2.9290   -1.4170    0.0000 C.3     1  LIG1        0.0495
     29 C          -3.5130   -2.2290    0.0000 C.3     1  LIG1        0.1029
@<TRIPOS>BOND
     1     1     2   am
     2     1     8    1
     3     1    29    1
     4     2     3    2
     5     2     4    1
     6     4     5    1
     7     4     7    1
     8     5     6    1
     9     6     7    1
    10     8     9   ar
    11     8    27   ar
    12     9    10   ar
    13     9    28    1
    14    10    11   ar
    15    11    12    1
    16    11    26   ar
    17    12    13    2
    18    12    14    2
    19    12    15    1
    20    15    16    1
    21    16    17    1
    22    17    18    1
    23    18    19    1
    24    19    20    1
    25    19    23    1
    26    20    21    1
    27    21    22    1
    28    23    24    1
    29    24    25    1
    30    26    27   ar
    31    28    29    1
