@<TRIPOS>MOLECULE
37006_ChemDiv_K250-0379
 30 35 0 0 0
SMALL
GASTEIGER
Energy = 0

@<TRIPOS>ATOM
      1 N          -0.4380    1.7960    0.0000 N.ar    1  LIG1       -0.2702
      2 C          -1.3080    2.3130    0.0000 C.ar    1  LIG1        0.1505
      3 N          -1.1000    3.2830    0.0000 N.ar    1  LIG1       -0.2264
      4 C          -0.1000    3.3880    0.0000 C.ar    1  LIG1        0.0990
      5 C           0.3080    2.4750    0.0000 C.ar    1  LIG1        0.0847
      6 C           1.3000    2.3710    0.0000 C.ar    1  LIG1        0.0192
      7 C           1.8880    3.1710    0.0000 C.ar    1  LIG1        0.0016
      8 C           1.4790    4.0880    0.0000 C.ar    1  LIG1        0.0016
      9 C           0.4880    4.1920    0.0000 C.ar    1  LIG1        0.0206
     10 C          -2.1670    1.7960    0.0000 C.ar    1  LIG1        0.0522
     11 C          -2.1670    0.8000    0.0000 C.ar    1  LIG1        0.0863
     12 N          -1.3080    0.2960    0.0000 N.ar    1  LIG1       -0.2222
     13 C          -0.4380    0.8000    0.0000 C.ar    1  LIG1        0.1766
     14 S           0.4290    0.2960    0.0000 S.3     1  LIG1       -0.0705
     15 C           0.4290   -0.7080    0.0000 C.3     1  LIG1        0.1108
     16 C           1.3040   -1.1920    0.0000 C.ar    1  LIG1        0.0767
     17 N           1.3040   -2.1960    0.0000 N.ar    1  LIG1       -0.2311
     18 C           2.1750   -2.7000    0.0000 C.ar    1  LIG1        0.1496
     19 N           3.0380   -2.1880    0.0000 N.ar    1  LIG1       -0.2577
     20 C           3.0250   -1.1750    0.0000 C.ar    1  LIG1        0.2671
     21 C           2.1630   -0.6920    0.0000 C.ar    1  LIG1        0.0767
     22 O           3.8830   -0.6750    0.0000 O.2     1  LIG1       -0.2665
     23 C           3.9000   -2.6830    0.0000 C.ar    1  LIG1        0.0844
     24 C           3.9000   -3.6790    0.0000 C.ar    1  LIG1        0.0192
     25 C           3.0380   -4.1920    0.0000 C.ar    1  LIG1        0.0046
     26 C           2.1790   -3.6960    0.0000 C.ar    1  LIG1        0.0375
     27 C          -3.0330    0.2960    0.0000 C.ar    1  LIG1        0.0193
     28 C          -3.9040    0.8000    0.0000 C.ar    1  LIG1        0.0015
     29 C          -3.9040    1.7960    0.0000 C.ar    1  LIG1        0.0002
     30 C          -3.0330    2.2960    0.0000 C.ar    1  LIG1        0.0045
@<TRIPOS>BOND
     1     1     2   ar
     2     1     5   ar
     3     1    13   ar
     4     2     3   ar
     5     2    10   ar
     6     3     4   ar
     7     4     5   ar
     8     4     9   ar
     9     5     6   ar
    10     6     7   ar
    11     7     8   ar
    12     8     9   ar
    13    10    11   ar
    14    10    30   ar
    15    11    12   ar
    16    11    27   ar
    17    12    13   ar
    18    13    14    1
    19    14    15    1
    20    15    16    1
    21    16    17   ar
    22    16    21   ar
    23    17    18   ar
    24    18    19   ar
    25    18    26   ar
    26    19    20   ar
    27    19    23   ar
    28    20    21   ar
    29    20    22    2
    30    23    24   ar
    31    24    25   ar
    32    25    26   ar
    33    27    28   ar
    34    28    29   ar
    35    29    30   ar
