@<TRIPOS>MOLECULE
37003_ChemDiv_C361-1122
 35 39 0 0 0
SMALL
GASTEIGER
Energy = 0

@<TRIPOS>ATOM
      1 N          -5.0790   -1.7790    0.0000 N.am    1  LIG1       -0.2586
      2 C          -5.5830   -2.6380    0.0000 C.2     1  LIG1        0.2288
      3 O          -5.0790   -3.5170    0.0000 O.2     1  LIG1       -0.2745
      4 C          -6.5670   -2.6380    0.0000 C.3     1  LIG1        0.0770
      5 C          -7.2790   -3.3500    0.0000 C.3     1  LIG1        0.0091
      6 C          -7.9880   -2.6380    0.0000 C.3     1  LIG1        0.0010
      7 C          -7.2790   -1.9290    0.0000 C.3     1  LIG1        0.0091
      8 C          -4.1290   -1.4630    0.0000 C.ar    1  LIG1        0.0500
      9 C          -4.1290   -0.4750    0.0000 C.ar    1  LIG1       -0.0054
     10 C          -3.2710    0.0290    0.0000 C.ar    1  LIG1        0.0170
     11 C          -2.3920   -0.4750    0.0000 C.ar    1  LIG1        0.1233
     12 S          -1.5330    0.0290    0.0000 S.O2    1  LIG1        0.0768
     13 O          -1.0290   -0.8290    0.0000 O.2     1  LIG1       -0.1516
     14 O          -2.0380    0.8880    0.0000 O.2     1  LIG1       -0.1516
     15 N          -0.6750    0.5330    0.0000 N.3     1  LIG1       -0.0776
     16 C           0.2040    0.0290    0.0000 C.3     1  LIG1        0.1216
     17 C           1.0630    0.5330    0.0000 C.3     1  LIG1        0.0835
     18 C           1.9210    0.0290    0.0000 C.3     1  LIG1        0.1403
     19 N           2.8000    0.5330    0.0000 N.4     1  LIG1        0.3800
     20 C           2.8000    1.5250    0.0000 C.3     1  LIG1        0.1605
     21 C           3.6580    2.0290    0.0000 C.3     1  LIG1        0.1544
     22 N           4.5330    1.5250    0.0000 N.pl3   1  LIG1       -0.2972
     23 C           5.3920    2.0290    0.0000 C.ar    1  LIG1        0.0490
     24 C           6.2500    1.5250    0.0000 C.ar    1  LIG1        0.0259
     25 C           7.1290    2.0290    0.0000 C.ar    1  LIG1        0.0589
     26 CL          7.9880    1.5040    0.0000 Cl      1  LIG1       -0.0822
     27 C           7.1290    3.0380    0.0000 C.ar    1  LIG1        0.0115
     28 C           6.2500    3.5210    0.0000 C.ar    1  LIG1        0.0021
     29 C           5.3920    3.0170    0.0000 C.ar    1  LIG1        0.0146
     30 C           4.5330    0.5330    0.0000 C.3     1  LIG1        0.1544
     31 C           3.6580    0.0290    0.0000 C.3     1  LIG1        0.1605
     32 C          -2.3920   -1.4630    0.0000 C.ar    1  LIG1        0.0212
     33 C          -3.2710   -1.9670    0.0000 C.ar    1  LIG1        0.0160
     34 C          -5.0790   -0.1580    0.0000 C.3     1  LIG1        0.0495
     35 C          -5.6580   -0.9580    0.0000 C.3     1  LIG1        0.1029
@<TRIPOS>BOND
     1     1     2   am
     2     1     8    1
     3     1    35    1
     4     2     3    2
     5     2     4    1
     6     4     5    1
     7     4     7    1
     8     5     6    1
     9     6     7    1
    10     8     9   ar
    11     8    33   ar
    12     9    10   ar
    13     9    34    1
    14    10    11   ar
    15    11    12    1
    16    11    32   ar
    17    12    13    2
    18    12    14    2
    19    12    15    1
    20    15    16    1
    21    16    17    1
    22    17    18    1
    23    18    19    1
    24    19    20    1
    25    19    31    1
    26    20    21    1
    27    21    22    1
    28    22    23    1
    29    22    30    1
    30    23    24   ar
    31    23    29   ar
    32    24    25   ar
    33    25    26    1
    34    25    27   ar
    35    27    28   ar
    36    28    29   ar
    37    30    31    1
    38    32    33   ar
    39    34    35    1
