@<TRIPOS>MOLECULE
37000_ChemDiv_C445-0042
 31 35 0 0 0
SMALL
GASTEIGER
Energy = 0

@<TRIPOS>ATOM
      1 N          -0.0080    1.5380    0.0000 N.ar    1  LIG1       -0.1881
      2 C          -0.8830    2.0540    0.0000 C.ar    1  LIG1        0.1688
      3 C          -1.7460    1.5380    0.0000 C.ar    1  LIG1        0.0569
      4 C          -1.7460    0.5330    0.0000 C.ar    1  LIG1        0.0896
      5 N          -0.8830    0.0330    0.0000 N.ar    1  LIG1       -0.2209
      6 C          -0.0250    0.5330    0.0000 C.ar    1  LIG1        0.1930
      7 S           0.8500    0.0170    0.0000 S.3     1  LIG1       -0.0691
      8 C           0.8500   -0.9790    0.0000 C.3     1  LIG1        0.1109
      9 C           1.7210   -1.4750    0.0000 C.ar    1  LIG1        0.0767
     10 N           2.5880   -0.9790    0.0000 N.ar    1  LIG1       -0.2311
     11 C           3.4460   -1.4750    0.0000 C.ar    1  LIG1        0.1496
     12 N           3.4460   -2.4790    0.0000 N.ar    1  LIG1       -0.2577
     13 C           2.5880   -2.9830    0.0000 C.ar    1  LIG1        0.2671
     14 C           1.7130   -2.4790    0.0000 C.ar    1  LIG1        0.0767
     15 O           2.5790   -3.9790    0.0000 O.2     1  LIG1       -0.2665
     16 C           4.3130   -2.9830    0.0000 C.ar    1  LIG1        0.0844
     17 C           5.1920   -2.4790    0.0000 C.ar    1  LIG1        0.0192
     18 C           5.1790   -1.4750    0.0000 C.ar    1  LIG1        0.0046
     19 C           4.3130   -0.9790    0.0000 C.ar    1  LIG1        0.0375
     20 C          -2.6040    0.0330    0.0000 C.ar    1  LIG1        0.0593
     21 C          -3.4750    0.5420    0.0000 C.ar    1  LIG1        0.1739
     22 C          -3.4670    1.5380    0.0000 C.ar    1  LIG1        0.1726
     23 C          -2.6040    2.0380    0.0000 C.ar    1  LIG1        0.0446
     24 O          -4.3250    2.0380    0.0000 O.3     1  LIG1       -0.4684
     25 C          -5.1960    1.5460    0.0000 C.3     1  LIG1        0.2526
     26 O          -4.3500    0.0460    0.0000 O.3     1  LIG1       -0.4683
     27 C          -4.3500   -0.9500    0.0000 C.3     1  LIG1        0.2526
     28 N          -0.6460    3.0170    0.0000 N.ar    1  LIG1       -0.2100
     29 C           0.3380    3.1130    0.0000 C.ar    1  LIG1        0.1612
     30 N           0.7330    2.2040    0.0000 N.ar    1  LIG1       -0.1471
     31 C           0.8330    3.9830    0.0000 C.3     1  LIG1        0.0756
@<TRIPOS>BOND
     1     1     2   ar
     2     1     6   ar
     3     1    30   ar
     4     2     3   ar
     5     2    28   ar
     6     3     4   ar
     7     3    23   ar
     8     4     5   ar
     9     4    20   ar
    10     5     6   ar
    11     6     7    1
    12     7     8    1
    13     8     9    1
    14     9    10   ar
    15     9    14   ar
    16    10    11   ar
    17    11    12   ar
    18    11    19   ar
    19    12    13   ar
    20    12    16   ar
    21    13    14   ar
    22    13    15    2
    23    16    17   ar
    24    17    18   ar
    25    18    19   ar
    26    20    21   ar
    27    21    22   ar
    28    21    26    1
    29    22    23   ar
    30    22    24    1
    31    24    25    1
    32    26    27    1
    33    28    29   ar
    34    29    30   ar
    35    29    31    1
