@<TRIPOS>MOLECULE
37012_ChemDiv_K953-0344
 39 43 0 0 0
SMALL
GASTEIGER
Energy = 0

@<TRIPOS>ATOM
      1 S          -2.6000    0.5170    0.0000 S.O2    1  LIG1       -0.0558
      2 N          -3.4630    1.0040    0.0000 N.am    1  LIG1       -0.5022
      3 C          -3.4630    2.0040    0.0000 C.2     1  LIG1        0.0936
      4 O          -2.6000    2.5130    0.0000 O.2     1  LIG1       -0.3121
      5 C          -4.3330    2.5040    0.0000 C.ar    1  LIG1        0.0163
      6 C          -4.3330    3.4960    0.0000 C.ar    1  LIG1        0.0013
      7 C          -5.2040    3.9960    0.0000 C.ar    1  LIG1        0.0000
      8 C          -6.0630    3.4960    0.0000 C.ar    1  LIG1        0.0000
      9 C          -6.0500    2.4880    0.0000 C.ar    1  LIG1        0.0000
     10 C          -5.1880    2.0000    0.0000 C.ar    1  LIG1        0.0013
     11 C          -1.7290    0.0080    0.0000 C.ar    1  LIG1        0.0894
     12 C          -1.7290   -0.9960    0.0000 C.ar    1  LIG1        0.0182
     13 C          -0.8630   -1.4960    0.0000 C.ar    1  LIG1        0.0179
     14 C           0.0000   -0.9960    0.0000 C.ar    1  LIG1        0.0739
     15 N           0.8630   -1.4960    0.0000 N.am    1  LIG1       -0.1728
     16 C           1.7250   -0.9960    0.0000 C.2     1  LIG1        0.3038
     17 C           2.6040   -1.4960    0.0000 C.ar    1  LIG1        0.2036
     18 C           3.4670   -0.9960    0.0000 C.ar    1  LIG1        0.0395
     19 C           4.3290   -1.4960    0.0000 C.ar    1  LIG1        0.0093
     20 C           4.3290   -2.4960    0.0000 C.ar    1  LIG1        0.0761
     21 C           3.4670   -2.9920    0.0000 C.ar    1  LIG1        0.3458
     22 O           2.6040   -2.4960    0.0000 O.2     1  LIG1       -0.4163
     23 O           3.4670   -3.9920    0.0000 O.2     1  LIG1       -0.2445
     24 C           5.1880   -2.9920    0.0000 C.ar    1  LIG1        0.0065
     25 C           6.0630   -2.4960    0.0000 C.ar    1  LIG1        0.0002
     26 C           6.0630   -1.4960    0.0000 C.ar    1  LIG1        0.0000
     27 C           5.1880   -0.9960    0.0000 C.ar    1  LIG1        0.0003
     28 C           3.4670    0.0080    0.0000 C.ar    1  LIG1        0.0031
     29 C           4.3380    0.5080    0.0000 C.ar    1  LIG1       -0.0002
     30 C           4.3380    1.5170    0.0000 C.ar    1  LIG1       -0.0043
     31 C           3.4670    2.0130    0.0000 C.ar    1  LIG1       -0.0218
     32 C           2.6040    1.5170    0.0000 C.ar    1  LIG1       -0.0043
     33 C           2.6040    0.5080    0.0000 C.ar    1  LIG1       -0.0002
     34 C           3.4670    3.0130    0.0000 C.3     1  LIG1        0.0310
     35 O           1.7250    0.0000    0.0000 O.2     1  LIG1       -0.2646
     36 C           0.0000    0.0080    0.0000 C.ar    1  LIG1        0.0179
     37 C          -0.8630    0.5080    0.0000 C.ar    1  LIG1        0.0182
     38 O          -3.1000   -0.3460    0.0000 O.2     1  LIG1       -0.1841
     39 O          -2.0920    1.3790    0.0000 O.2     1  LIG1       -0.1841
@<TRIPOS>BOND
     1     1     2    1
     2     1    11    1
     3     1    38    2
     4     1    39    2
     5     2     3   am
     6     3     4    2
     7     3     5    1
     8     5     6   ar
     9     5    10   ar
    10     6     7   ar
    11     7     8   ar
    12     8     9   ar
    13     9    10   ar
    14    11    12   ar
    15    11    37   ar
    16    12    13   ar
    17    13    14   ar
    18    14    15    1
    19    14    36   ar
    20    15    16   am
    21    16    17    1
    22    16    35    2
    23    17    18   ar
    24    17    22   ar
    25    18    19   ar
    26    18    28    1
    27    19    20   ar
    28    19    27   ar
    29    20    21   ar
    30    20    24   ar
    31    21    22   ar
    32    21    23    2
    33    24    25   ar
    34    25    26   ar
    35    26    27   ar
    36    28    29   ar
    37    28    33   ar
    38    29    30   ar
    39    30    31   ar
    40    31    32   ar
    41    31    34    1
    42    32    33   ar
    43    36    37   ar
