@<TRIPOS>MOLECULE
37011_ChemDiv_K279-0649
 36 40 0 0 0
SMALL
GASTEIGER
Energy = 0

@<TRIPOS>ATOM
      1 N          -1.7460   -1.0630    0.0000 N.ar    1  LIG1       -0.1479
      2 C          -1.7460   -0.0670    0.0000 C.ar    1  LIG1        0.3753
      3 N          -0.8040    0.2330    0.0000 N.2     1  LIG1        0.0755
      4 C          -0.2290   -0.5540    0.0000 C.3     1  LIG1        0.3970
      5 C          -0.8040   -1.3630    0.0000 C.2     1  LIG1        0.3288
      6 O          -0.4710   -2.3290    0.0000 O.2     1  LIG1       -0.2637
      7 C           0.7830   -0.5790    0.0000 C.3     1  LIG1        0.1047
      8 C           1.2750    0.2920    0.0000 C.3     1  LIG1        0.0946
      9 C           2.2920    0.2880    0.0000 C.2     1  LIG1        0.2419
     10 N           2.7960    1.1460    0.0000 N.am    1  LIG1       -0.2005
     11 C           2.3210    2.0210    0.0000 C.3     1  LIG1        0.1416
     12 C           2.8330    2.8830    0.0000 C.ar    1  LIG1        0.0027
     13 C           2.3500    3.7670    0.0000 C.ar    1  LIG1        0.0376
     14 C           2.8630    4.6080    0.0000 C.ar    1  LIG1        0.1762
     15 C           3.8830    4.5790    0.0000 C.ar    1  LIG1        0.1764
     16 O           4.2000    5.5420    0.0000 O.3     1  LIG1       -0.4346
     17 C           3.4040    6.1130    0.0000 C.3     1  LIG1        0.4294
     18 O           2.5750    5.5710    0.0000 O.3     1  LIG1       -0.4346
     19 C           4.3540    3.7290    0.0000 C.ar    1  LIG1        0.0399
     20 C           3.8420    2.8630    0.0000 C.ar    1  LIG1        0.0008
     21 O           2.7580   -0.5710    0.0000 O.2     1  LIG1       -0.2733
     22 C          -2.6210    0.4460    0.0000 C.ar    1  LIG1        0.1585
     23 C          -3.4830   -0.0670    0.0000 C.ar    1  LIG1        0.3068
     24 N          -3.4830   -1.0630    0.0000 N.ar    1  LIG1        0.1032
     25 C          -2.6130   -1.5750    0.0000 C.ar    1  LIG1        0.4035
     26 S          -2.6130   -2.5710    0.0000 S.3     1  LIG1       -0.0075
     27 C          -1.7460   -3.0790    0.0000 C.3     1  LIG1        0.1789
     28 C          -1.7670   -4.0750    0.0000 C.2     1  LIG1        0.3287
     29 O          -0.8920   -4.5880    0.0000 O.2     1  LIG1       -0.2491
     30 O          -2.6210   -4.5880    0.0000 O.3     1  LIG1       -0.4479
     31 C          -2.5790   -5.5960    0.0000 C.3     1  LIG1        0.2086
     32 C          -3.4380   -6.1130    0.0000 C.3     1  LIG1        0.0513
     33 C          -4.3580    0.4460    0.0000 C.ar    1  LIG1        0.0765
     34 C          -4.3580    1.4380    0.0000 C.ar    1  LIG1        0.0063
     35 C          -3.4960    1.9500    0.0000 C.ar    1  LIG1        0.0007
     36 C          -2.6420    1.4380    0.0000 C.ar    1  LIG1        0.0141
@<TRIPOS>BOND
     1     1     2   ar
     2     1     5   am
     3     1    25   ar
     4     2     3    2
     5     2    22   ar
     6     3     4    1
     7     4     5    1
     8     4     7    1
     9     5     6    2
    10     7     8    1
    11     8     9    1
    12     9    10   am
    13     9    21    2
    14    10    11    1
    15    11    12    1
    16    12    13   ar
    17    12    20   ar
    18    13    14   ar
    19    14    15   ar
    20    14    18    1
    21    15    16    1
    22    15    19   ar
    23    16    17    1
    24    17    18    1
    25    19    20   ar
    26    22    23   ar
    27    22    36   ar
    28    23    24   ar
    29    23    33   ar
    30    24    25   ar
    31    25    26    1
    32    26    27    1
    33    27    28    1
    34    28    29    2
    35    28    30    1
    36    30    31    1
    37    31    32    1
    38    33    34   ar
    39    34    35   ar
    40    35    36   ar
