@<TRIPOS>MOLECULE
37015_ChemDiv_K279-0667
 34 38 0 0 0
SMALL
GASTEIGER
Energy = 0

@<TRIPOS>ATOM
      1 N          -2.9750    0.2580    0.0000 N.ar    1  LIG1       -0.1479
      2 C          -2.9750    1.2540    0.0000 C.ar    1  LIG1        0.3753
      3 N          -2.0290    1.5540    0.0000 N.2     1  LIG1        0.0755
      4 C          -1.4580    0.7670    0.0000 C.3     1  LIG1        0.3970
      5 C          -2.0290   -0.0420    0.0000 C.2     1  LIG1        0.3288
      6 O          -1.7000   -1.0080    0.0000 O.2     1  LIG1       -0.2637
      7 C          -0.4460    0.7420    0.0000 C.3     1  LIG1        0.1047
      8 C           0.0500    1.6130    0.0000 C.3     1  LIG1        0.0946
      9 C           1.0630    1.6080    0.0000 C.2     1  LIG1        0.2419
     10 N           1.5540    0.7420    0.0000 N.am    1  LIG1       -0.2005
     11 C           2.5540    0.7210    0.0000 C.3     1  LIG1        0.1416
     12 C           3.0500   -0.1500    0.0000 C.ar    1  LIG1        0.0027
     13 C           4.0630   -0.1710    0.0000 C.ar    1  LIG1        0.0376
     14 C           4.5420   -1.0290    0.0000 C.ar    1  LIG1        0.1762
     15 C           4.0170   -1.8960    0.0000 C.ar    1  LIG1        0.1764
     16 O           4.6920   -2.6500    0.0000 O.3     1  LIG1       -0.4346
     17 C           5.5830   -2.2420    0.0000 C.3     1  LIG1        0.4294
     18 O           5.5170   -1.2540    0.0000 O.3     1  LIG1       -0.4346
     19 C           3.0380   -1.8880    0.0000 C.ar    1  LIG1        0.0399
     20 C           2.5380   -1.0210    0.0000 C.ar    1  LIG1        0.0008
     21 O           1.5540    2.4580    0.0000 O.2     1  LIG1       -0.2733
     22 C          -3.8500    1.7670    0.0000 C.ar    1  LIG1        0.1585
     23 C          -4.7130    1.2540    0.0000 C.ar    1  LIG1        0.3068
     24 N          -4.7130    0.2580    0.0000 N.ar    1  LIG1        0.1032
     25 C          -3.8380   -0.2540    0.0000 C.ar    1  LIG1        0.4035
     26 S          -3.8380   -1.2500    0.0000 S.3     1  LIG1       -0.0096
     27 C          -2.9750   -1.7290    0.0000 C.3     1  LIG1        0.1579
     28 C          -2.9960   -2.7540    0.0000 C.2     1  LIG1        0.2723
     29 O          -2.1210   -3.2670    0.0000 O.2     1  LIG1       -0.2707
     30 N          -3.8500   -3.2670    0.0000 N.am    1  LIG1       -0.0870
     31 C          -5.5880    1.7670    0.0000 C.ar    1  LIG1        0.0765
     32 C          -5.5880    2.7580    0.0000 C.ar    1  LIG1        0.0063
     33 C          -4.7210    3.2710    0.0000 C.ar    1  LIG1        0.0007
     34 C          -3.8710    2.7580    0.0000 C.ar    1  LIG1        0.0141
@<TRIPOS>BOND
     1     1     2   ar
     2     1     5   am
     3     1    25   ar
     4     2     3    2
     5     2    22   ar
     6     3     4    1
     7     4     5    1
     8     4     7    1
     9     5     6    2
    10     7     8    1
    11     8     9    1
    12     9    10   am
    13     9    21    2
    14    10    11    1
    15    11    12    1
    16    12    13   ar
    17    12    20   ar
    18    13    14   ar
    19    14    15   ar
    20    14    18    1
    21    15    16    1
    22    15    19   ar
    23    16    17    1
    24    17    18    1
    25    19    20   ar
    26    22    23   ar
    27    22    34   ar
    28    23    24   ar
    29    23    31   ar
    30    24    25   ar
    31    25    26    1
    32    26    27    1
    33    27    28    1
    34    28    29    2
    35    28    30   am
    36    31    32   ar
    37    32    33   ar
    38    33    34   ar
