@<TRIPOS>MOLECULE
37014_ChemDiv_K953-0351
 31 34 0 0 0
SMALL
GASTEIGER
Energy = 0

@<TRIPOS>ATOM
      1 C           1.3040   -1.0040    0.0000 C.ar    1  LIG1        0.2036
      2 C           2.1710   -0.5040    0.0000 C.ar    1  LIG1        0.0395
      3 C           3.0330   -1.0040    0.0000 C.ar    1  LIG1        0.0093
      4 C           3.0330   -2.0000    0.0000 C.ar    1  LIG1        0.0761
      5 C           2.1710   -2.5000    0.0000 C.ar    1  LIG1        0.3458
      6 O           1.3040   -2.0000    0.0000 O.2     1  LIG1       -0.4163
      7 O           2.1710   -3.5000    0.0000 O.2     1  LIG1       -0.2445
      8 C           3.8960   -2.5000    0.0000 C.ar    1  LIG1        0.0065
      9 C           4.7580   -2.0000    0.0000 C.ar    1  LIG1        0.0002
     10 C           4.7580   -1.0040    0.0000 C.ar    1  LIG1        0.0000
     11 C           3.8960   -0.5040    0.0000 C.ar    1  LIG1        0.0003
     12 C           2.1710    0.5080    0.0000 C.ar    1  LIG1        0.0031
     13 C           1.3080    1.0080    0.0000 C.ar    1  LIG1       -0.0002
     14 C           1.3080    2.0040    0.0000 C.ar    1  LIG1       -0.0043
     15 C           2.1710    2.5040    0.0000 C.ar    1  LIG1       -0.0218
     16 C           3.0330    2.0040    0.0000 C.ar    1  LIG1       -0.0043
     17 C           3.0330    1.0080    0.0000 C.ar    1  LIG1       -0.0002
     18 C           2.1670    3.5040    0.0000 C.3     1  LIG1        0.0310
     19 C           0.4290   -0.5040    0.0000 C.2     1  LIG1        0.3038
     20 N          -0.4330   -1.0040    0.0000 N.am    1  LIG1       -0.1728
     21 C          -1.3000   -0.5040    0.0000 C.ar    1  LIG1        0.0739
     22 C          -1.3000    0.5080    0.0000 C.ar    1  LIG1        0.0180
     23 C          -2.1630    1.0080    0.0000 C.ar    1  LIG1        0.0213
     24 C          -3.0380    0.5080    0.0000 C.ar    1  LIG1        0.1251
     25 S          -3.9000    1.0080    0.0000 S.O2    1  LIG1        0.0935
     26 O          -3.4000    1.8750    0.0000 O.2     1  LIG1       -0.1503
     27 O          -4.4000    0.1420    0.0000 O.2     1  LIG1       -0.1503
     28 N          -4.7630    1.5040    0.0000 N.3     1  LIG1        0.0392
     29 C          -3.0380   -0.5040    0.0000 C.ar    1  LIG1        0.0213
     30 C          -2.1630   -1.0040    0.0000 C.ar    1  LIG1        0.0180
     31 O           0.4250    0.4960    0.0000 O.2     1  LIG1       -0.2646
@<TRIPOS>BOND
     1     1     2   ar
     2     1     6   ar
     3     1    19    1
     4     2     3   ar
     5     2    12    1
     6     3     4   ar
     7     3    11   ar
     8     4     5   ar
     9     4     8   ar
    10     5     6   ar
    11     5     7    2
    12     8     9   ar
    13     9    10   ar
    14    10    11   ar
    15    12    13   ar
    16    12    17   ar
    17    13    14   ar
    18    14    15   ar
    19    15    16   ar
    20    15    18    1
    21    16    17   ar
    22    19    20   am
    23    19    31    2
    24    20    21    1
    25    21    22   ar
    26    21    30   ar
    27    22    23   ar
    28    23    24   ar
    29    24    25    1
    30    24    29   ar
    31    25    26    2
    32    25    27    2
    33    25    28    1
    34    29    30   ar
