@<TRIPOS>MOLECULE
37010_ChemDiv_K953-0247
 29 33 0 0 0
SMALL
GASTEIGER
Energy = 0

@<TRIPOS>ATOM
      1 C          -0.0580    0.2920    0.0000 C.ar    1  LIG1        0.2036
      2 C           0.8040    0.7880    0.0000 C.ar    1  LIG1        0.0395
      3 C           1.6750    0.2960    0.0000 C.ar    1  LIG1        0.0093
      4 C           1.6750   -0.7040    0.0000 C.ar    1  LIG1        0.0761
      5 C           0.8170   -1.2130    0.0000 C.ar    1  LIG1        0.3458
      6 O          -0.0540   -0.7130    0.0000 O.2     1  LIG1       -0.4163
      7 O           0.8170   -2.2170    0.0000 O.2     1  LIG1       -0.2445
      8 C           2.5460   -1.2000    0.0000 C.ar    1  LIG1        0.0065
      9 C           3.4080   -0.6920    0.0000 C.ar    1  LIG1        0.0002
     10 C           3.4040    0.3040    0.0000 C.ar    1  LIG1        0.0000
     11 C           2.5380    0.7960    0.0000 C.ar    1  LIG1        0.0003
     12 C           0.8040    1.7880    0.0000 C.ar    1  LIG1        0.0031
     13 C           1.6750    2.2790    0.0000 C.ar    1  LIG1        0.0001
     14 C           1.6750    3.2790    0.0000 C.ar    1  LIG1        0.0000
     15 C           0.8130    3.7880    0.0000 C.ar    1  LIG1        0.0000
     16 C          -0.0540    3.2790    0.0000 C.ar    1  LIG1        0.0000
     17 C          -0.0540    2.2790    0.0000 C.ar    1  LIG1        0.0001
     18 C          -0.9290    0.7920    0.0000 C.2     1  LIG1        0.3038
     19 N          -1.7960    0.2960    0.0000 N.am    1  LIG1       -0.1727
     20 C          -1.7960   -0.7040    0.0000 C.ar    1  LIG1        0.0770
     21 C          -2.6670   -1.2080    0.0000 C.ar    1  LIG1        0.0568
     22 C          -2.6750   -2.2040    0.0000 C.ar    1  LIG1        0.1777
     23 C          -1.8040   -2.7080    0.0000 C.ar    1  LIG1        0.1765
     24 O          -2.0080   -3.6830    0.0000 O.3     1  LIG1       -0.4346
     25 C          -3.0130   -3.7830    0.0000 C.3     1  LIG1        0.4294
     26 O          -3.4130   -2.8670    0.0000 O.3     1  LIG1       -0.4346
     27 C          -0.9380   -2.2130    0.0000 C.ar    1  LIG1        0.0415
     28 C          -0.9330   -1.2080    0.0000 C.ar    1  LIG1        0.0199
     29 O          -0.9290    1.7880    0.0000 O.2     1  LIG1       -0.2646
@<TRIPOS>BOND
     1     1     2   ar
     2     1     6   ar
     3     1    18    1
     4     2     3   ar
     5     2    12    1
     6     3     4   ar
     7     3    11   ar
     8     4     5   ar
     9     4     8   ar
    10     5     6   ar
    11     5     7    2
    12     8     9   ar
    13     9    10   ar
    14    10    11   ar
    15    12    13   ar
    16    12    17   ar
    17    13    14   ar
    18    14    15   ar
    19    15    16   ar
    20    16    17   ar
    21    18    19   am
    22    18    29    2
    23    19    20    1
    24    20    21   ar
    25    20    28   ar
    26    21    22   ar
    27    22    23   ar
    28    22    26    1
    29    23    24    1
    30    23    27   ar
    31    24    25    1
    32    25    26    1
    33    27    28   ar
