@<TRIPOS>MOLECULE
37026_ChemDiv_K280-0344
 35 40 0 0 0
SMALL
GASTEIGER
Energy = 0

@<TRIPOS>ATOM
      1 N          -1.8330   -1.3540    0.0000 N.ar    1  LIG1       -0.1881
      2 C          -2.6960   -1.8540    0.0000 C.ar    1  LIG1        0.1687
      3 N          -3.4380   -1.1830    0.0000 N.ar    1  LIG1       -0.2100
      4 C          -3.0290   -0.2790    0.0000 C.ar    1  LIG1        0.1628
      5 N          -2.0330   -0.3790    0.0000 N.ar    1  LIG1       -0.1470
      6 C          -3.5250    0.5960    0.0000 C.3     1  LIG1        0.0939
      7 C          -3.0170    1.4580    0.0000 C.3     1  LIG1        0.1351
      8 N          -3.5130    2.3250    0.0000 N.ar    1  LIG1       -0.2548
      9 N          -3.2080    3.2750    0.0000 N.ar    1  LIG1       -0.1740
     10 C          -4.0170    3.8630    0.0000 C.ar    1  LIG1        0.0801
     11 C          -4.8290    3.2920    0.0000 C.ar    1  LIG1        0.0308
     12 C          -4.5170    2.3380    0.0000 C.ar    1  LIG1        0.0571
     13 C          -5.1170    1.5330    0.0000 C.3     1  LIG1        0.0517
     14 C          -4.0250    4.8580    0.0000 C.3     1  LIG1        0.0540
     15 C          -2.6960   -2.8630    0.0000 C.ar    1  LIG1        0.0536
     16 C          -1.8170   -3.3630    0.0000 C.ar    1  LIG1        0.0864
     17 N          -0.9540   -2.8630    0.0000 N.ar    1  LIG1       -0.2210
     18 C          -0.9540   -1.8540    0.0000 C.ar    1  LIG1        0.1930
     19 S          -0.0920   -1.3540    0.0000 S.3     1  LIG1       -0.0691
     20 C           0.7790   -1.8540    0.0000 C.3     1  LIG1        0.1109
     21 C           1.6460   -1.3500    0.0000 C.ar    1  LIG1        0.0767
     22 N           2.5210   -1.8500    0.0000 N.ar    1  LIG1       -0.2311
     23 C           3.3830   -1.3500    0.0000 C.ar    1  LIG1        0.1496
     24 N           3.3830   -0.3500    0.0000 N.ar    1  LIG1       -0.2577
     25 C           2.5210    0.1500    0.0000 C.ar    1  LIG1        0.2671
     26 C           1.6460   -0.3500    0.0000 C.ar    1  LIG1        0.0767
     27 O           2.5210    1.1460    0.0000 O.2     1  LIG1       -0.2665
     28 C           4.2420    0.1500    0.0000 C.ar    1  LIG1        0.0844
     29 C           5.1130   -0.3500    0.0000 C.ar    1  LIG1        0.0192
     30 C           5.1130   -1.3500    0.0000 C.ar    1  LIG1        0.0046
     31 C           4.2420   -1.8500    0.0000 C.ar    1  LIG1        0.0375
     32 C          -1.8170   -4.3580    0.0000 C.ar    1  LIG1        0.0193
     33 C          -2.6790   -4.8580    0.0000 C.ar    1  LIG1        0.0015
     34 C          -3.5460   -4.3670    0.0000 C.ar    1  LIG1        0.0002
     35 C          -3.5580   -3.3670    0.0000 C.ar    1  LIG1        0.0046
@<TRIPOS>BOND
     1     1     2   ar
     2     1     5   ar
     3     1    18   ar
     4     2     3   ar
     5     2    15   ar
     6     3     4   ar
     7     4     5   ar
     8     4     6    1
     9     6     7    1
    10     7     8    1
    11     8     9   ar
    12     8    12   ar
    13     9    10   ar
    14    10    11   ar
    15    10    14    1
    16    11    12   ar
    17    12    13    1
    18    15    16   ar
    19    15    35   ar
    20    16    17   ar
    21    16    32   ar
    22    17    18   ar
    23    18    19    1
    24    19    20    1
    25    20    21    1
    26    21    22   ar
    27    21    26   ar
    28    22    23   ar
    29    23    24   ar
    30    23    31   ar
    31    24    25   ar
    32    24    28   ar
    33    25    26   ar
    34    25    27    2
    35    28    29   ar
    36    29    30   ar
    37    30    31   ar
    38    32    33   ar
    39    33    34   ar
    40    34    35   ar
