@<TRIPOS>MOLECULE
37029_ChemDiv_E570-4405
 35 39 0 0 0
SMALL
GASTEIGER
Energy = 0

@<TRIPOS>ATOM
      1 S          -0.9630   -0.4000    0.0000 S.O2    1  LIG1        0.0633
      2 N          -0.4630   -1.2670    0.0000 N.3     1  LIG1       -0.1555
      3 C           0.5420   -1.2670    0.0000 C.3     1  LIG1        0.0963
      4 C           1.0420   -2.1330    0.0000 C.3     1  LIG1        0.0283
      5 C           0.5420   -3.0040    0.0000 C.3     1  LIG1        0.0811
      6 C           1.0420   -3.8750    0.0000 C.2     1  LIG1        0.2410
      7 O           0.5420   -4.7380    0.0000 O.2     1  LIG1       -0.2734
      8 N           2.0460   -3.8750    0.0000 N.am    1  LIG1       -0.2051
      9 C           2.5460   -3.0040    0.0000 C.3     1  LIG1        0.1198
     10 C           3.5290   -2.9830    0.0000 C.3     1  LIG1        0.0498
     11 C           4.0130   -2.1330    0.0000 C.ar    1  LIG1       -0.0204
     12 C           5.0130   -2.1170    0.0000 C.ar    1  LIG1       -0.0042
     13 C           5.5080   -1.2500    0.0000 C.ar    1  LIG1       -0.0003
     14 C           5.0170   -0.3920    0.0000 C.ar    1  LIG1       -0.0000
     15 C           4.0170   -0.4130    0.0000 C.ar    1  LIG1       -0.0003
     16 C           3.5210   -1.2750    0.0000 C.ar    1  LIG1       -0.0042
     17 C          -0.4630   -3.0040    0.0000 C.3     1  LIG1        0.0283
     18 C          -0.9630   -2.1330    0.0000 C.3     1  LIG1        0.0963
     19 C          -1.4670    0.4710    0.0000 C.ar    1  LIG1        0.1220
     20 C          -0.9630    1.3290    0.0000 C.ar    1  LIG1        0.0169
     21 C          -1.4670    2.2000    0.0000 C.ar    1  LIG1       -0.0055
     22 C          -2.4670    2.2000    0.0000 C.ar    1  LIG1        0.0499
     23 N          -2.7790    3.1540    0.0000 N.am    1  LIG1       -0.2603
     24 C          -3.6460    3.6540    0.0000 C.2     1  LIG1        0.2288
     25 C          -4.5130    3.1540    0.0000 C.3     1  LIG1        0.0771
     26 C          -5.0080    2.2880    0.0000 C.3     1  LIG1        0.0096
     27 C          -5.5130    3.1540    0.0000 C.3     1  LIG1        0.0096
     28 O          -3.6460    4.6540    0.0000 O.2     1  LIG1       -0.2745
     29 C          -1.9670    3.7420    0.0000 C.3     1  LIG1        0.0842
     30 C          -1.1540    3.1540    0.0000 C.3     1  LIG1        0.0478
     31 C          -1.9670    4.7380    0.0000 C.3     1  LIG1        0.0222
     32 C          -2.9670    1.3290    0.0000 C.ar    1  LIG1        0.0160
     33 C          -2.4670    0.4710    0.0000 C.ar    1  LIG1        0.0212
     34 O          -1.8330   -0.9000    0.0000 O.2     1  LIG1       -0.1528
     35 O          -0.0960    0.1040    0.0000 O.2     1  LIG1       -0.1528
@<TRIPOS>BOND
     1     1     2    1
     2     1    19    1
     3     1    34    2
     4     1    35    2
     5     2     3    1
     6     2    18    1
     7     3     4    1
     8     4     5    1
     9     5     6    1
    10     5    17    1
    11     6     7    2
    12     6     8   am
    13     8     9    1
    14     9    10    1
    15    10    11    1
    16    11    12   ar
    17    11    16   ar
    18    12    13   ar
    19    13    14   ar
    20    14    15   ar
    21    15    16   ar
    22    17    18    1
    23    19    20   ar
    24    19    33   ar
    25    20    21   ar
    26    21    22   ar
    27    21    30    1
    28    22    23    1
    29    22    32   ar
    30    23    24   am
    31    23    29    1
    32    24    25    1
    33    24    28    2
    34    25    26    1
    35    25    27    1
    36    26    27    1
    37    29    30    1
    38    29    31    1
    39    32    33   ar
