@<TRIPOS>MOLECULE
37027_ChemDiv_C361-1159
 34 38 0 0 0
SMALL
GASTEIGER
Energy = 0

@<TRIPOS>ATOM
      1 N          -1.6290   -4.0370    0.0000 N.am    1  LIG1       -0.2586
      2 C          -2.1170   -4.9000    0.0000 C.2     1  LIG1        0.2288
      3 O          -1.6290   -5.7630    0.0000 O.2     1  LIG1       -0.2745
      4 C          -3.1250   -4.9000    0.0000 C.3     1  LIG1        0.0770
      5 C          -3.8290   -4.1960    0.0000 C.3     1  LIG1        0.0091
      6 C          -4.5330   -4.9000    0.0000 C.3     1  LIG1        0.0010
      7 C          -3.8290   -5.6040    0.0000 C.3     1  LIG1        0.0091
      8 C          -0.6710   -3.7330    0.0000 C.ar    1  LIG1        0.0500
      9 C          -0.6710   -2.7250    0.0000 C.ar    1  LIG1       -0.0054
     10 C           0.1920   -2.2330    0.0000 C.ar    1  LIG1        0.0170
     11 C           1.0670   -2.7250    0.0000 C.ar    1  LIG1        0.1233
     12 S           1.9290   -2.2330    0.0000 S.O2    1  LIG1        0.0770
     13 O           2.4210   -3.0960    0.0000 O.2     1  LIG1       -0.1516
     14 O           1.4250   -1.3580    0.0000 O.2     1  LIG1       -0.1516
     15 N           2.7920   -1.7290    0.0000 N.3     1  LIG1       -0.0714
     16 C           2.7920   -0.7330    0.0000 C.3     1  LIG1        0.1778
     17 C           3.6540   -0.2290    0.0000 C.3     1  LIG1        0.1597
     18 N           3.6540    0.7790    0.0000 N.4     1  LIG1        0.3784
     19 C           2.7920    1.2830    0.0000 C.3     1  LIG1        0.1386
     20 C           2.7790    2.2790    0.0000 C.3     1  LIG1        0.0632
     21 C           3.6540    2.7830    0.0000 C.3     1  LIG1        0.0162
     22 C           3.6540    3.7750    0.0000 C.3     1  LIG1        0.0268
     23 C           2.7790    4.2630    0.0000 C.ar    1  LIG1       -0.0222
     24 C           1.9170    3.7630    0.0000 C.ar    1  LIG1       -0.0043
     25 C           1.0380    4.2630    0.0000 C.ar    1  LIG1       -0.0003
     26 C           1.0380    5.2580    0.0000 C.ar    1  LIG1       -0.0000
     27 C           1.9170    5.7630    0.0000 C.ar    1  LIG1       -0.0003
     28 C           2.7790    5.2710    0.0000 C.ar    1  LIG1       -0.0043
     29 C           4.5290    2.2790    0.0000 C.3     1  LIG1        0.0632
     30 C           4.5170    1.2830    0.0000 C.3     1  LIG1        0.1386
     31 C           1.0670   -3.7330    0.0000 C.ar    1  LIG1        0.0212
     32 C           0.1920   -4.2250    0.0000 C.ar    1  LIG1        0.0160
     33 C          -1.6290   -2.4210    0.0000 C.3     1  LIG1        0.0495
     34 C          -2.2130   -3.2290    0.0000 C.3     1  LIG1        0.1029
@<TRIPOS>BOND
     1     1     2   am
     2     1     8    1
     3     1    34    1
     4     2     3    2
     5     2     4    1
     6     4     5    1
     7     4     7    1
     8     5     6    1
     9     6     7    1
    10     8     9   ar
    11     8    32   ar
    12     9    10   ar
    13     9    33    1
    14    10    11   ar
    15    11    12    1
    16    11    31   ar
    17    12    13    2
    18    12    14    2
    19    12    15    1
    20    15    16    1
    21    16    17    1
    22    17    18    1
    23    18    19    1
    24    18    30    1
    25    19    20    1
    26    20    21    1
    27    21    22    1
    28    21    29    1
    29    22    23    1
    30    23    24   ar
    31    23    28   ar
    32    24    25   ar
    33    25    26   ar
    34    26    27   ar
    35    27    28   ar
    36    29    30    1
    37    31    32   ar
    38    33    34    1
