@<TRIPOS>MOLECULE
37024_ChemDiv_C378-0087
 31 35 0 0 0
SMALL
GASTEIGER
Energy = 0

@<TRIPOS>ATOM
      1 C           1.3000   -0.2630    0.0000 C.ar    1  LIG1        0.2018
      2 C           2.1710    0.2380    0.0000 C.ar    1  LIG1        0.0395
      3 C           3.0330   -0.2630    0.0000 C.ar    1  LIG1        0.0093
      4 C           3.0330   -1.2630    0.0000 C.ar    1  LIG1        0.0761
      5 C           2.1710   -1.7670    0.0000 C.ar    1  LIG1        0.3458
      6 O           1.3000   -1.2630    0.0000 O.2     1  LIG1       -0.4164
      7 O           2.1710   -2.7630    0.0000 O.2     1  LIG1       -0.2445
      8 C           3.9040   -1.7670    0.0000 C.ar    1  LIG1        0.0065
      9 C           4.7750   -1.2630    0.0000 C.ar    1  LIG1        0.0002
     10 C           4.7750   -0.2630    0.0000 C.ar    1  LIG1        0.0000
     11 C           3.9040    0.2380    0.0000 C.ar    1  LIG1        0.0003
     12 C           2.1710    1.2380    0.0000 C.ar    1  LIG1        0.0031
     13 C           1.3000    1.7420    0.0000 C.ar    1  LIG1        0.0001
     14 C           1.3000    2.7380    0.0000 C.ar    1  LIG1        0.0000
     15 C           2.1710    3.2420    0.0000 C.ar    1  LIG1        0.0000
     16 C           3.0330    2.7380    0.0000 C.ar    1  LIG1        0.0000
     17 C           3.0330    1.7420    0.0000 C.ar    1  LIG1        0.0001
     18 C           0.4380    0.2380    0.0000 C.2     1  LIG1        0.2842
     19 N          -0.4330   -0.2630    0.0000 N.am    1  LIG1       -0.2620
     20 C          -0.4420   -1.2630    0.0000 C.3     1  LIG1        0.1568
     21 C          -1.3040   -1.7540    0.0000 C.3     1  LIG1        0.1602
     22 N          -2.1750   -1.2630    0.0000 N.4     1  LIG1        0.3757
     23 C          -2.1670   -0.2540    0.0000 C.3     1  LIG1        0.1602
     24 C          -1.3130    0.2380    0.0000 C.3     1  LIG1        0.1568
     25 C          -3.0380   -1.7460    0.0000 C.3     1  LIG1        0.0870
     26 C          -3.0460   -2.7540    0.0000 C.3     1  LIG1        0.0567
     27 C          -3.9080   -3.2380    0.0000 C.3     1  LIG1        0.0059
     28 C          -4.7710   -2.7330    0.0000 C.3     1  LIG1        0.0004
     29 C          -4.7790   -1.7380    0.0000 C.3     1  LIG1        0.0059
     30 C          -3.9000   -1.2500    0.0000 C.3     1  LIG1        0.0567
     31 O           0.4380    1.2380    0.0000 O.2     1  LIG1       -0.2666
@<TRIPOS>BOND
     1     1     2   ar
     2     1     6   ar
     3     1    18    1
     4     2     3   ar
     5     2    12    1
     6     3     4   ar
     7     3    11   ar
     8     4     5   ar
     9     4     8   ar
    10     5     6   ar
    11     5     7    2
    12     8     9   ar
    13     9    10   ar
    14    10    11   ar
    15    12    13   ar
    16    12    17   ar
    17    13    14   ar
    18    14    15   ar
    19    15    16   ar
    20    16    17   ar
    21    18    19   am
    22    18    31    2
    23    19    20    1
    24    19    24    1
    25    20    21    1
    26    21    22    1
    27    22    23    1
    28    22    25    1
    29    23    24    1
    30    25    26    1
    31    25    30    1
    32    26    27    1
    33    27    28    1
    34    28    29    1
    35    29    30    1
