@<TRIPOS>MOLECULE
37023_ChemDiv_K279-1471
 41 46 0 0 0
SMALL
GASTEIGER
Energy = 0

@<TRIPOS>ATOM
      1 N          -3.0040    2.5040    0.0000 N.ar    1  LIG1       -0.1479
      2 C          -3.0040    3.5130    0.0000 C.ar    1  LIG1        0.3753
      3 N          -2.0580    3.8170    0.0000 N.2     1  LIG1        0.0760
      4 C          -1.4790    3.0040    0.0000 C.3     1  LIG1        0.4056
      5 C          -2.0580    2.1960    0.0000 C.2     1  LIG1        0.3293
      6 O          -1.7500    1.2420    0.0000 O.2     1  LIG1       -0.2637
      7 C          -0.4790    3.0000    0.0000 C.3     1  LIG1        0.1816
      8 C           0.0210    2.1380    0.0000 C.2     1  LIG1        0.2494
      9 N           1.0290    2.1380    0.0000 N.am    1  LIG1       -0.2003
     10 C           1.5290    1.2750    0.0000 C.3     1  LIG1        0.1416
     11 C           2.5330    1.2750    0.0000 C.ar    1  LIG1        0.0027
     12 C           3.0330    0.4130    0.0000 C.ar    1  LIG1        0.0376
     13 C           4.0290    0.4130    0.0000 C.ar    1  LIG1        0.1762
     14 C           4.5290    1.2750    0.0000 C.ar    1  LIG1        0.1764
     15 O           5.5130    1.0630    0.0000 O.3     1  LIG1       -0.4346
     16 C           5.6040    0.0630    0.0000 C.3     1  LIG1        0.4294
     17 O           4.7130   -0.3420    0.0000 O.3     1  LIG1       -0.4346
     18 C           4.0290    2.1380    0.0000 C.ar    1  LIG1        0.0399
     19 C           3.0330    2.1380    0.0000 C.ar    1  LIG1        0.0008
     20 O          -0.4790    1.2750    0.0000 O.2     1  LIG1       -0.2731
     21 C          -3.8750    4.0080    0.0000 C.ar    1  LIG1        0.1585
     22 C          -4.7380    3.5130    0.0000 C.ar    1  LIG1        0.3068
     23 N          -4.7380    2.5040    0.0000 N.ar    1  LIG1        0.1032
     24 C          -3.8750    2.0040    0.0000 C.ar    1  LIG1        0.4035
     25 S          -3.8750    1.0040    0.0000 S.3     1  LIG1       -0.0096
     26 C          -4.7380    0.5080    0.0000 C.3     1  LIG1        0.1566
     27 C          -4.7380   -0.4960    0.0000 C.2     1  LIG1        0.2572
     28 N          -3.8670   -0.9960    0.0000 N.am    1  LIG1       -0.1785
     29 C          -3.8670   -1.9960    0.0000 C.ar    1  LIG1        0.0734
     30 C          -4.7380   -2.4960    0.0000 C.ar    1  LIG1        0.0163
     31 C          -4.7290   -3.4920    0.0000 C.ar    1  LIG1       -0.0029
     32 C          -3.8670   -3.9920    0.0000 C.ar    1  LIG1       -0.0221
     33 C          -2.9960   -3.4920    0.0000 C.ar    1  LIG1       -0.0029
     34 C          -3.0040   -2.4960    0.0000 C.ar    1  LIG1        0.0163
     35 C          -3.8580   -5.0080    0.0000 C.3     1  LIG1        0.0264
     36 C          -2.9920   -5.5040    0.0000 C.3     1  LIG1        0.0050
     37 O          -5.6000   -0.9960    0.0000 O.2     1  LIG1       -0.2720
     38 C          -5.6080    4.0080    0.0000 C.ar    1  LIG1        0.0765
     39 C          -5.6080    5.0080    0.0000 C.ar    1  LIG1        0.0063
     40 C          -4.7380    5.5040    0.0000 C.ar    1  LIG1        0.0007
     41 C          -3.8750    5.0080    0.0000 C.ar    1  LIG1        0.0141
@<TRIPOS>BOND
     1     1     2   ar
     2     1     5   am
     3     1    24   ar
     4     2     3    2
     5     2    21   ar
     6     3     4    1
     7     4     5    1
     8     4     7    1
     9     5     6    2
    10     7     8    1
    11     8     9   am
    12     8    20    2
    13     9    10    1
    14    10    11    1
    15    11    12   ar
    16    11    19   ar
    17    12    13   ar
    18    13    14   ar
    19    13    17    1
    20    14    15    1
    21    14    18   ar
    22    15    16    1
    23    16    17    1
    24    18    19   ar
    25    21    22   ar
    26    21    41   ar
    27    22    23   ar
    28    22    38   ar
    29    23    24   ar
    30    24    25    1
    31    25    26    1
    32    26    27    1
    33    27    28   am
    34    27    37    2
    35    28    29    1
    36    29    30   ar
    37    29    34   ar
    38    30    31   ar
    39    31    32   ar
    40    32    33   ar
    41    32    35    1
    42    33    34   ar
    43    35    36    1
    44    38    39   ar
    45    39    40   ar
    46    40    41   ar
