@<TRIPOS>MOLECULE
37025_ChemDiv_C361-1157
 35 39 0 0 0
SMALL
GASTEIGER
Energy = 0

@<TRIPOS>ATOM
      1 N          -4.2000   -2.5330    0.0000 N.am    1  LIG1       -0.2586
      2 C          -4.7040   -3.4000    0.0000 C.2     1  LIG1        0.2288
      3 O          -4.2000   -4.2670    0.0000 O.2     1  LIG1       -0.2745
      4 C          -5.7080   -3.4000    0.0000 C.3     1  LIG1        0.0770
      5 C          -6.4130   -4.1080    0.0000 C.3     1  LIG1        0.0091
      6 C          -7.1210   -3.4000    0.0000 C.3     1  LIG1        0.0010
      7 C          -6.4130   -2.6920    0.0000 C.3     1  LIG1        0.0091
      8 C          -3.2670   -2.2210    0.0000 C.ar    1  LIG1        0.0500
      9 C          -3.2670   -1.2380    0.0000 C.ar    1  LIG1       -0.0054
     10 C          -2.4000   -0.7330    0.0000 C.ar    1  LIG1        0.0170
     11 C          -1.5330   -1.2380    0.0000 C.ar    1  LIG1        0.1233
     12 S          -0.6670   -0.7330    0.0000 S.O2    1  LIG1        0.0768
     13 O          -1.1710    0.1330    0.0000 O.2     1  LIG1       -0.1516
     14 O          -0.1670   -1.6000    0.0000 O.2     1  LIG1       -0.1516
     15 N           0.1960   -0.2330    0.0000 N.3     1  LIG1       -0.0777
     16 C           1.0630   -0.7330    0.0000 C.3     1  LIG1        0.1169
     17 C           1.9290   -0.2330    0.0000 C.3     1  LIG1        0.0381
     18 C           2.7920   -0.7330    0.0000 C.3     1  LIG1        0.0740
     19 N           3.6580   -0.2330    0.0000 N.3     1  LIG1       -0.2627
     20 C           3.6580    0.7710    0.0000 C.3     1  LIG1        0.1359
     21 C           4.5250    1.2750    0.0000 C.3     1  LIG1        0.1568
     22 N           5.3920    0.7710    0.0000 N.4     1  LIG1        0.3829
     23 C           6.2540    1.2580    0.0000 C.3     1  LIG1        0.1663
     24 C           6.2380    2.2630    0.0000 C.ar    1  LIG1        0.0344
     25 C           7.1210    2.7630    0.0000 C.ar    1  LIG1        0.0014
     26 C           7.1040    3.7670    0.0000 C.ar    1  LIG1       -0.0001
     27 C           6.2380    4.2670    0.0000 C.ar    1  LIG1       -0.0000
     28 C           5.3750    3.7670    0.0000 C.ar    1  LIG1       -0.0001
     29 C           5.3750    2.7630    0.0000 C.ar    1  LIG1        0.0014
     30 C           5.3920   -0.2330    0.0000 C.3     1  LIG1        0.1568
     31 C           4.5250   -0.7330    0.0000 C.3     1  LIG1        0.1359
     32 C          -1.5330   -2.2210    0.0000 C.ar    1  LIG1        0.0212
     33 C          -2.4000   -2.7250    0.0000 C.ar    1  LIG1        0.0160
     34 C          -4.2000   -0.9250    0.0000 C.3     1  LIG1        0.0495
     35 C          -4.7880   -1.7380    0.0000 C.3     1  LIG1        0.1029
@<TRIPOS>BOND
     1     1     2   am
     2     1     8    1
     3     1    35    1
     4     2     3    2
     5     2     4    1
     6     4     5    1
     7     4     7    1
     8     5     6    1
     9     6     7    1
    10     8     9   ar
    11     8    33   ar
    12     9    10   ar
    13     9    34    1
    14    10    11   ar
    15    11    12    1
    16    11    32   ar
    17    12    13    2
    18    12    14    2
    19    12    15    1
    20    15    16    1
    21    16    17    1
    22    17    18    1
    23    18    19    1
    24    19    20    1
    25    19    31    1
    26    20    21    1
    27    21    22    1
    28    22    23    1
    29    22    30    1
    30    23    24    1
    31    24    25   ar
    32    24    29   ar
    33    25    26   ar
    34    26    27   ar
    35    27    28   ar
    36    28    29   ar
    37    30    31    1
    38    32    33   ar
    39    34    35    1
