@<TRIPOS>MOLECULE
37031_ChemDiv_E699-1339
 27 30 0 0 0
SMALL
GASTEIGER
Energy = 0

@<TRIPOS>ATOM
      1 S           1.2500   -0.0920    0.0000 S.O2    1  LIG1        0.0768
      2 C           0.2420   -0.0920    0.0000 C.ar    1  LIG1        0.1233
      3 C          -0.2630    0.7790    0.0000 C.ar    1  LIG1        0.0170
      4 C          -1.2710    0.7830    0.0000 C.ar    1  LIG1       -0.0055
      5 C          -1.7710   -0.0920    0.0000 C.ar    1  LIG1        0.0499
      6 N          -2.7540    0.1210    0.0000 N.am    1  LIG1       -0.2603
      7 C          -3.6290   -0.3830    0.0000 C.2     1  LIG1        0.2288
      8 O          -4.5000    0.1210    0.0000 O.2     1  LIG1       -0.2745
      9 C          -3.6290   -1.3920    0.0000 C.3     1  LIG1        0.0770
     10 C          -2.9170   -2.1040    0.0000 C.3     1  LIG1        0.0091
     11 C          -3.6290   -2.8170    0.0000 C.3     1  LIG1        0.0010
     12 C          -4.3380   -2.1040    0.0000 C.3     1  LIG1        0.0091
     13 C          -2.8630    1.1250    0.0000 C.3     1  LIG1        0.0842
     14 C          -1.9420    1.5290    0.0000 C.3     1  LIG1        0.0478
     15 C          -3.7330    1.6250    0.0000 C.3     1  LIG1        0.0222
     16 C          -1.2710   -0.9630    0.0000 C.ar    1  LIG1        0.0160
     17 C          -0.2630   -0.9630    0.0000 C.ar    1  LIG1        0.0212
     18 N           2.2580   -0.0920    0.0000 N.3     1  LIG1       -0.0793
     19 C           2.7580    0.7790    0.0000 C.3     1  LIG1        0.0977
     20 C           3.7960    0.7170    0.0000 C.3     1  LIG1        0.0193
     21 C           4.4960    1.5040    0.0000 C.3     1  LIG1        0.0015
     22 C           4.2710    2.4830    0.0000 C.3     1  LIG1        0.0000
     23 C           3.4670    2.8210    0.0000 C.3     1  LIG1        0.0000
     24 C           2.5290    2.4130    0.0000 C.3     1  LIG1        0.0015
     25 C           2.2130    1.6170    0.0000 C.3     1  LIG1        0.0193
     26 O           1.2500    0.9170    0.0000 O.2     1  LIG1       -0.1516
     27 O           1.2500   -1.1000    0.0000 O.2     1  LIG1       -0.1516
@<TRIPOS>BOND
     1     1     2    1
     2     1    18    1
     3     1    26    2
     4     1    27    2
     5     2     3   ar
     6     2    17   ar
     7     3     4   ar
     8     4     5   ar
     9     4    14    1
    10     5     6    1
    11     5    16   ar
    12     6     7   am
    13     6    13    1
    14     7     8    2
    15     7     9    1
    16     9    10    1
    17     9    12    1
    18    10    11    1
    19    11    12    1
    20    13    14    1
    21    13    15    1
    22    16    17   ar
    23    18    19    1
    24    19    20    1
    25    19    25    1
    26    20    21    1
    27    21    22    1
    28    22    23    1
    29    23    24    1
    30    24    25    1
