@<TRIPOS>MOLECULE
37030_ChemDiv_K284-3521
 38 42 0 0 0
SMALL
GASTEIGER
Energy = 0

@<TRIPOS>ATOM
      1 N          -0.8830   -1.2630    0.0000 N.ar    1  LIG1       -0.2757
      2 C          -0.8830   -2.2750    0.0000 C.ar    1  LIG1        0.1738
      3 N          -1.7500   -2.7750    0.0000 N.ar    1  LIG1       -0.2224
      4 C          -2.6170   -2.2750    0.0000 C.ar    1  LIG1        0.0880
      5 C          -2.6170   -1.2710    0.0000 C.ar    1  LIG1        0.0739
      6 C          -1.7540   -0.7630    0.0000 C.ar    1  LIG1        0.2637
      7 O          -1.7630    0.2380    0.0000 O.2     1  LIG1       -0.2669
      8 C          -3.4880   -0.7710    0.0000 C.ar    1  LIG1        0.0063
      9 C          -4.3580   -1.2710    0.0000 C.ar    1  LIG1        0.0003
     10 C          -4.3580   -2.2750    0.0000 C.ar    1  LIG1        0.0015
     11 C          -3.4880   -2.7880    0.0000 C.ar    1  LIG1        0.0193
     12 S          -0.0080   -2.7630    0.0000 S.3     1  LIG1       -0.0708
     13 C           0.0080   -3.7580    0.0000 C.3     1  LIG1        0.1108
     14 C           0.8790   -4.2540    0.0000 C.ar    1  LIG1        0.0767
     15 N           1.7330   -3.7460    0.0000 N.ar    1  LIG1       -0.2311
     16 C           2.6080   -4.2250    0.0000 C.ar    1  LIG1        0.1496
     17 N           2.6210   -5.2290    0.0000 N.ar    1  LIG1       -0.2577
     18 C           1.7630   -5.7420    0.0000 C.ar    1  LIG1        0.2671
     19 C           0.8880   -5.2540    0.0000 C.ar    1  LIG1        0.0767
     20 O           1.7750   -6.7420    0.0000 O.2     1  LIG1       -0.2665
     21 C           3.4920   -5.7130    0.0000 C.ar    1  LIG1        0.0844
     22 C           4.3540   -5.2000    0.0000 C.ar    1  LIG1        0.0192
     23 C           4.3380   -4.1960    0.0000 C.ar    1  LIG1        0.0046
     24 C           3.4580   -3.7130    0.0000 C.ar    1  LIG1        0.0375
     25 C          -0.0130   -0.7580    0.0000 C.3     1  LIG1        0.1115
     26 C          -0.0210    0.2420    0.0000 C.3     1  LIG1        0.0343
     27 C           0.8420    0.7500    0.0000 C.3     1  LIG1        0.0888
     28 C           0.8250    1.7500    0.0000 C.2     1  LIG1        0.2414
     29 O          -0.0380    2.2420    0.0000 O.2     1  LIG1       -0.2733
     30 N           1.6880    2.2540    0.0000 N.am    1  LIG1       -0.2051
     31 C           1.6830    3.2540    0.0000 C.3     1  LIG1        0.1198
     32 C           2.5380    3.7630    0.0000 C.3     1  LIG1        0.0498
     33 C           2.5290    4.7500    0.0000 C.ar    1  LIG1       -0.0204
     34 C           3.3830    5.2580    0.0000 C.ar    1  LIG1       -0.0042
     35 C           3.3790    6.2460    0.0000 C.ar    1  LIG1       -0.0003
     36 C           2.5040    6.7420    0.0000 C.ar    1  LIG1       -0.0000
     37 C           1.6540    6.2290    0.0000 C.ar    1  LIG1       -0.0003
     38 C           1.6670    5.2290    0.0000 C.ar    1  LIG1       -0.0042
@<TRIPOS>BOND
     1     1     2   ar
     2     1     6   ar
     3     1    25    1
     4     2     3   ar
     5     2    12    1
     6     3     4   ar
     7     4     5   ar
     8     4    11   ar
     9     5     6   ar
    10     5     8   ar
    11     6     7    2
    12     8     9   ar
    13     9    10   ar
    14    10    11   ar
    15    12    13    1
    16    13    14    1
    17    14    15   ar
    18    14    19   ar
    19    15    16   ar
    20    16    17   ar
    21    16    24   ar
    22    17    18   ar
    23    17    21   ar
    24    18    19   ar
    25    18    20    2
    26    21    22   ar
    27    22    23   ar
    28    23    24   ar
    29    25    26    1
    30    26    27    1
    31    27    28    1
    32    28    29    2
    33    28    30   am
    34    30    31    1
    35    31    32    1
    36    32    33    1
    37    33    34   ar
    38    33    38   ar
    39    34    35   ar
    40    35    36   ar
    41    36    37   ar
    42    37    38   ar
