@<TRIPOS>MOLECULE
37035_ChemDiv_E699-1342
 25 28 0 0 0
SMALL
GASTEIGER
Energy = 0

@<TRIPOS>ATOM
      1 S           1.4130    0.1830    0.0000 S.O2    1  LIG1        0.0768
      2 C           0.4080    0.1830    0.0000 C.ar    1  LIG1        0.1233
      3 C          -0.0880    1.0500    0.0000 C.ar    1  LIG1        0.0170
      4 C          -1.0920    1.0540    0.0000 C.ar    1  LIG1       -0.0055
      5 C          -1.5920    0.1830    0.0000 C.ar    1  LIG1        0.0499
      6 N          -2.5710    0.3960    0.0000 N.am    1  LIG1       -0.2603
      7 C          -3.4380   -0.1080    0.0000 C.2     1  LIG1        0.2288
      8 O          -4.3080    0.3960    0.0000 O.2     1  LIG1       -0.2745
      9 C          -3.4380   -1.1080    0.0000 C.3     1  LIG1        0.0770
     10 C          -2.7290   -1.8170    0.0000 C.3     1  LIG1        0.0091
     11 C          -3.4380   -2.5210    0.0000 C.3     1  LIG1        0.0010
     12 C          -4.1460   -1.8170    0.0000 C.3     1  LIG1        0.0091
     13 C          -2.6750    1.3880    0.0000 C.3     1  LIG1        0.0842
     14 C          -1.7630    1.7960    0.0000 C.3     1  LIG1        0.0478
     15 C          -3.5420    1.8880    0.0000 C.3     1  LIG1        0.0222
     16 C          -1.0920   -0.6830    0.0000 C.ar    1  LIG1        0.0160
     17 C          -0.0880   -0.6830    0.0000 C.ar    1  LIG1        0.0212
     18 N           2.4080    0.1830    0.0000 N.3     1  LIG1       -0.0793
     19 C           2.9080    1.0540    0.0000 C.3     1  LIG1        0.0977
     20 C           3.8920    0.9420    0.0000 C.3     1  LIG1        0.0193
     21 C           4.3040    1.8540    0.0000 C.3     1  LIG1        0.0015
     22 C           3.5580    2.5250    0.0000 C.3     1  LIG1        0.0015
     23 C           2.7000    2.0290    0.0000 C.3     1  LIG1        0.0193
     24 O           1.4130    1.1830    0.0000 O.2     1  LIG1       -0.1516
     25 O           1.4130   -0.8170    0.0000 O.2     1  LIG1       -0.1516
@<TRIPOS>BOND
     1     1     2    1
     2     1    18    1
     3     1    24    2
     4     1    25    2
     5     2     3   ar
     6     2    17   ar
     7     3     4   ar
     8     4     5   ar
     9     4    14    1
    10     5     6    1
    11     5    16   ar
    12     6     7   am
    13     6    13    1
    14     7     8    2
    15     7     9    1
    16     9    10    1
    17     9    12    1
    18    10    11    1
    19    11    12    1
    20    13    14    1
    21    13    15    1
    22    16    17   ar
    23    18    19    1
    24    19    20    1
    25    19    23    1
    26    20    21    1
    27    21    22    1
    28    22    23    1
