@<TRIPOS>MOLECULE
37037_ChemDiv_E699-1430
 27 30 0 0 0
SMALL
GASTEIGER
Energy = 0

@<TRIPOS>ATOM
      1 S           1.3170   -0.4080    0.0000 S.O2    1  LIG1        0.0768
      2 C           0.3250   -0.4080    0.0000 C.ar    1  LIG1        0.1233
      3 C          -0.1750    0.4500    0.0000 C.ar    1  LIG1        0.0170
      4 C          -1.1630    0.4500    0.0000 C.ar    1  LIG1       -0.0055
      5 C          -1.6580   -0.4080    0.0000 C.ar    1  LIG1        0.0499
      6 N          -2.6290   -0.2040    0.0000 N.am    1  LIG1       -0.2603
      7 C          -3.4880   -0.7000    0.0000 C.2     1  LIG1        0.2288
      8 O          -4.3500   -0.2040    0.0000 O.2     1  LIG1       -0.2745
      9 C          -3.4880   -1.6920    0.0000 C.3     1  LIG1        0.0770
     10 C          -4.1880   -2.3920    0.0000 C.3     1  LIG1        0.0091
     11 C          -3.4880   -3.0960    0.0000 C.3     1  LIG1        0.0010
     12 C          -2.7880   -2.3920    0.0000 C.3     1  LIG1        0.0091
     13 C          -2.7330    0.7830    0.0000 C.3     1  LIG1        0.0842
     14 C          -1.8290    1.1880    0.0000 C.3     1  LIG1        0.0478
     15 C          -3.5920    1.2790    0.0000 C.3     1  LIG1        0.0222
     16 C          -1.1630   -1.2670    0.0000 C.ar    1  LIG1        0.0160
     17 C          -0.1710   -1.2670    0.0000 C.ar    1  LIG1        0.0212
     18 N           2.3080   -0.4080    0.0000 N.3     1  LIG1       -0.0793
     19 C           2.8000    0.4540    0.0000 C.3     1  LIG1        0.0977
     20 C           3.8170    0.4630    0.0000 C.3     1  LIG1        0.0193
     21 C           4.3460    1.3460    0.0000 C.3     1  LIG1        0.0015
     22 C           3.8290    2.2290    0.0000 C.3     1  LIG1        0.0001
     23 C           2.7790    2.2670    0.0000 C.3     1  LIG1        0.0015
     24 C           2.2830    1.3380    0.0000 C.3     1  LIG1        0.0193
     25 C           4.3170    3.1000    0.0000 C.3     1  LIG1        0.0000
     26 O           1.3170    0.5830    0.0000 O.2     1  LIG1       -0.1516
     27 O           1.3170   -1.4000    0.0000 O.2     1  LIG1       -0.1516
@<TRIPOS>BOND
     1     1     2    1
     2     1    18    1
     3     1    26    2
     4     1    27    2
     5     2     3   ar
     6     2    17   ar
     7     3     4   ar
     8     4     5   ar
     9     4    14    1
    10     5     6    1
    11     5    16   ar
    12     6     7   am
    13     6    13    1
    14     7     8    2
    15     7     9    1
    16     9    10    1
    17     9    12    1
    18    10    11    1
    19    11    12    1
    20    13    14    1
    21    13    15    1
    22    16    17   ar
    23    18    19    1
    24    19    20    1
    25    19    24    1
    26    20    21    1
    27    21    22    1
    28    22    23    1
    29    22    25    1
    30    23    24    1
