@<TRIPOS>MOLECULE
37039_ChemDiv_E699-1433
 27 30 0 0 0
SMALL
GASTEIGER
Energy = 0

@<TRIPOS>ATOM
      1 S           1.3580    0.0580    0.0000 S.O2    1  LIG1        0.0768
      2 N           2.3580    0.0580    0.0000 N.3     1  LIG1       -0.0793
      3 C           2.8540    0.9250    0.0000 C.3     1  LIG1        0.0976
      4 C           3.8380    0.9250    0.0000 C.3     1  LIG1        0.0179
      5 C           4.3540    0.0580    0.0000 C.3     1  LIG1        0.0015
      6 C           4.3540    1.7790    0.0000 C.3     1  LIG1        0.0014
      7 C           3.8380    2.6540    0.0000 C.3     1  LIG1        0.0001
      8 C           2.8540    2.6540    0.0000 C.3     1  LIG1        0.0015
      9 C           2.3580    1.7790    0.0000 C.3     1  LIG1        0.0193
     10 C           0.3580    0.0580    0.0000 C.ar    1  LIG1        0.1233
     11 C          -0.1460    0.9250    0.0000 C.ar    1  LIG1        0.0170
     12 C          -1.1460    0.9250    0.0000 C.ar    1  LIG1       -0.0055
     13 C          -1.6460    0.0580    0.0000 C.ar    1  LIG1        0.0499
     14 N          -2.6210    0.2670    0.0000 N.am    1  LIG1       -0.2603
     15 C          -3.4880   -0.2330    0.0000 C.2     1  LIG1        0.2288
     16 O          -4.3580    0.2670    0.0000 O.2     1  LIG1       -0.2745
     17 C          -3.4880   -1.2330    0.0000 C.3     1  LIG1        0.0770
     18 C          -2.7790   -1.9420    0.0000 C.3     1  LIG1        0.0091
     19 C          -3.4880   -2.6500    0.0000 C.3     1  LIG1        0.0010
     20 C          -4.1960   -1.9420    0.0000 C.3     1  LIG1        0.0091
     21 C          -2.7290    1.2670    0.0000 C.3     1  LIG1        0.0842
     22 C          -1.8130    1.6670    0.0000 C.3     1  LIG1        0.0478
     23 C          -3.5920    1.7630    0.0000 C.3     1  LIG1        0.0222
     24 C          -1.1460   -0.8080    0.0000 C.ar    1  LIG1        0.0160
     25 C          -0.1460   -0.8080    0.0000 C.ar    1  LIG1        0.0212
     26 O           1.3580    1.0540    0.0000 O.2     1  LIG1       -0.1516
     27 O           1.3580   -0.9460    0.0000 O.2     1  LIG1       -0.1516
@<TRIPOS>BOND
     1     1     2    1
     2     1    10    1
     3     1    26    2
     4     1    27    2
     5     2     3    1
     6     3     4    1
     7     3     9    1
     8     4     5    1
     9     4     6    1
    10     6     7    1
    11     7     8    1
    12     8     9    1
    13    10    11   ar
    14    10    25   ar
    15    11    12   ar
    16    12    13   ar
    17    12    22    1
    18    13    14    1
    19    13    24   ar
    20    14    15   am
    21    14    21    1
    22    15    16    2
    23    15    17    1
    24    17    18    1
    25    17    20    1
    26    18    19    1
    27    19    20    1
    28    21    22    1
    29    21    23    1
    30    24    25   ar
