@<TRIPOS>MOLECULE
37033_ChemDiv_E699-1341
 28 31 0 0 0
SMALL
GASTEIGER
Energy = 0

@<TRIPOS>ATOM
      1 S           1.1500    0.7830    0.0000 S.O2    1  LIG1        0.0768
      2 C           0.1500    0.7830    0.0000 C.ar    1  LIG1        0.1233
      3 C          -0.3500    1.6540    0.0000 C.ar    1  LIG1        0.0170
      4 C          -1.3540    1.6540    0.0000 C.ar    1  LIG1       -0.0055
      5 C          -1.8500    0.7830    0.0000 C.ar    1  LIG1        0.0499
      6 N          -2.8290    0.9960    0.0000 N.am    1  LIG1       -0.2603
      7 C          -3.6920    0.4920    0.0000 C.2     1  LIG1        0.2288
      8 O          -4.5580    0.9960    0.0000 O.2     1  LIG1       -0.2745
      9 C          -3.6960   -0.5040    0.0000 C.3     1  LIG1        0.0770
     10 C          -2.9880   -1.2130    0.0000 C.3     1  LIG1        0.0091
     11 C          -3.6960   -1.9170    0.0000 C.3     1  LIG1        0.0010
     12 C          -4.4000   -1.2130    0.0000 C.3     1  LIG1        0.0091
     13 C          -2.9290    1.9880    0.0000 C.3     1  LIG1        0.0842
     14 C          -2.0170    2.3960    0.0000 C.3     1  LIG1        0.0478
     15 C          -3.8000    2.4880    0.0000 C.3     1  LIG1        0.0222
     16 C          -1.3540   -0.0790    0.0000 C.ar    1  LIG1        0.0160
     17 C          -0.3500   -0.0790    0.0000 C.ar    1  LIG1        0.0212
     18 N           2.1500    0.7830    0.0000 N.3     1  LIG1       -0.0793
     19 C           2.6460   -0.0790    0.0000 C.3     1  LIG1        0.0977
     20 C           3.6380    0.0420    0.0000 C.3     1  LIG1        0.0193
     21 C           4.4290   -0.5750    0.0000 C.3     1  LIG1        0.0015
     22 C           4.5540   -1.5750    0.0000 C.3     1  LIG1        0.0000
     23 C           3.9380   -2.3630    0.0000 C.3     1  LIG1        0.0000
     24 C           2.9460   -2.4830    0.0000 C.3     1  LIG1        0.0000
     25 C           2.1580   -1.8750    0.0000 C.3     1  LIG1        0.0015
     26 C           2.0380   -0.8710    0.0000 C.3     1  LIG1        0.0193
     27 O           1.1500    1.7880    0.0000 O.2     1  LIG1       -0.1516
     28 O           1.1500   -0.2130    0.0000 O.2     1  LIG1       -0.1516
@<TRIPOS>BOND
     1     1     2    1
     2     1    18    1
     3     1    27    2
     4     1    28    2
     5     2     3   ar
     6     2    17   ar
     7     3     4   ar
     8     4     5   ar
     9     4    14    1
    10     5     6    1
    11     5    16   ar
    12     6     7   am
    13     6    13    1
    14     7     8    2
    15     7     9    1
    16     9    10    1
    17     9    12    1
    18    10    11    1
    19    11    12    1
    20    13    14    1
    21    13    15    1
    22    16    17   ar
    23    18    19    1
    24    19    20    1
    25    19    26    1
    26    20    21    1
    27    21    22    1
    28    22    23    1
    29    23    24    1
    30    24    25    1
    31    25    26    1
