@<TRIPOS>MOLECULE
37044_ChemDiv_C378-0352
 31 34 0 0 0
SMALL
GASTEIGER
Energy = 0

@<TRIPOS>ATOM
      1 C          -0.9000    0.2670    0.0000 C.ar    1  LIG1        0.2018
      2 C          -1.7710   -0.2330    0.0000 C.ar    1  LIG1        0.0395
      3 C          -2.6290    0.2670    0.0000 C.ar    1  LIG1        0.0093
      4 C          -2.6290    1.2710    0.0000 C.ar    1  LIG1        0.0761
      5 C          -1.7710    1.7710    0.0000 C.ar    1  LIG1        0.3458
      6 O          -0.9000    1.2710    0.0000 O.2     1  LIG1       -0.4164
      7 O          -1.7710    2.7710    0.0000 O.2     1  LIG1       -0.2445
      8 C          -3.5000    1.7710    0.0000 C.ar    1  LIG1        0.0065
      9 C          -4.3710    1.2710    0.0000 C.ar    1  LIG1        0.0002
     10 C          -4.3710    0.2670    0.0000 C.ar    1  LIG1        0.0000
     11 C          -3.5000   -0.2330    0.0000 C.ar    1  LIG1        0.0003
     12 C          -1.7710   -1.2330    0.0000 C.ar    1  LIG1        0.0031
     13 C          -0.9000   -1.7330    0.0000 C.ar    1  LIG1       -0.0002
     14 C          -0.9000   -2.7330    0.0000 C.ar    1  LIG1       -0.0043
     15 C          -1.7710   -3.2330    0.0000 C.ar    1  LIG1       -0.0218
     16 C          -2.6290   -2.7330    0.0000 C.ar    1  LIG1       -0.0043
     17 C          -2.6290   -1.7330    0.0000 C.ar    1  LIG1       -0.0002
     18 C          -1.7710   -4.2380    0.0000 C.3     1  LIG1        0.0310
     19 C          -0.0420   -0.2330    0.0000 C.2     1  LIG1        0.2840
     20 N           0.8290    0.2670    0.0000 N.am    1  LIG1       -0.2701
     21 C           1.6790   -0.2210    0.0000 C.3     1  LIG1        0.1154
     22 C           2.5580    0.2670    0.0000 C.3     1  LIG1        0.1182
     23 N           2.5710    1.2460    0.0000 N.am    1  LIG1       -0.2425
     24 C           3.4540    1.7500    0.0000 C.2     1  LIG1        0.4050
     25 O           4.3210    1.2460    0.0000 O.2     1  LIG1       -0.2262
     26 O           3.4630    2.7500    0.0000 O.3     1  LIG1       -0.4345
     27 C           4.3460    3.2380    0.0000 C.3     1  LIG1        0.2102
     28 C           4.3670    4.2330    0.0000 C.3     1  LIG1        0.0513
     29 C           1.7000    1.7500    0.0000 C.3     1  LIG1        0.1182
     30 C           0.8420    1.2710    0.0000 C.3     1  LIG1        0.1154
     31 O          -0.0420   -1.2330    0.0000 O.2     1  LIG1       -0.2666
@<TRIPOS>BOND
     1     1     2   ar
     2     1     6   ar
     3     1    19    1
     4     2     3   ar
     5     2    12    1
     6     3     4   ar
     7     3    11   ar
     8     4     5   ar
     9     4     8   ar
    10     5     6   ar
    11     5     7    2
    12     8     9   ar
    13     9    10   ar
    14    10    11   ar
    15    12    13   ar
    16    12    17   ar
    17    13    14   ar
    18    14    15   ar
    19    15    16   ar
    20    15    18    1
    21    16    17   ar
    22    19    20   am
    23    19    31    2
    24    20    21    1
    25    20    30    1
    26    21    22    1
    27    22    23    1
    28    23    24   am
    29    23    29    1
    30    24    25    2
    31    24    26    1
    32    26    27    1
    33    27    28    1
    34    29    30    1
