@<TRIPOS>MOLECULE
37042_ChemDiv_C378-0099
 33 37 0 0 0
SMALL
GASTEIGER
Energy = 0

@<TRIPOS>ATOM
      1 C           1.6830   -0.4500    0.0000 C.ar    1  LIG1        0.2018
      2 C           2.5500    0.0500    0.0000 C.ar    1  LIG1        0.0395
      3 C           3.4080   -0.4500    0.0000 C.ar    1  LIG1        0.0093
      4 C           3.4080   -1.4460    0.0000 C.ar    1  LIG1        0.0761
      5 C           2.5500   -1.9460    0.0000 C.ar    1  LIG1        0.3458
      6 O           1.6830   -1.4460    0.0000 O.2     1  LIG1       -0.4164
      7 O           2.5500   -2.9420    0.0000 O.2     1  LIG1       -0.2445
      8 C           4.2790   -1.9460    0.0000 C.ar    1  LIG1        0.0065
      9 C           5.1460   -1.4460    0.0000 C.ar    1  LIG1        0.0002
     10 C           5.1460   -0.4500    0.0000 C.ar    1  LIG1        0.0000
     11 C           4.2790    0.0500    0.0000 C.ar    1  LIG1        0.0003
     12 C           2.5500    1.0460    0.0000 C.ar    1  LIG1        0.0031
     13 C           3.4080    1.5460    0.0000 C.ar    1  LIG1        0.0001
     14 C           3.4080    2.5420    0.0000 C.ar    1  LIG1        0.0000
     15 C           2.5500    3.0420    0.0000 C.ar    1  LIG1        0.0000
     16 C           1.6830    2.5420    0.0000 C.ar    1  LIG1        0.0000
     17 C           1.6830    1.5460    0.0000 C.ar    1  LIG1        0.0001
     18 C           0.8250    0.0500    0.0000 C.2     1  LIG1        0.2840
     19 N          -0.0460   -0.4500    0.0000 N.am    1  LIG1       -0.2701
     20 C          -0.0460   -1.4540    0.0000 C.3     1  LIG1        0.1135
     21 C          -0.9130   -1.9460    0.0000 C.3     1  LIG1        0.0927
     22 N          -1.7830   -1.4460    0.0000 N.pl3   1  LIG1       -0.3057
     23 C          -2.7290   -1.7460    0.0000 C.ar    1  LIG1        0.0476
     24 C          -3.4710   -1.0710    0.0000 C.ar    1  LIG1        0.0103
     25 C          -4.4290   -1.3670    0.0000 C.ar    1  LIG1       -0.0206
     26 C          -4.6500   -2.3630    0.0000 C.ar    1  LIG1       -0.0042
     27 C          -3.9080   -3.0380    0.0000 C.ar    1  LIG1        0.0009
     28 C          -2.9420   -2.7380    0.0000 C.ar    1  LIG1        0.0145
     29 C          -5.1500   -0.6750    0.0000 C.3     1  LIG1        0.0311
     30 C          -1.7750   -0.4500    0.0000 C.3     1  LIG1        0.1123
     31 C          -0.9040    0.0420    0.0000 C.3     1  LIG1        0.1152
     32 C          -0.9130   -2.9500    0.0000 C.3     1  LIG1        0.0232
     33 O           0.8250    1.0460    0.0000 O.2     1  LIG1       -0.2666
@<TRIPOS>BOND
     1     1     2   ar
     2     1     6   ar
     3     1    18    1
     4     2     3   ar
     5     2    12    1
     6     3     4   ar
     7     3    11   ar
     8     4     5   ar
     9     4     8   ar
    10     5     6   ar
    11     5     7    2
    12     8     9   ar
    13     9    10   ar
    14    10    11   ar
    15    12    13   ar
    16    12    17   ar
    17    13    14   ar
    18    14    15   ar
    19    15    16   ar
    20    16    17   ar
    21    18    19   am
    22    18    33    2
    23    19    20    1
    24    19    31    1
    25    20    21    1
    26    21    22    1
    27    21    32    1
    28    22    23    1
    29    22    30    1
    30    23    24   ar
    31    23    28   ar
    32    24    25   ar
    33    25    26   ar
    34    25    29    1
    35    26    27   ar
    36    27    28   ar
    37    30    31    1
