@<TRIPOS>MOLECULE
37046_ChemDiv_C378-0362
 34 38 0 0 0
SMALL
GASTEIGER
Energy = 0

@<TRIPOS>ATOM
      1 C          -1.2960    0.0080    0.0000 C.ar    1  LIG1        0.2018
      2 C          -2.1710   -0.4880    0.0000 C.ar    1  LIG1        0.0395
      3 C          -3.0330    0.0080    0.0000 C.ar    1  LIG1        0.0093
      4 C          -3.0330    1.0080    0.0000 C.ar    1  LIG1        0.0761
      5 C          -2.1710    1.5040    0.0000 C.ar    1  LIG1        0.3458
      6 O          -1.2960    1.0080    0.0000 O.2     1  LIG1       -0.4164
      7 O          -2.1710    2.5040    0.0000 O.2     1  LIG1       -0.2445
      8 C          -3.8960    1.5040    0.0000 C.ar    1  LIG1        0.0065
      9 C          -4.7710    1.0080    0.0000 C.ar    1  LIG1        0.0002
     10 C          -4.7710    0.0080    0.0000 C.ar    1  LIG1        0.0000
     11 C          -3.8960   -0.4880    0.0000 C.ar    1  LIG1        0.0003
     12 C          -2.1710   -1.4880    0.0000 C.ar    1  LIG1        0.0031
     13 C          -1.2960   -1.9960    0.0000 C.ar    1  LIG1       -0.0002
     14 C          -1.2960   -2.9960    0.0000 C.ar    1  LIG1       -0.0043
     15 C          -2.1710   -3.4920    0.0000 C.ar    1  LIG1       -0.0218
     16 C          -3.0330   -2.9960    0.0000 C.ar    1  LIG1       -0.0043
     17 C          -3.0330   -1.9960    0.0000 C.ar    1  LIG1       -0.0002
     18 C          -2.1710   -4.4920    0.0000 C.3     1  LIG1        0.0310
     19 C          -0.4330   -0.4880    0.0000 C.2     1  LIG1        0.2840
     20 N           0.4290    0.0080    0.0000 N.am    1  LIG1       -0.2701
     21 C           1.3040   -0.4750    0.0000 C.3     1  LIG1        0.1152
     22 C           2.1670    0.0080    0.0000 C.3     1  LIG1        0.1123
     23 N           2.1540    0.9960    0.0000 N.pl3   1  LIG1       -0.3040
     24 C           3.0290    1.4920    0.0000 C.ar    1  LIG1        0.0510
     25 C           3.0170    2.4920    0.0000 C.ar    1  LIG1        0.0514
     26 C           3.8790    3.0000    0.0000 C.ar    1  LIG1        0.1400
     27 O           3.8710    4.0000    0.0000 O.3     1  LIG1       -0.4714
     28 C           2.9960    4.4920    0.0000 C.3     1  LIG1        0.2525
     29 C           4.7670    2.4920    0.0000 C.ar    1  LIG1        0.0370
     30 C           4.7540    1.4920    0.0000 C.ar    1  LIG1        0.0044
     31 C           3.8790    0.9960    0.0000 C.ar    1  LIG1        0.0147
     32 C           1.3040    1.5040    0.0000 C.3     1  LIG1        0.1123
     33 C           0.4420    1.0210    0.0000 C.3     1  LIG1        0.1152
     34 O          -0.4330   -1.4880    0.0000 O.2     1  LIG1       -0.2666
@<TRIPOS>BOND
     1     1     2   ar
     2     1     6   ar
     3     1    19    1
     4     2     3   ar
     5     2    12    1
     6     3     4   ar
     7     3    11   ar
     8     4     5   ar
     9     4     8   ar
    10     5     6   ar
    11     5     7    2
    12     8     9   ar
    13     9    10   ar
    14    10    11   ar
    15    12    13   ar
    16    12    17   ar
    17    13    14   ar
    18    14    15   ar
    19    15    16   ar
    20    15    18    1
    21    16    17   ar
    22    19    20   am
    23    19    34    2
    24    20    21    1
    25    20    33    1
    26    21    22    1
    27    22    23    1
    28    23    24    1
    29    23    32    1
    30    24    25   ar
    31    24    31   ar
    32    25    26   ar
    33    26    27    1
    34    26    29   ar
    35    27    28    1
    36    29    30   ar
    37    30    31   ar
    38    32    33    1
