@<TRIPOS>MOLECULE
37043_ChemDiv_K279-1486
 33 37 0 0 0
SMALL
GASTEIGER
Energy = 0

@<TRIPOS>ATOM
      1 N          -2.9790    0.2580    0.0000 N.ar    1  LIG1       -0.1479
      2 C          -2.9790    1.2500    0.0000 C.ar    1  LIG1        0.3753
      3 N          -2.0380    1.5540    0.0000 N.2     1  LIG1        0.0760
      4 C          -1.4670    0.7540    0.0000 C.3     1  LIG1        0.4056
      5 C          -2.0380   -0.0420    0.0000 C.2     1  LIG1        0.3293
      6 O          -1.7080   -1.0040    0.0000 O.2     1  LIG1       -0.2637
      7 C          -0.4500    0.7420    0.0000 C.3     1  LIG1        0.1816
      8 C           0.0380    1.6130    0.0000 C.2     1  LIG1        0.2494
      9 N           1.0170    1.6290    0.0000 N.am    1  LIG1       -0.2003
     10 C           1.5420    0.7580    0.0000 C.3     1  LIG1        0.1416
     11 C           2.5380    0.7920    0.0000 C.ar    1  LIG1        0.0027
     12 C           3.0290    1.6580    0.0000 C.ar    1  LIG1        0.0376
     13 C           4.0290    1.6920    0.0000 C.ar    1  LIG1        0.1762
     14 C           4.5330    0.8170    0.0000 C.ar    1  LIG1        0.1764
     15 O           5.5170    1.0540    0.0000 O.3     1  LIG1       -0.4346
     16 C           5.5880    2.0380    0.0000 C.3     1  LIG1        0.4294
     17 O           4.6750    2.4420    0.0000 O.3     1  LIG1       -0.4346
     18 C           4.0420   -0.0580    0.0000 C.ar    1  LIG1        0.0399
     19 C           3.0500   -0.0750    0.0000 C.ar    1  LIG1        0.0008
     20 O          -0.4920    2.4710    0.0000 O.2     1  LIG1       -0.2731
     21 C          -3.8500    1.7630    0.0000 C.ar    1  LIG1        0.1585
     22 C          -4.7170    1.2500    0.0000 C.ar    1  LIG1        0.3068
     23 N          -4.7170    0.2580    0.0000 N.ar    1  LIG1        0.1032
     24 C          -3.8460   -0.2540    0.0000 C.ar    1  LIG1        0.4035
     25 S          -3.8460   -1.2460    0.0000 S.3     1  LIG1       -0.0096
     26 C          -2.9790   -1.7290    0.0000 C.3     1  LIG1        0.1579
     27 C          -3.0040   -2.7540    0.0000 C.2     1  LIG1        0.2723
     28 O          -2.1290   -3.2670    0.0000 O.2     1  LIG1       -0.2707
     29 N          -3.8500   -3.2670    0.0000 N.am    1  LIG1       -0.0870
     30 C          -5.5920    1.7630    0.0000 C.ar    1  LIG1        0.0765
     31 C          -5.5920    2.7580    0.0000 C.ar    1  LIG1        0.0063
     32 C          -4.7250    3.2710    0.0000 C.ar    1  LIG1        0.0007
     33 C          -3.8750    2.7580    0.0000 C.ar    1  LIG1        0.0141
@<TRIPOS>BOND
     1     1     2   ar
     2     1     5   am
     3     1    24   ar
     4     2     3    2
     5     2    21   ar
     6     3     4    1
     7     4     5    1
     8     4     7    1
     9     5     6    2
    10     7     8    1
    11     8     9   am
    12     8    20    2
    13     9    10    1
    14    10    11    1
    15    11    12   ar
    16    11    19   ar
    17    12    13   ar
    18    13    14   ar
    19    13    17    1
    20    14    15    1
    21    14    18   ar
    22    15    16    1
    23    16    17    1
    24    18    19   ar
    25    21    22   ar
    26    21    33   ar
    27    22    23   ar
    28    22    30   ar
    29    23    24   ar
    30    24    25    1
    31    25    26    1
    32    26    27    1
    33    27    28    2
    34    27    29   am
    35    30    31   ar
    36    31    32   ar
    37    32    33   ar
