@<TRIPOS>MOLECULE
37050_ChemDiv_C378-0581
 32 35 0 0 0
SMALL
GASTEIGER
Energy = 0

@<TRIPOS>ATOM
      1 C          -1.7210    1.0000    0.0000 C.ar    1  LIG1        0.2033
      2 C          -2.5830    0.5000    0.0000 C.ar    1  LIG1        0.0395
      3 C          -3.4630    1.0000    0.0000 C.ar    1  LIG1        0.0093
      4 C          -3.4630    2.0130    0.0000 C.ar    1  LIG1        0.0761
      5 C          -2.5830    2.5130    0.0000 C.ar    1  LIG1        0.3458
      6 O          -1.7210    2.0130    0.0000 O.2     1  LIG1       -0.4163
      7 O          -2.5830    3.5080    0.0000 O.2     1  LIG1       -0.2445
      8 C          -4.3250    2.5130    0.0000 C.ar    1  LIG1        0.0065
      9 C          -5.1920    2.0130    0.0000 C.ar    1  LIG1        0.0002
     10 C          -5.1920    1.0000    0.0000 C.ar    1  LIG1        0.0000
     11 C          -4.3250    0.5000    0.0000 C.ar    1  LIG1        0.0003
     12 C          -2.5830   -0.4960    0.0000 C.ar    1  LIG1        0.0031
     13 C          -3.4630   -0.9960    0.0000 C.ar    1  LIG1       -0.0002
     14 C          -3.4630   -2.0080    0.0000 C.ar    1  LIG1       -0.0043
     15 C          -2.5830   -2.5080    0.0000 C.ar    1  LIG1       -0.0218
     16 C          -1.7210   -2.0080    0.0000 C.ar    1  LIG1       -0.0043
     17 C          -1.7210   -0.9960    0.0000 C.ar    1  LIG1       -0.0002
     18 C          -2.5830   -3.5040    0.0000 C.3     1  LIG1        0.0310
     19 C          -0.8540    0.5000    0.0000 C.2     1  LIG1        0.2997
     20 O          -0.8540   -0.4960    0.0000 O.2     1  LIG1       -0.2650
     21 N           0.0210    1.0000    0.0000 N.am    1  LIG1       -0.1972
     22 C           0.8880    0.5000    0.0000 C.3     1  LIG1        0.1369
     23 C           1.7500    1.0000    0.0000 C.3     1  LIG1        0.1142
     24 N           2.6040    0.5130    0.0000 N.pl3   1  LIG1       -0.3057
     25 C           3.4580    1.0130    0.0000 C.ar    1  LIG1        0.0479
     26 C           3.4580    2.0000    0.0000 C.ar    1  LIG1        0.0145
     27 C           4.3210    2.5000    0.0000 C.ar    1  LIG1        0.0013
     28 C           5.1880    2.0000    0.0000 C.ar    1  LIG1        0.0001
     29 C           5.1880    1.0130    0.0000 C.ar    1  LIG1        0.0013
     30 C           4.3210    0.5130    0.0000 C.ar    1  LIG1        0.0145
     31 C           2.6040   -0.4830    0.0000 C.3     1  LIG1        0.0909
     32 C           1.7500   -0.9830    0.0000 C.3     1  LIG1        0.0232
@<TRIPOS>BOND
     1     1     2   ar
     2     1     6   ar
     3     1    19    1
     4     2     3   ar
     5     2    12    1
     6     3     4   ar
     7     3    11   ar
     8     4     5   ar
     9     4     8   ar
    10     5     6   ar
    11     5     7    2
    12     8     9   ar
    13     9    10   ar
    14    10    11   ar
    15    12    13   ar
    16    12    17   ar
    17    13    14   ar
    18    14    15   ar
    19    15    16   ar
    20    15    18    1
    21    16    17   ar
    22    19    20    2
    23    19    21   am
    24    21    22    1
    25    22    23    1
    26    23    24    1
    27    24    25    1
    28    24    31    1
    29    25    26   ar
    30    25    30   ar
    31    26    27   ar
    32    27    28   ar
    33    28    29   ar
    34    29    30   ar
    35    31    32    1
