@<TRIPOS>MOLECULE
37059_ChemDiv_K906-4695
 34 37 0 0 0
SMALL
GASTEIGER
Energy = 0

@<TRIPOS>ATOM
      1 N          -4.4500   -1.9500    0.0000 N.am    1  LIG1       -0.2603
      2 C          -4.7580   -2.9040    0.0000 C.2     1  LIG1        0.2288
      3 C          -4.0880   -3.6420    0.0000 C.3     1  LIG1        0.0771
      4 C          -3.4210   -4.3830    0.0000 C.3     1  LIG1        0.0096
      5 C          -3.1170   -3.4330    0.0000 C.3     1  LIG1        0.0096
      6 O          -5.7330   -3.1130    0.0000 O.2     1  LIG1       -0.2745
      7 C          -3.5000   -1.6460    0.0000 C.ar    1  LIG1        0.0499
      8 C          -3.5000   -0.6500    0.0000 C.ar    1  LIG1       -0.0055
      9 C          -4.4500   -0.3420    0.0000 C.3     1  LIG1        0.0478
     10 C          -5.0380   -1.1420    0.0000 C.3     1  LIG1        0.0842
     11 C          -6.0330   -1.1330    0.0000 C.3     1  LIG1        0.0222
     12 C          -2.6380   -0.1500    0.0000 C.ar    1  LIG1        0.0170
     13 C          -1.7710   -0.6500    0.0000 C.ar    1  LIG1        0.1233
     14 S          -0.9000   -0.1330    0.0000 S.O2    1  LIG1        0.0768
     15 N          -0.0330    0.3710    0.0000 N.3     1  LIG1       -0.0778
     16 C          -0.0330    1.3790    0.0000 C.3     1  LIG1        0.1154
     17 C           0.8290    1.8790    0.0000 C.3     1  LIG1        0.0194
     18 C           0.8290    2.8750    0.0000 C.3     1  LIG1        0.0020
     19 C           1.6920    3.3750    0.0000 C.3     1  LIG1        0.0092
     20 C           2.5540    2.8750    0.0000 C.3     1  LIG1        0.0782
     21 C           3.4330    3.3920    0.0000 C.2     1  LIG1        0.2409
     22 O           3.4250    4.3830    0.0000 O.2     1  LIG1       -0.2734
     23 N           4.3040    2.8920    0.0000 N.am    1  LIG1       -0.2054
     24 C           4.3040    1.8920    0.0000 C.3     1  LIG1        0.1151
     25 C           5.1670    1.3960    0.0000 C.3     1  LIG1        0.0234
     26 C           5.1710    0.3960    0.0000 C.3     1  LIG1        0.0018
     27 C           6.0330   -0.1040    0.0000 C.3     1  LIG1        0.0001
     28 C           4.3040   -0.1040    0.0000 C.3     1  LIG1        0.0001
     29 C           2.5540    1.8670    0.0000 C.3     1  LIG1        0.0092
     30 C           1.6920    1.3790    0.0000 C.3     1  LIG1        0.0020
     31 O          -1.4080    0.7330    0.0000 O.2     1  LIG1       -0.1516
     32 O          -0.3960   -1.0130    0.0000 O.2     1  LIG1       -0.1516
     33 C          -1.7710   -1.6460    0.0000 C.ar    1  LIG1        0.0212
     34 C          -2.6380   -2.1460    0.0000 C.ar    1  LIG1        0.0160
@<TRIPOS>BOND
     1     1     2   am
     2     1     7    1
     3     1    10    1
     4     2     3    1
     5     2     6    2
     6     3     4    1
     7     3     5    1
     8     4     5    1
     9     7     8   ar
    10     7    34   ar
    11     8     9    1
    12     8    12   ar
    13     9    10    1
    14    10    11    1
    15    12    13   ar
    16    13    14    1
    17    13    33   ar
    18    14    15    1
    19    14    31    2
    20    14    32    2
    21    15    16    1
    22    16    17    1
    23    17    18    1
    24    17    30    1
    25    18    19    1
    26    19    20    1
    27    20    21    1
    28    20    29    1
    29    21    22    2
    30    21    23   am
    31    23    24    1
    32    24    25    1
    33    25    26    1
    34    26    27    1
    35    26    28    1
    36    29    30    1
    37    33    34   ar
