@<TRIPOS>MOLECULE
37052_ChemDiv_K953-0052
 32 36 0 0 0
SMALL
GASTEIGER
Energy = 0

@<TRIPOS>ATOM
      1 C           1.3000   -0.7460    0.0000 C.ar    1  LIG1        0.2018
      2 C           2.1670   -0.2460    0.0000 C.ar    1  LIG1        0.0395
      3 C           3.0330   -0.7460    0.0000 C.ar    1  LIG1        0.0093
      4 C           3.0330   -1.7420    0.0000 C.ar    1  LIG1        0.0761
      5 C           2.1750   -2.2540    0.0000 C.ar    1  LIG1        0.3458
      6 O           1.3040   -1.7500    0.0000 O.2     1  LIG1       -0.4164
      7 O           2.1750   -3.2580    0.0000 O.2     1  LIG1       -0.2445
      8 C           3.9040   -2.2380    0.0000 C.ar    1  LIG1        0.0065
      9 C           4.7710   -1.7330    0.0000 C.ar    1  LIG1        0.0002
     10 C           4.7670   -0.7330    0.0000 C.ar    1  LIG1        0.0000
     11 C           3.8960   -0.2420    0.0000 C.ar    1  LIG1        0.0003
     12 C           2.1670    0.7500    0.0000 C.ar    1  LIG1        0.0031
     13 C           1.3040    1.2380    0.0000 C.ar    1  LIG1       -0.0002
     14 C           1.3040    2.2420    0.0000 C.ar    1  LIG1       -0.0043
     15 C           2.1710    2.7500    0.0000 C.ar    1  LIG1       -0.0218
     16 C           3.0330    2.2420    0.0000 C.ar    1  LIG1       -0.0043
     17 C           3.0330    1.2380    0.0000 C.ar    1  LIG1       -0.0002
     18 C           2.1670    3.7500    0.0000 C.3     1  LIG1        0.0310
     19 C           0.4290   -0.2460    0.0000 C.2     1  LIG1        0.2840
     20 N          -0.4380   -0.7460    0.0000 N.am    1  LIG1       -0.2701
     21 C          -1.3170   -0.2630    0.0000 C.3     1  LIG1        0.1152
     22 C          -2.1790   -0.7460    0.0000 C.3     1  LIG1        0.1123
     23 N          -2.1880   -1.7500    0.0000 N.pl3   1  LIG1       -0.3041
     24 C          -1.3170   -2.2460    0.0000 C.3     1  LIG1        0.1123
     25 C          -0.4460   -1.7420    0.0000 C.3     1  LIG1        0.1152
     26 C          -3.0420   -2.2460    0.0000 C.ar    1  LIG1        0.0479
     27 C          -3.8960   -1.7500    0.0000 C.ar    1  LIG1        0.0145
     28 C          -4.7670   -2.2460    0.0000 C.ar    1  LIG1        0.0013
     29 C          -4.7750   -3.2500    0.0000 C.ar    1  LIG1        0.0001
     30 C          -3.9040   -3.7460    0.0000 C.ar    1  LIG1        0.0013
     31 C          -3.0380   -3.2420    0.0000 C.ar    1  LIG1        0.0145
     32 O           0.4290    0.7500    0.0000 O.2     1  LIG1       -0.2666
@<TRIPOS>BOND
     1     1     2   ar
     2     1     6   ar
     3     1    19    1
     4     2     3   ar
     5     2    12    1
     6     3     4   ar
     7     3    11   ar
     8     4     5   ar
     9     4     8   ar
    10     5     6   ar
    11     5     7    2
    12     8     9   ar
    13     9    10   ar
    14    10    11   ar
    15    12    13   ar
    16    12    17   ar
    17    13    14   ar
    18    14    15   ar
    19    15    16   ar
    20    15    18    1
    21    16    17   ar
    22    19    20   am
    23    19    32    2
    24    20    21    1
    25    20    25    1
    26    21    22    1
    27    22    23    1
    28    23    24    1
    29    23    26    1
    30    24    25    1
    31    26    27   ar
    32    26    31   ar
    33    27    28   ar
    34    28    29   ar
    35    29    30   ar
    36    30    31   ar
