@<TRIPOS>MOLECULE
37057_ChemDiv_K906-1137
 20 21 0 0 0
SMALL
GASTEIGER
Energy = 0

@<TRIPOS>ATOM
      1 S           0.2130    1.0380    0.0000 S.O2    1  LIG1        0.0772
      2 C          -0.4580    0.2920    0.0000 C.ar    1  LIG1        0.1233
      3 C          -1.4290    0.5040    0.0000 C.ar    1  LIG1        0.0170
      4 C          -2.0960   -0.2420    0.0000 C.ar    1  LIG1       -0.0054
      5 C          -1.7920   -1.1920    0.0000 C.ar    1  LIG1        0.0500
      6 N          -2.6040   -1.7750    0.0000 N.am    1  LIG1       -0.2586
      7 C          -2.6170   -2.7750    0.0000 C.2     1  LIG1        0.2298
      8 O          -3.4920   -3.2710    0.0000 O.2     1  LIG1       -0.2745
      9 C          -1.7540   -3.2920    0.0000 C.3     1  LIG1        0.0952
     10 C          -3.4000   -1.1920    0.0000 C.3     1  LIG1        0.1029
     11 C          -3.1000   -0.2420    0.0000 C.3     1  LIG1        0.0495
     12 C          -0.8130   -1.4040    0.0000 C.ar    1  LIG1        0.0160
     13 C          -0.1380   -0.6630    0.0000 C.ar    1  LIG1        0.0212
     14 N           0.8790    1.7920    0.0000 N.3     1  LIG1       -0.0717
     15 C           1.8500    1.5960    0.0000 C.3     1  LIG1        0.1568
     16 C           2.5130    2.3460    0.0000 C.2     1  LIG1        0.0699
     17 O           2.1830    3.2960    0.0000 O.co2   1  LIG1       -0.5476
     18 O           3.4880    2.1580    0.0000 O.co2   1  LIG1       -0.5476
     19 O          -0.5330    1.7000    0.0000 O.2     1  LIG1       -0.1516
     20 O           0.9630    0.3830    0.0000 O.2     1  LIG1       -0.1516
@<TRIPOS>BOND
     1     1     2    1
     2     1    14    1
     3     1    19    2
     4     1    20    2
     5     2     3   ar
     6     2    13   ar
     7     3     4   ar
     8     4     5   ar
     9     4    11    1
    10     5     6    1
    11     5    12   ar
    12     6     7   am
    13     6    10    1
    14     7     8    2
    15     7     9    1
    16    10    11    1
    17    12    13   ar
    18    14    15    1
    19    15    16    1
    20    16    17   ar
    21    16    18   ar
