@<TRIPOS>MOLECULE
37065_ChemDiv_C325-0218
 27 31 0 0 0
SMALL
GASTEIGER
Energy = 0

@<TRIPOS>ATOM
      1 N           0.7290    0.8500    0.0000 N.ar    1  LIG1       -0.2657
      2 C           1.5920    1.3500    0.0000 C.ar    1  LIG1        0.2373
      3 N           2.3380    0.6750    0.0000 N.ar    1  LIG1       -0.2077
      4 C           1.9380   -0.2250    0.0000 C.ar    1  LIG1        0.1222
      5 C           0.9420   -0.1290    0.0000 C.ar    1  LIG1        0.1572
      6 N           0.2750   -0.8790    0.0000 N.pl3   1  LIG1       -0.1938
      7 C          -0.3920   -1.6290    0.0000 C.ar    1  LIG1        0.0754
      8 C          -1.3750   -1.4170    0.0000 C.ar    1  LIG1        0.0566
      9 C          -2.0380   -2.1710    0.0000 C.ar    1  LIG1        0.1737
     10 C          -1.7250   -3.1130    0.0000 C.ar    1  LIG1        0.1725
     11 O          -2.3790   -3.8540    0.0000 O.3     1  LIG1       -0.4684
     12 C          -3.3500   -3.6540    0.0000 C.3     1  LIG1        0.2526
     13 C          -3.6540   -2.7130    0.0000 C.3     1  LIG1        0.2526
     14 O          -3.0000   -1.9750    0.0000 O.3     1  LIG1       -0.4683
     15 C          -0.7460   -3.3210    0.0000 C.ar    1  LIG1        0.0414
     16 C          -0.0790   -2.5790    0.0000 C.ar    1  LIG1        0.0199
     17 C           2.4380   -1.0790    0.0000 C.ar    1  LIG1        0.0500
     18 S           2.0330   -2.0040    0.0000 S.2     1  LIG1       -0.0848
     19 C           2.7790   -2.6750    0.0000 C.ar    1  LIG1        0.0355
     20 C           3.6500   -2.1710    0.0000 C.ar    1  LIG1        0.0075
     21 C           3.4380   -1.1880    0.0000 C.ar    1  LIG1        0.0086
     22 N           1.5920    2.3580    0.0000 N.ar    1  LIG1       -0.2154
     23 C           0.7290    2.8630    0.0000 C.ar    1  LIG1        0.0636
     24 C          -0.1420    2.3580    0.0000 C.ar    1  LIG1        0.0280
     25 C          -0.1420    1.3500    0.0000 C.ar    1  LIG1        0.0469
     26 C          -1.0170    0.8460    0.0000 C.3     1  LIG1        0.0505
     27 C           0.7290    3.8580    0.0000 C.3     1  LIG1        0.0522
@<TRIPOS>BOND
     1     1     2   ar
     2     1     5   ar
     3     1    25   ar
     4     2     3   ar
     5     2    22   ar
     6     3     4   ar
     7     4     5   ar
     8     4    17    1
     9     5     6    1
    10     6     7    1
    11     7     8   ar
    12     7    16   ar
    13     8     9   ar
    14     9    10   ar
    15     9    14    1
    16    10    11    1
    17    10    15   ar
    18    11    12    1
    19    12    13    1
    20    13    14    1
    21    15    16   ar
    22    17    18   ar
    23    17    21   ar
    24    18    19   ar
    25    19    20   ar
    26    20    21   ar
    27    22    23   ar
    28    23    24   ar
    29    23    27    1
    30    24    25   ar
    31    25    26    1
