@<TRIPOS>MOLECULE
37067_ChemDiv_C325-0312
 28 32 0 0 0
SMALL
GASTEIGER
Energy = 0

@<TRIPOS>ATOM
      1 N           1.1420    0.7790    0.0000 N.ar    1  LIG1       -0.2657
      2 C           2.0170    1.2630    0.0000 C.ar    1  LIG1        0.2373
      3 N           2.7500    0.5920    0.0000 N.ar    1  LIG1       -0.2077
      4 C           2.3330   -0.3170    0.0000 C.ar    1  LIG1        0.1222
      5 C           1.3500   -0.2040    0.0000 C.ar    1  LIG1        0.1572
      6 N           0.4790   -0.7040    0.0000 N.pl3   1  LIG1       -0.1938
      7 C          -0.5250   -0.7040    0.0000 C.ar    1  LIG1        0.0754
      8 C          -1.0330    0.1670    0.0000 C.ar    1  LIG1        0.0566
      9 C          -2.0290    0.1670    0.0000 C.ar    1  LIG1        0.1737
     10 C          -2.5250   -0.6920    0.0000 C.ar    1  LIG1        0.1725
     11 O          -3.5250   -0.7040    0.0000 O.3     1  LIG1       -0.4684
     12 C          -4.0250    0.1750    0.0000 C.3     1  LIG1        0.2526
     13 C          -3.5210    1.0420    0.0000 C.3     1  LIG1        0.2526
     14 O          -2.5250    1.0330    0.0000 O.3     1  LIG1       -0.4683
     15 C          -2.0170   -1.5670    0.0000 C.ar    1  LIG1        0.0414
     16 C          -1.0210   -1.5630    0.0000 C.ar    1  LIG1        0.0199
     17 C           2.8290   -1.1920    0.0000 C.ar    1  LIG1        0.0496
     18 S           2.4080   -2.1080    0.0000 S.2     1  LIG1       -0.0897
     19 C           3.1460   -2.7880    0.0000 C.ar    1  LIG1        0.0077
     20 C           4.0210   -2.2920    0.0000 C.ar    1  LIG1        0.0027
     21 C           3.8250   -1.3130    0.0000 C.ar    1  LIG1        0.0083
     22 C           3.0290   -3.7710    0.0000 C.3     1  LIG1        0.0382
     23 N           2.0460    2.2500    0.0000 N.ar    1  LIG1       -0.2154
     24 C           1.1880    2.7790    0.0000 C.ar    1  LIG1        0.0636
     25 C           0.3130    2.2960    0.0000 C.ar    1  LIG1        0.0280
     26 C           0.2920    1.3000    0.0000 C.ar    1  LIG1        0.0469
     27 C          -0.5790    0.8170    0.0000 C.3     1  LIG1        0.0505
     28 C           1.2170    3.7750    0.0000 C.3     1  LIG1        0.0522
@<TRIPOS>BOND
     1     1     2   ar
     2     1     5   ar
     3     1    26   ar
     4     2     3   ar
     5     2    23   ar
     6     3     4   ar
     7     4     5   ar
     8     4    17    1
     9     5     6    1
    10     6     7    1
    11     7     8   ar
    12     7    16   ar
    13     8     9   ar
    14     9    10   ar
    15     9    14    1
    16    10    11    1
    17    10    15   ar
    18    11    12    1
    19    12    13    1
    20    13    14    1
    21    15    16   ar
    22    17    18   ar
    23    17    21   ar
    24    18    19   ar
    25    19    20   ar
    26    19    22    1
    27    20    21   ar
    28    23    24   ar
    29    24    25   ar
    30    24    28    1
    31    25    26   ar
    32    26    27    1
