@<TRIPOS>MOLECULE
37061_ChemDiv_C325-0152
 23 26 0 0 0
SMALL
GASTEIGER
Energy = 0

@<TRIPOS>ATOM
      1 N          -0.3960    0.7000    0.0000 N.ar    1  LIG1       -0.2657
      2 C           0.4670    1.2000    0.0000 C.ar    1  LIG1        0.2373
      3 N           1.2080    0.5170    0.0000 N.ar    1  LIG1       -0.2077
      4 C           0.8130   -0.3750    0.0000 C.ar    1  LIG1        0.1222
      5 C          -0.1830   -0.2830    0.0000 C.ar    1  LIG1        0.1572
      6 N          -0.7000   -1.1040    0.0000 N.pl3   1  LIG1       -0.1939
      7 C          -1.2040   -1.9670    0.0000 C.ar    1  LIG1        0.0721
      8 C          -2.2130   -1.9580    0.0000 C.ar    1  LIG1        0.0166
      9 C          -2.7130   -2.8250    0.0000 C.ar    1  LIG1        0.0013
     10 C          -2.2210   -3.6920    0.0000 C.ar    1  LIG1        0.0001
     11 C          -1.2130   -3.6920    0.0000 C.ar    1  LIG1        0.0013
     12 C          -0.7130   -2.8250    0.0000 C.ar    1  LIG1        0.0166
     13 C           1.3920   -1.1920    0.0000 C.ar    1  LIG1        0.0500
     14 S           1.0750   -2.1580    0.0000 S.2     1  LIG1       -0.0848
     15 C           1.8750   -2.7460    0.0000 C.ar    1  LIG1        0.0355
     16 C           2.7080   -2.1460    0.0000 C.ar    1  LIG1        0.0075
     17 C           2.4000   -1.2040    0.0000 C.ar    1  LIG1        0.0086
     18 N           0.4670    2.2000    0.0000 N.ar    1  LIG1       -0.2154
     19 C          -0.3960    2.6960    0.0000 C.ar    1  LIG1        0.0636
     20 C          -1.2630    2.2000    0.0000 C.ar    1  LIG1        0.0280
     21 C          -1.2630    1.2000    0.0000 C.ar    1  LIG1        0.0469
     22 C          -2.1380    0.7000    0.0000 C.3     1  LIG1        0.0505
     23 C          -0.3960    3.6960    0.0000 C.3     1  LIG1        0.0522
@<TRIPOS>BOND
     1     1     2   ar
     2     1     5   ar
     3     1    21   ar
     4     2     3   ar
     5     2    18   ar
     6     3     4   ar
     7     4     5   ar
     8     4    13    1
     9     5     6    1
    10     6     7    1
    11     7     8   ar
    12     7    12   ar
    13     8     9   ar
    14     9    10   ar
    15    10    11   ar
    16    11    12   ar
    17    13    14   ar
    18    13    17   ar
    19    14    15   ar
    20    15    16   ar
    21    16    17   ar
    22    18    19   ar
    23    19    20   ar
    24    19    23    1
    25    20    21   ar
    26    21    22    1
