@<TRIPOS>MOLECULE
37069_ChemDiv_C325-0320
 24 27 0 0 0
SMALL
GASTEIGER
Energy = 0

@<TRIPOS>ATOM
      1 N           0.4750    0.2580    0.0000 N.ar    1  LIG1       -0.2657
      2 C           1.3330    0.7580    0.0000 C.ar    1  LIG1        0.2373
      3 N           2.0790    0.0920    0.0000 N.ar    1  LIG1       -0.2077
      4 C           1.6790   -0.8170    0.0000 C.ar    1  LIG1        0.1222
      5 C           0.6830   -0.7170    0.0000 C.ar    1  LIG1        0.1572
      6 N          -0.0290   -1.4250    0.0000 N.pl3   1  LIG1       -0.1939
      7 C          -1.0000   -1.6830    0.0000 C.ar    1  LIG1        0.0718
      8 C          -1.7040   -0.9670    0.0000 C.ar    1  LIG1        0.0123
      9 C          -2.6750   -1.2250    0.0000 C.ar    1  LIG1       -0.0206
     10 C          -2.9380   -2.1960    0.0000 C.ar    1  LIG1       -0.0042
     11 C          -2.2250   -2.9040    0.0000 C.ar    1  LIG1        0.0010
     12 C          -1.2580   -2.6420    0.0000 C.ar    1  LIG1        0.0165
     13 C          -3.3790   -0.5170    0.0000 C.3     1  LIG1        0.0311
     14 C           2.1830   -1.6830    0.0000 C.ar    1  LIG1        0.0500
     15 S           3.1670   -1.7710    0.0000 S.2     1  LIG1       -0.0848
     16 C           3.3750   -2.7540    0.0000 C.ar    1  LIG1        0.0355
     17 C           2.5170   -3.2540    0.0000 C.ar    1  LIG1        0.0075
     18 C           1.7710   -2.6040    0.0000 C.ar    1  LIG1        0.0086
     19 N           1.3330    1.7580    0.0000 N.ar    1  LIG1       -0.2154
     20 C           0.4670    2.2580    0.0000 C.ar    1  LIG1        0.0636
     21 C          -0.3960    1.7580    0.0000 C.ar    1  LIG1        0.0280
     22 C          -0.3960    0.7580    0.0000 C.ar    1  LIG1        0.0469
     23 C          -1.2670    0.2580    0.0000 C.3     1  LIG1        0.0505
     24 C           0.4580    3.2580    0.0000 C.3     1  LIG1        0.0522
@<TRIPOS>BOND
     1     1     2   ar
     2     1     5   ar
     3     1    22   ar
     4     2     3   ar
     5     2    19   ar
     6     3     4   ar
     7     4     5   ar
     8     4    14    1
     9     5     6    1
    10     6     7    1
    11     7     8   ar
    12     7    12   ar
    13     8     9   ar
    14     9    10   ar
    15     9    13    1
    16    10    11   ar
    17    11    12   ar
    18    14    15   ar
    19    14    18   ar
    20    15    16   ar
    21    16    17   ar
    22    17    18   ar
    23    19    20   ar
    24    20    21   ar
    25    20    24    1
    26    21    22   ar
    27    22    23    1
