@<TRIPOS>MOLECULE
37063_ChemDiv_C325-0163
 24 27 0 0 0
SMALL
GASTEIGER
Energy = 0

@<TRIPOS>ATOM
      1 N          -0.4000    0.6920    0.0000 N.ar    1  LIG1       -0.2657
      2 C          -0.1880   -0.2880    0.0000 C.ar    1  LIG1        0.1572
      3 C           0.8080   -0.3830    0.0000 C.ar    1  LIG1        0.1222
      4 N           1.2170    0.5170    0.0000 N.ar    1  LIG1       -0.2077
      5 C           0.4630    1.1920    0.0000 C.ar    1  LIG1        0.2373
      6 N           0.4630    2.1960    0.0000 N.ar    1  LIG1       -0.2154
      7 C          -0.4000    2.6960    0.0000 C.ar    1  LIG1        0.0636
      8 C          -1.2630    2.1960    0.0000 C.ar    1  LIG1        0.0280
      9 C          -1.2630    1.1920    0.0000 C.ar    1  LIG1        0.0469
     10 C          -2.1330    0.6920    0.0000 C.3     1  LIG1        0.0505
     11 C          -0.3920    3.6960    0.0000 C.3     1  LIG1        0.0522
     12 C           1.3960   -1.2000    0.0000 C.ar    1  LIG1        0.0500
     13 S           1.0830   -2.1500    0.0000 S.2     1  LIG1       -0.0848
     14 C           1.8960   -2.7460    0.0000 C.ar    1  LIG1        0.0355
     15 C           2.7170   -2.1670    0.0000 C.ar    1  LIG1        0.0075
     16 C           2.4000   -1.2000    0.0000 C.ar    1  LIG1        0.0086
     17 N          -0.7040   -1.1080    0.0000 N.pl3   1  LIG1       -0.1942
     18 C          -1.2040   -1.9710    0.0000 C.ar    1  LIG1        0.0681
     19 C          -2.2080   -1.9580    0.0000 C.ar    1  LIG1       -0.0065
     20 C          -2.7040   -1.0960    0.0000 C.3     1  LIG1        0.0324
     21 C          -2.7210   -2.8210    0.0000 C.ar    1  LIG1       -0.0030
     22 C          -2.2210   -3.6920    0.0000 C.ar    1  LIG1       -0.0002
     23 C          -1.2210   -3.6920    0.0000 C.ar    1  LIG1        0.0013
     24 C          -0.7210   -2.8290    0.0000 C.ar    1  LIG1        0.0162
@<TRIPOS>BOND
     1     1     2   ar
     2     1     5   ar
     3     1     9   ar
     4     2     3   ar
     5     2    17    1
     6     3     4   ar
     7     3    12    1
     8     4     5   ar
     9     5     6   ar
    10     6     7   ar
    11     7     8   ar
    12     7    11    1
    13     8     9   ar
    14     9    10    1
    15    12    13   ar
    16    12    16   ar
    17    13    14   ar
    18    14    15   ar
    19    15    16   ar
    20    17    18    1
    21    18    19   ar
    22    18    24   ar
    23    19    20    1
    24    19    21   ar
    25    21    22   ar
    26    22    23   ar
    27    23    24   ar
