@<TRIPOS>MOLECULE
37072_ChemDiv_K784-4856
 25 28 0 0 0
SMALL
GASTEIGER
Energy = 0

@<TRIPOS>ATOM
      1 C          -2.5750   -1.4830    0.0000 C.ar    1  LIG1        0.2543
      2 N          -2.5790   -0.4830    0.0000 N.ar    1  LIG1       -0.1986
      3 N          -1.6210   -0.1750    0.0000 N.ar    1  LIG1       -0.1367
      4 C          -1.0330   -0.9830    0.0000 C.ar    1  LIG1        0.2119
      5 N          -1.6210   -1.7960    0.0000 N.ar    1  LIG1       -0.1834
      6 S          -0.0170   -0.9830    0.0000 S.3     1  LIG1       -0.0675
      7 C           0.8460   -1.4830    0.0000 C.3     1  LIG1        0.1109
      8 C           1.7080   -0.9830    0.0000 C.ar    1  LIG1        0.0767
      9 N           1.7040    0.0170    0.0000 N.ar    1  LIG1       -0.2311
     10 C           2.5710    0.5040    0.0000 C.ar    1  LIG1        0.1496
     11 N           3.4330    0.0000    0.0000 N.ar    1  LIG1       -0.2572
     12 C           3.4290   -0.9830    0.0000 C.ar    1  LIG1        0.2671
     13 C           2.5670   -1.4830    0.0000 C.ar    1  LIG1        0.0767
     14 O           4.2790   -1.4960    0.0000 O.2     1  LIG1       -0.2665
     15 C           4.2960    0.4880    0.0000 C.ar    1  LIG1        0.0910
     16 C           4.3130    1.4960    0.0000 C.ar    1  LIG1        0.0523
     17 C           3.4500    2.0040    0.0000 C.ar    1  LIG1        0.0113
     18 C           2.5710    1.5040    0.0000 C.ar    1  LIG1        0.0380
     19 BR          5.1750    1.9960    0.0000 Br      1  LIG1       -0.0474
     20 C          -3.4540    0.0170    0.0000 C.ar    1  LIG1        0.0652
     21 C          -4.3040   -0.4830    0.0000 C.ar    1  LIG1        0.0297
     22 C          -4.3040   -1.5000    0.0000 C.ar    1  LIG1        0.0637
     23 N          -3.4420   -2.0000    0.0000 N.ar    1  LIG1       -0.2143
     24 C          -5.1790   -1.9920    0.0000 C.3     1  LIG1        0.0522
     25 C          -3.4540    1.0130    0.0000 C.3     1  LIG1        0.0523
@<TRIPOS>BOND
     1     1     2   ar
     2     1     5   ar
     3     1    23   ar
     4     2     3   ar
     5     2    20   ar
     6     3     4   ar
     7     4     5   ar
     8     4     6    1
     9     6     7    1
    10     7     8    1
    11     8     9   ar
    12     8    13   ar
    13     9    10   ar
    14    10    11   ar
    15    10    18   ar
    16    11    12   ar
    17    11    15   ar
    18    12    13   ar
    19    12    14    2
    20    15    16   ar
    21    16    17   ar
    22    16    19    1
    23    17    18   ar
    24    20    21   ar
    25    20    25    1
    26    21    22   ar
    27    22    23   ar
    28    22    24    1
