@<TRIPOS>MOLECULE
37071_ChemDiv_C325-0391
 24 27 0 0 0
SMALL
GASTEIGER
Energy = 0

@<TRIPOS>ATOM
      1 N          -0.0710    1.3250    0.0000 N.ar    1  LIG1       -0.2657
      2 C           0.7630    1.8080    0.0000 C.ar    1  LIG1        0.2373
      3 N           1.4830    1.1580    0.0000 N.ar    1  LIG1       -0.2077
      4 C           1.0880    0.2880    0.0000 C.ar    1  LIG1        0.1222
      5 C           0.1290    0.3790    0.0000 C.ar    1  LIG1        0.1572
      6 N          -1.2420   -0.1040    0.0000 N.pl3   1  LIG1       -0.1939
      7 C          -1.5790   -1.3710    0.0000 C.ar    1  LIG1        0.0721
      8 C          -0.8380   -1.9750    0.0000 C.ar    1  LIG1        0.0162
      9 C          -0.9920   -2.9210    0.0000 C.ar    1  LIG1       -0.0029
     10 C          -1.9040   -3.2710    0.0000 C.ar    1  LIG1       -0.0218
     11 C          -2.6420   -2.6500    0.0000 C.ar    1  LIG1       -0.0029
     12 C          -2.4790   -1.7040    0.0000 C.ar    1  LIG1        0.0162
     13 C          -2.0710   -4.2500    0.0000 C.3     1  LIG1        0.0310
     14 C           1.5290   -0.5830    0.0000 C.ar    1  LIG1        0.0500
     15 S           2.4790   -0.7250    0.0000 S.2     1  LIG1       -0.0848
     16 C           2.6380   -1.6880    0.0000 C.ar    1  LIG1        0.0355
     17 C           1.7710   -2.1250    0.0000 C.ar    1  LIG1        0.0075
     18 C           1.0880   -1.4460    0.0000 C.ar    1  LIG1        0.0086
     19 N           0.7630    2.7750    0.0000 N.ar    1  LIG1       -0.2154
     20 C          -0.0710    3.2580    0.0000 C.ar    1  LIG1        0.0636
     21 C          -0.9130    2.7750    0.0000 C.ar    1  LIG1        0.0280
     22 C          -0.9130    1.8080    0.0000 C.ar    1  LIG1        0.0469
     23 C          -1.7750    1.3080    0.0000 C.3     1  LIG1        0.0505
     24 C          -0.0710    4.2500    0.0000 C.3     1  LIG1        0.0522
@<TRIPOS>BOND
     1     1     2   ar
     2     1     5   ar
     3     1    22   ar
     4     2     3   ar
     5     2    19   ar
     6     3     4   ar
     7     4     5   ar
     8     4    14    1
     9     5     6    1
    10     6     7    1
    11     7     8   ar
    12     7    12   ar
    13     8     9   ar
    14     9    10   ar
    15    10    11   ar
    16    10    13    1
    17    11    12   ar
    18    14    15   ar
    19    14    18   ar
    20    15    16   ar
    21    16    17   ar
    22    17    18   ar
    23    19    20   ar
    24    20    21   ar
    25    20    24    1
    26    21    22   ar
    27    22    23    1
