@<TRIPOS>MOLECULE
37078_ChemDiv_C389-0706
 26 29 0 0 0
SMALL
GASTEIGER
Energy = 0

@<TRIPOS>ATOM
      1 N           1.7210    2.9670    0.0000 N.am    1  LIG1       -0.2586
      2 C           2.5380    3.5630    0.0000 C.2     1  LIG1        0.2294
      3 O           3.4830    3.2460    0.0000 O.2     1  LIG1       -0.2745
      4 C           2.2330    4.5170    0.0000 C.3     1  LIG1        0.0874
      5 C           1.2170    4.5170    0.0000 C.3     1  LIG1        0.0315
      6 C           0.9170    3.5710    0.0000 C.3     1  LIG1        0.0987
      7 C           1.7210    1.9670    0.0000 C.ar    1  LIG1        0.0538
      8 C           2.5960    1.4540    0.0000 C.ar    1  LIG1        0.0150
      9 C           2.5920    0.4670    0.0000 C.ar    1  LIG1        0.0058
     10 C           1.7040   -0.0170    0.0000 C.ar    1  LIG1        0.0537
     11 C           1.7040   -1.0210    0.0000 C.2     1  LIG1        0.2491
     12 N           0.8420   -1.5130    0.0000 N.am    1  LIG1       -0.2726
     13 C          -0.0290   -1.0170    0.0000 C.3     1  LIG1        0.1152
     14 C          -0.8920   -1.5130    0.0000 C.3     1  LIG1        0.1137
     15 N          -0.8830   -2.5000    0.0000 N.pl3   1  LIG1       -0.2897
     16 C          -1.7500   -3.0170    0.0000 C.ar    1  LIG1        0.1318
     17 N          -1.7500   -4.0170    0.0000 N.ar    1  LIG1       -0.2292
     18 C          -2.6210   -4.5170    0.0000 C.ar    1  LIG1        0.1003
     19 C          -3.4880   -4.0170    0.0000 C.ar    1  LIG1        0.0208
     20 C          -3.4880   -3.0290    0.0000 C.ar    1  LIG1        0.0045
     21 C          -2.6130   -2.5210    0.0000 C.ar    1  LIG1        0.0343
     22 C          -0.0250   -3.0130    0.0000 C.3     1  LIG1        0.1137
     23 C           0.8420   -2.5210    0.0000 C.3     1  LIG1        0.1152
     24 O           2.5830   -1.5290    0.0000 O.2     1  LIG1       -0.2699
     25 C           0.8670    0.4790    0.0000 C.ar    1  LIG1        0.0058
     26 C           0.8670    1.4670    0.0000 C.ar    1  LIG1        0.0150
@<TRIPOS>BOND
     1     1     2   am
     2     1     6    1
     3     1     7    1
     4     2     3    2
     5     2     4    1
     6     4     5    1
     7     5     6    1
     8     7     8   ar
     9     7    26   ar
    10     8     9   ar
    11     9    10   ar
    12    10    11    1
    13    10    25   ar
    14    11    12   am
    15    11    24    2
    16    12    13    1
    17    12    23    1
    18    13    14    1
    19    14    15    1
    20    15    16    1
    21    15    22    1
    22    16    17   ar
    23    16    21   ar
    24    17    18   ar
    25    18    19   ar
    26    19    20   ar
    27    20    21   ar
    28    22    23    1
    29    25    26   ar
