@<TRIPOS>MOLECULE
37079_ChemDiv_C351-0003
 18 20 0 0 0
SMALL
GASTEIGER
Energy = 0

@<TRIPOS>ATOM
      1 N          -0.5290    0.3290    0.0000 N.ar    1  LIG1       -0.3181
      2 C          -0.5290    1.3290    0.0000 C.ar    1  LIG1        0.1138
      3 C           0.2920    1.8790    0.0000 C.2     1  LIG1        0.2369
      4 N           0.2920    2.8750    0.0000 N.2     1  LIG1       -0.2326
      5 C           1.2460    3.1790    0.0000 C.3     1  LIG1        0.1759
      6 C           1.8380    2.3880    0.0000 C.3     1  LIG1        0.2334
      7 O           1.2460    1.5710    0.0000 O.2     1  LIG1       -0.4573
      8 C          -1.4790    1.6380    0.0000 C.ar    1  LIG1        0.0235
      9 C          -2.0670    0.8290    0.0000 C.ar    1  LIG1        0.0203
     10 C          -1.4790    0.0210    0.0000 C.ar    1  LIG1        0.0763
     11 C           0.3330   -0.1670    0.0000 C.3     1  LIG1        0.1337
     12 C           0.3330   -1.1670    0.0000 C.ar    1  LIG1        0.0110
     13 C           1.1960   -1.6670    0.0000 C.ar    1  LIG1        0.0555
     14 CL          2.0630   -1.1630    0.0000 Cl      1  LIG1       -0.0825
     15 C           1.1960   -2.6750    0.0000 C.ar    1  LIG1        0.0111
     16 C           0.3330   -3.1750    0.0000 C.ar    1  LIG1        0.0008
     17 C          -0.5420   -2.6750    0.0000 C.ar    1  LIG1       -0.0002
     18 C          -0.5420   -1.6670    0.0000 C.ar    1  LIG1       -0.0016
@<TRIPOS>BOND
     1     1     2   ar
     2     1    10   ar
     3     1    11    1
     4     2     3    1
     5     2     8   ar
     6     3     4    2
     7     3     7    1
     8     4     5    1
     9     5     6    1
    10     6     7    1
    11     8     9   ar
    12     9    10   ar
    13    11    12    1
    14    12    13   ar
    15    12    18   ar
    16    13    14    1
    17    13    15   ar
    18    15    16   ar
    19    16    17   ar
    20    17    18   ar
