@<TRIPOS>MOLECULE
37075_ChemDiv_C350-0079
 20 23 0 0 0
SMALL
GASTEIGER
Energy = 0

@<TRIPOS>ATOM
      1 C           0.3130   -0.0380    0.0000 C.ar    1  LIG1        0.0579
      2 C          -0.5580    0.4580    0.0000 C.ar    1  LIG1        0.1072
      3 N          -0.3460    1.4420    0.0000 N.ar    1  LIG1       -0.1479
      4 N           0.6460    1.5460    0.0000 N.ar    1  LIG1       -0.1479
      5 C           1.0630    0.6330    0.0000 C.ar    1  LIG1        0.1058
      6 C           2.0460    0.4750    0.0000 C.ar    1  LIG1        0.0195
      7 C           2.4000   -0.4540    0.0000 C.ar    1  LIG1        0.0016
      8 C           3.3920   -0.6210    0.0000 C.ar    1  LIG1        0.0000
      9 C           4.0170    0.1670    0.0000 C.ar    1  LIG1        0.0000
     10 C           3.6540    1.0920    0.0000 C.ar    1  LIG1        0.0000
     11 C           2.6670    1.2420    0.0000 C.ar    1  LIG1        0.0016
     12 C          -1.4250   -0.0380    0.0000 C.ar    1  LIG1        0.0368
     13 C          -1.4250   -1.0420    0.0000 C.ar    1  LIG1        0.0828
     14 N          -0.5580   -1.5420    0.0000 N.ar    1  LIG1       -0.2437
     15 C           0.3130   -1.0420    0.0000 C.ar    1  LIG1        0.1019
     16 C          -2.2880   -1.5420    0.0000 C.ar    1  LIG1        0.0188
     17 C          -3.1500   -1.0420    0.0000 C.ar    1  LIG1       -0.0027
     18 C          -3.1500   -0.0380    0.0000 C.ar    1  LIG1       -0.0217
     19 C          -2.2880    0.4580    0.0000 C.ar    1  LIG1       -0.0012
     20 C          -4.0210    0.4710    0.0000 C.3     1  LIG1        0.0310
@<TRIPOS>BOND
     1     1     2   ar
     2     1     5   ar
     3     1    15   ar
     4     2     3   ar
     5     2    12   ar
     6     3     4   ar
     7     4     5   ar
     8     5     6    1
     9     6     7   ar
    10     6    11   ar
    11     7     8   ar
    12     8     9   ar
    13     9    10   ar
    14    10    11   ar
    15    12    13   ar
    16    12    19   ar
    17    13    14   ar
    18    13    16   ar
    19    14    15   ar
    20    16    17   ar
    21    17    18   ar
    22    18    19   ar
    23    18    20    1
