@<TRIPOS>MOLECULE
37070_ChemDiv_K297-0124
 32 36 0 0 0
SMALL
GASTEIGER
Energy = 0

@<TRIPOS>ATOM
      1 N           2.5920   -4.2380    0.0000 N.ar    1  LIG1       -0.2577
      2 C           2.5880   -3.2380    0.0000 C.ar    1  LIG1        0.1496
      3 N           1.7130   -2.7540    0.0000 N.ar    1  LIG1       -0.2311
      4 C           0.8670   -3.2540    0.0000 C.ar    1  LIG1        0.0767
      5 C           0.8670   -4.2540    0.0000 C.ar    1  LIG1        0.0767
      6 C           1.7290   -4.7540    0.0000 C.ar    1  LIG1        0.2671
      7 O           1.7380   -5.7540    0.0000 O.2     1  LIG1       -0.2665
      8 C          -0.0040   -2.7630    0.0000 C.3     1  LIG1        0.1109
      9 S          -0.0130   -1.7670    0.0000 S.3     1  LIG1       -0.0692
     10 C          -0.8790   -1.2670    0.0000 C.ar    1  LIG1        0.1915
     11 N          -0.8670   -0.2420    0.0000 N.ar    1  LIG1       -0.2047
     12 C          -1.7380    0.2580    0.0000 C.ar    1  LIG1        0.1513
     13 C          -2.6000   -0.2710    0.0000 C.ar    1  LIG1        0.0508
     14 C          -2.6000   -1.2670    0.0000 C.ar    1  LIG1        0.0862
     15 N          -1.7420   -1.7670    0.0000 N.ar    1  LIG1       -0.2211
     16 C          -3.4670   -1.7670    0.0000 C.ar    1  LIG1        0.0193
     17 C          -4.3170   -1.2670    0.0000 C.ar    1  LIG1        0.0015
     18 C          -4.3330   -0.2670    0.0000 C.ar    1  LIG1        0.0002
     19 C          -3.4540    0.2330    0.0000 C.ar    1  LIG1        0.0043
     20 N          -1.7380    1.2580    0.0000 N.pl3   1  LIG1       -0.2153
     21 C          -0.8670    1.7580    0.0000 C.3     1  LIG1        0.1402
     22 C          -0.8670    2.7580    0.0000 C.ar    1  LIG1       -0.0006
     23 C           0.0040    3.2460    0.0000 C.ar    1  LIG1       -0.0017
     24 C           0.0040    4.2420    0.0000 C.ar    1  LIG1        0.0111
     25 C          -0.8580    4.7540    0.0000 C.ar    1  LIG1        0.0577
     26 CL         -0.8670    5.7540    0.0000 Cl      1  LIG1       -0.0822
     27 C          -1.7290    4.2420    0.0000 C.ar    1  LIG1        0.0111
     28 C          -1.7290    3.2460    0.0000 C.ar    1  LIG1       -0.0017
     29 C           3.4420   -2.7330    0.0000 C.ar    1  LIG1        0.0375
     30 C           4.3130   -3.2170    0.0000 C.ar    1  LIG1        0.0046
     31 C           4.3290   -4.2210    0.0000 C.ar    1  LIG1        0.0192
     32 C           3.4670   -4.7330    0.0000 C.ar    1  LIG1        0.0844
@<TRIPOS>BOND
     1     1     2   ar
     2     1     6   ar
     3     1    32   ar
     4     2     3   ar
     5     2    29   ar
     6     3     4   ar
     7     4     5   ar
     8     4     8    1
     9     5     6   ar
    10     6     7    2
    11     8     9    1
    12     9    10    1
    13    10    11   ar
    14    10    15   ar
    15    11    12   ar
    16    12    13   ar
    17    12    20    1
    18    13    14   ar
    19    13    19   ar
    20    14    15   ar
    21    14    16   ar
    22    16    17   ar
    23    17    18   ar
    24    18    19   ar
    25    20    21    1
    26    21    22    1
    27    22    23   ar
    28    22    28   ar
    29    23    24   ar
    30    24    25   ar
    31    25    26    1
    32    25    27   ar
    33    27    28   ar
    34    29    30   ar
    35    30    31   ar
    36    31    32   ar
