@<TRIPOS>MOLECULE
37081_ChemDiv_C351-0033
 25 28 0 0 0
SMALL
GASTEIGER
Energy = 0

@<TRIPOS>ATOM
      1 C          -0.6460    0.0290    0.0000 C.2     1  LIG1        0.2368
      2 C           0.3040    0.3290    0.0000 C.ar    1  LIG1        0.1138
      3 N           1.1170   -0.2580    0.0000 N.ar    1  LIG1       -0.3182
      4 C           1.9170    0.3290    0.0000 C.ar    1  LIG1        0.0763
      5 C           1.6130    1.2790    0.0000 C.ar    1  LIG1        0.0203
      6 C           0.6170    1.2790    0.0000 C.ar    1  LIG1        0.0235
      7 C           1.1170   -1.2540    0.0000 C.3     1  LIG1        0.1329
      8 C           1.9790   -1.7500    0.0000 C.ar    1  LIG1        0.0004
      9 C           1.9790   -2.7580    0.0000 C.ar    1  LIG1       -0.0027
     10 C           2.8460   -3.2540    0.0000 C.ar    1  LIG1       -0.0045
     11 C           3.7130   -2.7580    0.0000 C.ar    1  LIG1       -0.0219
     12 C           3.7130   -1.7500    0.0000 C.ar    1  LIG1       -0.0045
     13 C           2.8460   -1.2500    0.0000 C.ar    1  LIG1       -0.0027
     14 C           4.5830   -3.2540    0.0000 C.3     1  LIG1        0.0310
     15 N          -1.4580    0.6170    0.0000 N.2     1  LIG1       -0.2344
     16 C          -2.2670    0.0170    0.0000 C.3     1  LIG1        0.1543
     17 C          -1.9580   -0.9330    0.0000 C.3     1  LIG1        0.2316
     18 O          -0.9540   -0.9330    0.0000 O.2     1  LIG1       -0.4573
     19 C          -3.2130    0.3290    0.0000 C.3     1  LIG1        0.0546
     20 C          -3.4250    1.3080    0.0000 C.ar    1  LIG1       -0.0201
     21 C          -2.6830    1.9710    0.0000 C.ar    1  LIG1       -0.0042
     22 C          -2.8920    2.9540    0.0000 C.ar    1  LIG1       -0.0003
     23 C          -3.8420    3.2580    0.0000 C.ar    1  LIG1       -0.0000
     24 C          -4.5880    2.5830    0.0000 C.ar    1  LIG1       -0.0003
     25 C          -4.3750    1.6130    0.0000 C.ar    1  LIG1       -0.0042
@<TRIPOS>BOND
     1     1     2    1
     2     1    15    2
     3     1    18    1
     4     2     3   ar
     5     2     6   ar
     6     3     4   ar
     7     3     7    1
     8     4     5   ar
     9     5     6   ar
    10     7     8    1
    11     8     9   ar
    12     8    13   ar
    13     9    10   ar
    14    10    11   ar
    15    11    12   ar
    16    11    14    1
    17    12    13   ar
    18    15    16    1
    19    16    17    1
    20    16    19    1
    21    17    18    1
    22    19    20    1
    23    20    21   ar
    24    20    25   ar
    25    21    22   ar
    26    22    23   ar
    27    23    24   ar
    28    24    25   ar
