@<TRIPOS>MOLECULE
37089_ChemDiv_C325-0276
 24 27 0 0 0
SMALL
GASTEIGER
Energy = 0

@<TRIPOS>ATOM
      1 N           0.6670    0.2540    0.0000 N.ar    1  LIG1       -0.2656
      2 C           1.5290    0.7500    0.0000 C.ar    1  LIG1        0.2374
      3 N           2.2750    0.0750    0.0000 N.ar    1  LIG1       -0.2051
      4 C           1.8790   -0.8380    0.0000 C.ar    1  LIG1        0.1506
      5 C           0.8790   -0.7380    0.0000 C.ar    1  LIG1        0.1598
      6 N           0.2210   -1.4880    0.0000 N.pl3   1  LIG1       -0.1938
      7 C          -0.7580   -1.2920    0.0000 C.ar    1  LIG1        0.0721
      8 C          -1.0750   -0.3420    0.0000 C.ar    1  LIG1        0.0162
      9 C          -2.0500   -0.1500    0.0000 C.ar    1  LIG1       -0.0029
     10 C          -2.7130   -0.9000    0.0000 C.ar    1  LIG1       -0.0218
     11 C          -2.3880   -1.8460    0.0000 C.ar    1  LIG1       -0.0029
     12 C          -1.4130   -2.0420    0.0000 C.ar    1  LIG1        0.0162
     13 C          -3.6880   -0.7040    0.0000 C.3     1  LIG1        0.0310
     14 C           2.4250   -1.6790    0.0000 C.ar    1  LIG1        0.1659
     15 O           3.4210   -1.7330    0.0000 O.2     1  LIG1       -0.4488
     16 C           3.6830   -2.7000    0.0000 C.ar    1  LIG1        0.1797
     17 C           2.8420   -3.2460    0.0000 C.ar    1  LIG1        0.0438
     18 C           2.0630   -2.6130    0.0000 C.ar    1  LIG1        0.0424
     19 N           1.5290    1.7460    0.0000 N.ar    1  LIG1       -0.2154
     20 C           0.6670    2.2540    0.0000 C.ar    1  LIG1        0.0636
     21 C          -0.2040    1.7460    0.0000 C.ar    1  LIG1        0.0280
     22 C          -0.2040    0.7500    0.0000 C.ar    1  LIG1        0.0469
     23 C          -1.0670    0.2500    0.0000 C.3     1  LIG1        0.0505
     24 C           0.6710    3.2500    0.0000 C.3     1  LIG1        0.0522
@<TRIPOS>BOND
     1     1     2   ar
     2     1     5   ar
     3     1    22   ar
     4     2     3   ar
     5     2    19   ar
     6     3     4   ar
     7     4     5   ar
     8     4    14    1
     9     5     6    1
    10     6     7    1
    11     7     8   ar
    12     7    12   ar
    13     8     9   ar
    14     9    10   ar
    15    10    11   ar
    16    10    13    1
    17    11    12   ar
    18    14    15   ar
    19    14    18   ar
    20    15    16   ar
    21    16    17   ar
    22    17    18   ar
    23    19    20   ar
    24    20    21   ar
    25    20    24    1
    26    21    22   ar
    27    22    23    1
