@<TRIPOS>MOLECULE
37088_ChemDiv_D174-0656
 33 36 0 0 0
SMALL
GASTEIGER
Energy = 0

@<TRIPOS>ATOM
      1 C          -1.8540    0.3540    0.0000 C.ar    1  LIG1        0.1555
      2 C          -1.3960   -0.5380    0.0000 C.ar    1  LIG1        0.0433
      3 C          -2.1040   -1.2460    0.0000 C.ar    1  LIG1        0.1054
      4 N          -2.9920   -0.7830    0.0000 N.ar    1  LIG1       -0.1480
      5 N          -2.8380    0.1920    0.0000 N.ar    1  LIG1       -0.1436
      6 C          -1.9420   -2.2330    0.0000 C.ar    1  LIG1        0.0581
      7 C          -2.7130   -2.8420    0.0000 C.ar    1  LIG1        0.1971
      8 O          -3.6500   -2.5000    0.0000 O.3     1  LIG1       -0.2865
      9 C          -2.5580   -3.8290    0.0000 C.ar    1  LIG1        0.0421
     10 C          -1.6330   -4.1960    0.0000 C.ar    1  LIG1        0.0033
     11 C          -0.8460   -3.5670    0.0000 C.ar    1  LIG1        0.0003
     12 C          -1.0130   -2.5790    0.0000 C.ar    1  LIG1        0.0047
     13 C          -0.4330   -0.3880    0.0000 C.3     1  LIG1        0.1240
     14 N          -0.2670    0.6000    0.0000 N.am    1  LIG1       -0.2687
     15 C          -1.1460    1.0420    0.0000 C.2     1  LIG1        0.2688
     16 O          -1.3130    2.0380    0.0000 O.2     1  LIG1       -0.2682
     17 C           0.6210    1.0500    0.0000 C.3     1  LIG1        0.0969
     18 C           0.6630    2.0540    0.0000 C.3     1  LIG1        0.0536
     19 C           1.5580    2.5040    0.0000 C.3     1  LIG1        0.1439
     20 O           1.6080    3.4920    0.0000 O.3     1  LIG1       -0.3537
     21 C           2.4880    3.9420    0.0000 C.3     1  LIG1        0.1422
     22 C           2.5460    4.9250    0.0000 C.3     1  LIG1        0.0346
     23 C           0.2750   -1.0960    0.0000 C.ar    1  LIG1        0.0032
     24 C           1.2420   -0.8250    0.0000 C.ar    1  LIG1        0.0377
     25 C           1.9500   -1.5330    0.0000 C.ar    1  LIG1        0.1721
     26 C           1.6960   -2.5130    0.0000 C.ar    1  LIG1        0.1722
     27 C           0.7290   -2.7710    0.0000 C.ar    1  LIG1        0.0398
     28 C           0.0210   -2.0630    0.0000 C.ar    1  LIG1        0.0010
     29 O           2.4170   -3.2290    0.0000 O.3     1  LIG1       -0.4724
     30 C           2.1460   -4.2080    0.0000 C.3     1  LIG1        0.2057
     31 C           2.8750   -4.9250    0.0000 C.3     1  LIG1        0.0512
     32 O           2.9330   -1.2670    0.0000 O.3     1  LIG1       -0.4684
     33 C           3.6460   -1.9830    0.0000 C.3     1  LIG1        0.2526
@<TRIPOS>BOND
     1     1     2   ar
     2     1     5   ar
     3     1    15    1
     4     2     3   ar
     5     2    13    1
     6     3     4   ar
     7     3     6    1
     8     4     5   ar
     9     6     7   ar
    10     6    12   ar
    11     7     8    1
    12     7     9   ar
    13     9    10   ar
    14    10    11   ar
    15    11    12   ar
    16    13    14    1
    17    13    23    1
    18    14    15   am
    19    14    17    1
    20    15    16    2
    21    17    18    1
    22    18    19    1
    23    19    20    1
    24    20    21    1
    25    21    22    1
    26    23    24   ar
    27    23    28   ar
    28    24    25   ar
    29    25    26   ar
    30    25    32    1
    31    26    27   ar
    32    26    29    1
    33    27    28   ar
    34    29    30    1
    35    30    31    1
    36    32    33    1
