@<TRIPOS>MOLECULE
37080_ChemDiv_C390-0219
 32 36 0 0 0
SMALL
GASTEIGER
Energy = 0

@<TRIPOS>ATOM
      1 C          -1.7880    1.9460    0.0000 C.ar    1  LIG1        0.1559
      2 C          -1.7750    0.9460    0.0000 C.ar    1  LIG1        0.0435
      3 C          -0.8130    0.6420    0.0000 C.3     1  LIG1        0.1283
      4 N          -0.2420    1.4750    0.0000 N.am    1  LIG1       -0.2477
      5 C          -0.8420    2.2670    0.0000 C.2     1  LIG1        0.2725
      6 O          -0.5420    3.2170    0.0000 O.2     1  LIG1       -0.2678
      7 C           0.7580    1.4880    0.0000 C.ar    1  LIG1        0.0547
      8 C           1.2710    0.6250    0.0000 C.ar    1  LIG1        0.0150
      9 C           2.2710    0.6420    0.0000 C.ar    1  LIG1        0.0024
     10 C           2.7580    1.5170    0.0000 C.ar    1  LIG1        0.0141
     11 C           3.7540    1.5460    0.0000 C.2     1  LIG1        0.0729
     12 O           4.2420    2.4170    0.0000 O.co2   1  LIG1       -0.5446
     13 O           4.2750    0.6830    0.0000 O.co2   1  LIG1       -0.5446
     14 C           2.2290    2.3830    0.0000 C.ar    1  LIG1        0.0024
     15 C           1.2330    2.3540    0.0000 C.ar    1  LIG1        0.0150
     16 C          -0.4830   -0.3000    0.0000 C.ar    1  LIG1        0.0035
     17 C           0.4960   -0.4830    0.0000 C.ar    1  LIG1        0.0397
     18 C           0.8290   -1.4250    0.0000 C.ar    1  LIG1        0.1955
     19 O           1.8000   -1.6080    0.0000 O.3     1  LIG1       -0.2866
     20 C           0.1630   -2.1790    0.0000 C.ar    1  LIG1        0.0420
     21 C          -0.8130   -2.0000    0.0000 C.ar    1  LIG1        0.0030
     22 C          -1.1380   -1.0540    0.0000 C.ar    1  LIG1       -0.0021
     23 C          -2.7170    0.6130    0.0000 C.ar    1  LIG1        0.1024
     24 N          -3.3210    1.4080    0.0000 N.ar    1  LIG1       -0.1481
     25 N          -2.7460    2.2290    0.0000 N.ar    1  LIG1       -0.1436
     26 C          -3.0080   -0.3460    0.0000 C.ar    1  LIG1        0.0192
     27 C          -2.3330   -1.0710    0.0000 C.ar    1  LIG1        0.0012
     28 C          -2.6210   -2.0250    0.0000 C.ar    1  LIG1       -0.0042
     29 C          -3.5960   -2.2540    0.0000 C.ar    1  LIG1       -0.0218
     30 C          -4.2790   -1.5130    0.0000 C.ar    1  LIG1       -0.0042
     31 C          -3.9880   -0.5580    0.0000 C.ar    1  LIG1        0.0012
     32 C          -3.8920   -3.2130    0.0000 C.3     1  LIG1        0.0310
@<TRIPOS>BOND
     1     1     2   ar
     2     1     5    1
     3     1    25   ar
     4     2     3    1
     5     2    23   ar
     6     3     4    1
     7     3    16    1
     8     4     5   am
     9     4     7    1
    10     5     6    2
    11     7     8   ar
    12     7    15   ar
    13     8     9   ar
    14     9    10   ar
    15    10    11    1
    16    10    14   ar
    17    11    12   ar
    18    11    13   ar
    19    14    15   ar
    20    16    17   ar
    21    16    22   ar
    22    17    18   ar
    23    18    19    1
    24    18    20   ar
    25    20    21   ar
    26    21    22   ar
    27    23    24   ar
    28    23    26    1
    29    24    25   ar
    30    26    27   ar
    31    26    31   ar
    32    27    28   ar
    33    28    29   ar
    34    29    30   ar
    35    29    32    1
    36    30    31   ar
