@<TRIPOS>MOLECULE
37084_ChemDiv_D126-0782
 41 45 0 0 0
SMALL
GASTEIGER
Energy = 0

@<TRIPOS>ATOM
      1 C          -1.4040   -2.6960    0.0000 C.ar    1  LIG1        0.1555
      2 C          -1.7170   -1.7250    0.0000 C.ar    1  LIG1        0.0433
      3 C          -2.7170   -1.7250    0.0000 C.ar    1  LIG1        0.1054
      4 N          -3.0330   -2.6670    0.0000 N.ar    1  LIG1       -0.1480
      5 N          -2.2290   -3.2750    0.0000 N.ar    1  LIG1       -0.1436
      6 C          -3.7130   -1.5040    0.0000 C.ar    1  LIG1        0.0578
      7 C          -4.3960   -2.2460    0.0000 C.ar    1  LIG1        0.1971
      8 C          -5.3920   -2.0290    0.0000 C.ar    1  LIG1        0.0418
      9 C          -5.6960   -1.0500    0.0000 C.ar    1  LIG1       -0.0010
     10 C          -5.0040   -0.3080    0.0000 C.ar    1  LIG1       -0.0216
     11 C          -4.0080   -0.5290    0.0000 C.ar    1  LIG1        0.0005
     12 C          -5.2960    0.6580    0.0000 C.3     1  LIG1        0.0310
     13 O          -4.1000   -3.2210    0.0000 O.3     1  LIG1       -0.2865
     14 C          -0.8920   -1.1540    0.0000 C.3     1  LIG1        0.1241
     15 N          -0.0880   -1.7420    0.0000 N.am    1  LIG1       -0.2684
     16 C          -0.4040   -2.7040    0.0000 C.2     1  LIG1        0.2688
     17 O           0.1790   -3.5290    0.0000 O.2     1  LIG1       -0.2682
     18 C           0.8710   -1.4380    0.0000 C.3     1  LIG1        0.0990
     19 C           1.0920   -0.4460    0.0000 C.3     1  LIG1        0.0480
     20 C           2.0580   -0.1420    0.0000 C.ar    1  LIG1       -0.0173
     21 C           2.2710    0.8380    0.0000 C.ar    1  LIG1        0.0358
     22 C           3.2290    1.1380    0.0000 C.ar    1  LIG1        0.1721
     23 C           3.9790    0.4540    0.0000 C.ar    1  LIG1        0.1724
     24 C           3.7580   -0.5290    0.0000 C.ar    1  LIG1        0.0397
     25 C           2.8000   -0.8330    0.0000 C.ar    1  LIG1       -0.0009
     26 O           4.9380    0.7580    0.0000 O.3     1  LIG1       -0.4684
     27 C           5.6920    0.0790    0.0000 C.3     1  LIG1        0.2526
     28 O           3.4500    2.1330    0.0000 O.3     1  LIG1       -0.4684
     29 C           4.4000    2.4380    0.0000 C.3     1  LIG1        0.2526
     30 C          -0.8750   -0.1420    0.0000 C.ar    1  LIG1        0.0062
     31 C          -1.7000    0.3460    0.0000 C.ar    1  LIG1        0.0379
     32 C          -1.6830    1.2920    0.0000 C.ar    1  LIG1        0.1752
     33 C          -0.8580    1.7670    0.0000 C.ar    1  LIG1        0.2060
     34 C          -0.0380    1.2790    0.0000 C.ar    1  LIG1        0.1752
     35 C          -0.0380    0.3290    0.0000 C.ar    1  LIG1        0.0379
     36 O           0.4880    1.9380    0.0000 O.3     1  LIG1       -0.4683
     37 C           0.5040    2.8580    0.0000 C.3     1  LIG1        0.2526
     38 O          -0.8420    2.7420    0.0000 O.3     1  LIG1       -0.4654
     39 C          -1.8210    3.5330    0.0000 C.3     1  LIG1        0.2528
     40 O          -2.5250    1.7830    0.0000 O.3     1  LIG1       -0.4683
     41 C          -2.5080    2.7580    0.0000 C.3     1  LIG1        0.2526
@<TRIPOS>BOND
     1     1     2   ar
     2     1     5   ar
     3     1    16    1
     4     2     3   ar
     5     2    14    1
     6     3     4   ar
     7     3     6    1
     8     4     5   ar
     9     6     7   ar
    10     6    11   ar
    11     7     8   ar
    12     7    13    1
    13     8     9   ar
    14     9    10   ar
    15    10    11   ar
    16    10    12    1
    17    14    15    1
    18    14    30    1
    19    15    16   am
    20    15    18    1
    21    16    17    2
    22    18    19    1
    23    19    20    1
    24    20    21   ar
    25    20    25   ar
    26    21    22   ar
    27    22    23   ar
    28    22    28    1
    29    23    24   ar
    30    23    26    1
    31    24    25   ar
    32    26    27    1
    33    28    29    1
    34    30    31   ar
    35    30    35   ar
    36    31    32   ar
    37    32    33   ar
    38    32    40    1
    39    33    34   ar
    40    33    38    1
    41    34    35   ar
    42    34    36    1
    43    36    37    1
    44    38    39    1
    45    40    41    1
