@<TRIPOS>MOLECULE
37082_ChemDiv_D074-0177
 33 36 0 0 0
SMALL
GASTEIGER
Energy = 0

@<TRIPOS>ATOM
      1 C          -0.3580   -3.8500    0.0000 C.ar    1  LIG1        0.1555
      2 C          -0.6540   -2.8920    0.0000 C.ar    1  LIG1        0.0433
      3 C          -1.6420   -2.8790    0.0000 C.ar    1  LIG1        0.1054
      4 N          -1.9750   -3.8210    0.0000 N.ar    1  LIG1       -0.1480
      5 N          -1.1710   -4.4250    0.0000 N.ar    1  LIG1       -0.1436
      6 C          -2.5250   -2.4170    0.0000 C.ar    1  LIG1        0.0581
      7 C          -3.3630   -2.9380    0.0000 C.ar    1  LIG1        0.1971
      8 O          -3.3290   -3.9420    0.0000 O.3     1  LIG1       -0.2865
      9 C          -4.2460   -2.4750    0.0000 C.ar    1  LIG1        0.0421
     10 C          -4.2880   -1.4750    0.0000 C.ar    1  LIG1        0.0033
     11 C          -3.4380   -0.9420    0.0000 C.ar    1  LIG1        0.0003
     12 C          -2.5540   -1.4130    0.0000 C.ar    1  LIG1        0.0047
     13 C           0.1670   -2.3250    0.0000 C.3     1  LIG1        0.1240
     14 N           0.9540   -2.9210    0.0000 N.am    1  LIG1       -0.2687
     15 C           0.6380   -3.8750    0.0000 C.2     1  LIG1        0.2688
     16 O           1.2130   -4.6830    0.0000 O.2     1  LIG1       -0.2682
     17 C           1.9080   -2.6330    0.0000 C.3     1  LIG1        0.0969
     18 C           2.1250   -1.6630    0.0000 C.3     1  LIG1        0.0536
     19 C           3.0920   -1.3710    0.0000 C.3     1  LIG1        0.1440
     20 O           3.3250   -0.4130    0.0000 O.3     1  LIG1       -0.3510
     21 C           4.2830   -0.1290    0.0000 C.3     1  LIG1        0.1741
     22 C           0.1920   -1.3290    0.0000 C.ar    1  LIG1        0.0030
     23 C          -0.6710   -0.8130    0.0000 C.ar    1  LIG1        0.0346
     24 C          -0.6540    0.1920    0.0000 C.ar    1  LIG1        0.1383
     25 O          -1.5210    0.6920    0.0000 O.3     1  LIG1       -0.4755
     26 C          -1.5040    1.6960    0.0000 C.3     1  LIG1        0.2054
     27 C          -0.6290    2.1960    0.0000 C.3     1  LIG1        0.0473
     28 C          -0.6250    3.1920    0.0000 C.3     1  LIG1        0.0038
     29 C           0.2540    3.6880    0.0000 C.3     1  LIG1        0.0001
     30 C           0.2670    4.6830    0.0000 C.3     1  LIG1        0.0000
     31 C           0.2250    0.6790    0.0000 C.ar    1  LIG1        0.0369
     32 C           1.0880    0.1630    0.0000 C.ar    1  LIG1        0.0029
     33 C           1.0710   -0.8420    0.0000 C.ar    1  LIG1       -0.0021
@<TRIPOS>BOND
     1     1     2   ar
     2     1     5   ar
     3     1    15    1
     4     2     3   ar
     5     2    13    1
     6     3     4   ar
     7     3     6    1
     8     4     5   ar
     9     6     7   ar
    10     6    12   ar
    11     7     8    1
    12     7     9   ar
    13     9    10   ar
    14    10    11   ar
    15    11    12   ar
    16    13    14    1
    17    13    22    1
    18    14    15   am
    19    14    17    1
    20    15    16    2
    21    17    18    1
    22    18    19    1
    23    19    20    1
    24    20    21    1
    25    22    23   ar
    26    22    33   ar
    27    23    24   ar
    28    24    25    1
    29    24    31   ar
    30    25    26    1
    31    26    27    1
    32    27    28    1
    33    28    29    1
    34    29    30    1
    35    31    32   ar
    36    32    33   ar
