@<TRIPOS>MOLECULE
37083_ChemDiv_C351-0132
 22 24 0 0 0
SMALL
GASTEIGER
Energy = 0

@<TRIPOS>ATOM
      1 C          -0.9000    1.5460    0.0000 C.2     1  LIG1        0.2368
      2 C          -1.8500    1.2330    0.0000 C.ar    1  LIG1        0.1138
      3 N          -2.1580    0.2790    0.0000 N.ar    1  LIG1       -0.3182
      4 C          -3.1630    0.2790    0.0000 C.ar    1  LIG1        0.0763
      5 C          -3.4750    1.2330    0.0000 C.ar    1  LIG1        0.0203
      6 C          -2.6580    1.8210    0.0000 C.ar    1  LIG1        0.0235
      7 C          -1.5790   -0.5250    0.0000 C.3     1  LIG1        0.1329
      8 C          -2.0790   -1.3960    0.0000 C.ar    1  LIG1        0.0004
      9 C          -3.0790   -1.3960    0.0000 C.ar    1  LIG1       -0.0027
     10 C          -3.5710   -2.2580    0.0000 C.ar    1  LIG1       -0.0045
     11 C          -3.0630   -3.1250    0.0000 C.ar    1  LIG1       -0.0219
     12 C          -2.0630   -3.1250    0.0000 C.ar    1  LIG1       -0.0045
     13 C          -1.5670   -2.2540    0.0000 C.ar    1  LIG1       -0.0027
     14 C          -3.5630   -4.0000    0.0000 C.3     1  LIG1        0.0310
     15 N          -0.5920    2.4920    0.0000 N.2     1  LIG1       -0.2348
     16 C           0.4130    2.4880    0.0000 C.3     1  LIG1        0.1500
     17 C           0.7250    1.5380    0.0000 C.3     1  LIG1        0.2313
     18 O          -0.0920    0.9540    0.0000 O.2     1  LIG1       -0.4574
     19 C           1.0000    3.2960    0.0000 C.3     1  LIG1        0.0283
     20 C           1.9880    3.2000    0.0000 C.3     1  LIG1        0.0021
     21 C           2.5790    4.0000    0.0000 C.3     1  LIG1        0.0001
     22 C           3.5670    3.9040    0.0000 C.3     1  LIG1        0.0000
@<TRIPOS>BOND
     1     1     2    1
     2     1    15    2
     3     1    18    1
     4     2     3   ar
     5     2     6   ar
     6     3     4   ar
     7     3     7    1
     8     4     5   ar
     9     5     6   ar
    10     7     8    1
    11     8     9   ar
    12     8    13   ar
    13     9    10   ar
    14    10    11   ar
    15    11    12   ar
    16    11    14    1
    17    12    13   ar
    18    15    16    1
    19    16    17    1
    20    16    19    1
    21    17    18    1
    22    19    20    1
    23    20    21    1
    24    21    22    1
