@<TRIPOS>MOLECULE
37091_ChemDiv_C325-0284
 28 32 0 0 0
SMALL
GASTEIGER
Energy = 0

@<TRIPOS>ATOM
      1 N           1.1500    0.7710    0.0000 N.ar    1  LIG1       -0.2656
      2 C           2.0250    1.2540    0.0000 C.ar    1  LIG1        0.2374
      3 N           2.7460    0.5830    0.0000 N.ar    1  LIG1       -0.2051
      4 C           2.3420   -0.3250    0.0000 C.ar    1  LIG1        0.1506
      5 C           1.3460   -0.2080    0.0000 C.ar    1  LIG1        0.1598
      6 N           0.4790   -0.7040    0.0000 N.pl3   1  LIG1       -0.1937
      7 C          -0.5250   -0.7040    0.0000 C.ar    1  LIG1        0.0754
      8 C          -1.0250    0.1670    0.0000 C.ar    1  LIG1        0.0566
      9 C          -2.0210    0.1670    0.0000 C.ar    1  LIG1        0.1737
     10 C          -2.5210   -0.7040    0.0000 C.ar    1  LIG1        0.1725
     11 O          -3.5330   -0.7040    0.0000 O.3     1  LIG1       -0.4684
     12 C          -4.0290    0.1670    0.0000 C.3     1  LIG1        0.2526
     13 C          -3.5330    1.0330    0.0000 C.3     1  LIG1        0.2526
     14 O          -2.5330    1.0330    0.0000 O.3     1  LIG1       -0.4683
     15 C          -2.0210   -1.5670    0.0000 C.ar    1  LIG1        0.0414
     16 C          -1.0250   -1.5670    0.0000 C.ar    1  LIG1        0.0199
     17 C           2.8250   -1.2000    0.0000 C.ar    1  LIG1        0.1652
     18 O           2.4000   -2.1130    0.0000 O.2     1  LIG1       -0.4561
     19 C           3.1420   -2.7880    0.0000 C.ar    1  LIG1        0.1234
     20 C           4.0250   -2.2830    0.0000 C.ar    1  LIG1        0.0361
     21 C           3.8170   -1.3130    0.0000 C.ar    1  LIG1        0.0419
     22 C           3.0290   -3.7710    0.0000 C.3     1  LIG1        0.0725
     23 N           2.0380    2.2500    0.0000 N.ar    1  LIG1       -0.2154
     24 C           1.1960    2.7750    0.0000 C.ar    1  LIG1        0.0636
     25 C           0.3210    2.2960    0.0000 C.ar    1  LIG1        0.0280
     26 C           0.2880    1.2880    0.0000 C.ar    1  LIG1        0.0469
     27 C          -0.5790    0.8170    0.0000 C.3     1  LIG1        0.0505
     28 C           1.2250    3.7750    0.0000 C.3     1  LIG1        0.0522
@<TRIPOS>BOND
     1     1     2   ar
     2     1     5   ar
     3     1    26   ar
     4     2     3   ar
     5     2    23   ar
     6     3     4   ar
     7     4     5   ar
     8     4    17    1
     9     5     6    1
    10     6     7    1
    11     7     8   ar
    12     7    16   ar
    13     8     9   ar
    14     9    10   ar
    15     9    14    1
    16    10    11    1
    17    10    15   ar
    18    11    12    1
    19    12    13    1
    20    13    14    1
    21    15    16   ar
    22    17    18   ar
    23    17    21   ar
    24    18    19   ar
    25    19    20   ar
    26    19    22    1
    27    20    21   ar
    28    23    24   ar
    29    24    25   ar
    30    24    28    1
    31    25    26   ar
    32    26    27    1
