@<TRIPOS>MOLECULE
37099_ChemDiv_C325-0331
 21 23 0 0 0
SMALL
GASTEIGER
Energy = 0

@<TRIPOS>ATOM
      1 N          -0.3920    0.7750    0.0000 N.ar    1  LIG1       -0.2659
      2 C           0.4710    1.2750    0.0000 C.ar    1  LIG1        0.2374
      3 N           1.2130    0.6000    0.0000 N.ar    1  LIG1       -0.2051
      4 C           0.8130   -0.2960    0.0000 C.ar    1  LIG1        0.1503
      5 C          -0.1790   -0.1960    0.0000 C.ar    1  LIG1        0.1554
      6 N          -0.8460   -0.9460    0.0000 N.pl3   1  LIG1       -0.2218
      7 C          -1.8290   -0.7380    0.0000 C.3     1  LIG1        0.0942
      8 C          -2.4830   -1.4880    0.0000 C.3     1  LIG1        0.0234
      9 C          -2.1420    0.2000    0.0000 C.3     1  LIG1        0.0234
     10 C           1.2670   -1.1920    0.0000 C.ar    1  LIG1        0.1652
     11 O           0.8540   -2.1000    0.0000 O.2     1  LIG1       -0.4561
     12 C           1.6000   -2.7710    0.0000 C.ar    1  LIG1        0.1234
     13 C           2.4790   -2.2710    0.0000 C.ar    1  LIG1        0.0361
     14 C           2.2670   -1.2960    0.0000 C.ar    1  LIG1        0.0419
     15 C           1.4880   -3.7670    0.0000 C.3     1  LIG1        0.0725
     16 N           0.4710    2.2750    0.0000 N.ar    1  LIG1       -0.2154
     17 C          -0.3920    2.7790    0.0000 C.ar    1  LIG1        0.0636
     18 C          -1.2630    2.2710    0.0000 C.ar    1  LIG1        0.0280
     19 C          -1.2630    1.2750    0.0000 C.ar    1  LIG1        0.0469
     20 C          -2.1290    0.7670    0.0000 C.3     1  LIG1        0.0505
     21 C          -0.3920    3.7710    0.0000 C.3     1  LIG1        0.0522
@<TRIPOS>BOND
     1     1     2   ar
     2     1     5   ar
     3     1    19   ar
     4     2     3   ar
     5     2    16   ar
     6     3     4   ar
     7     4     5   ar
     8     4    10    1
     9     5     6    1
    10     6     7    1
    11     7     8    1
    12     7     9    1
    13    10    11   ar
    14    10    14   ar
    15    11    12   ar
    16    12    13   ar
    17    12    15    1
    18    13    14   ar
    19    16    17   ar
    20    17    18   ar
    21    17    21    1
    22    18    19   ar
    23    19    20    1
