@<TRIPOS>MOLECULE
37094_ChemDiv_C445-0244
 39 43 0 0 0
SMALL
GASTEIGER
Energy = 0

@<TRIPOS>ATOM
      1 N          -0.4460   -0.4380    0.0000 N.ar    1  LIG1       -0.1881
      2 C          -1.3210    0.0920    0.0000 C.ar    1  LIG1        0.1688
      3 C          -2.1880   -0.4380    0.0000 C.ar    1  LIG1        0.0569
      4 C          -2.1880   -1.4330    0.0000 C.ar    1  LIG1        0.0896
      5 N          -1.3210   -1.9290    0.0000 N.ar    1  LIG1       -0.2209
      6 C          -0.4580   -1.4330    0.0000 C.ar    1  LIG1        0.1931
      7 S           0.4250   -1.9460    0.0000 S.3     1  LIG1       -0.0657
      8 C           0.4250   -2.9420    0.0000 C.3     1  LIG1        0.1516
      9 C           1.2880   -3.4540    0.0000 C.2     1  LIG1        0.2531
     10 N           2.1500   -2.9420    0.0000 N.am    1  LIG1       -0.1998
     11 C           3.0170   -3.4380    0.0000 C.3     1  LIG1        0.1423
     12 C           3.8830   -2.9330    0.0000 C.ar    1  LIG1        0.0100
     13 C           4.7540   -3.4290    0.0000 C.ar    1  LIG1        0.0554
     14 CL          4.7580   -4.4290    0.0000 Cl      1  LIG1       -0.0825
     15 C           5.6170   -2.9250    0.0000 C.ar    1  LIG1        0.0111
     16 C           5.6000   -1.9210    0.0000 C.ar    1  LIG1        0.0008
     17 C           4.7290   -1.4330    0.0000 C.ar    1  LIG1       -0.0002
     18 C           3.8710   -1.9380    0.0000 C.ar    1  LIG1       -0.0017
     19 O           1.2830   -4.4460    0.0000 O.2     1  LIG1       -0.2724
     20 C          -3.0380   -1.9290    0.0000 C.ar    1  LIG1        0.0593
     21 C          -3.9170   -1.4330    0.0000 C.ar    1  LIG1        0.1739
     22 C          -3.9000   -0.4380    0.0000 C.ar    1  LIG1        0.1726
     23 C          -3.0380    0.0750    0.0000 C.ar    1  LIG1        0.0446
     24 O          -4.7580    0.0750    0.0000 O.3     1  LIG1       -0.4684
     25 C          -5.6210   -0.4210    0.0000 C.3     1  LIG1        0.2526
     26 O          -4.7750   -1.9130    0.0000 O.3     1  LIG1       -0.4683
     27 C          -4.7750   -2.9080    0.0000 C.3     1  LIG1        0.2526
     28 N          -1.0880    1.0580    0.0000 N.ar    1  LIG1       -0.2100
     29 C          -0.1000    1.1460    0.0000 C.ar    1  LIG1        0.1628
     30 N           0.3040    0.2420    0.0000 N.ar    1  LIG1       -0.1470
     31 C           0.4080    2.0250    0.0000 C.3     1  LIG1        0.0939
     32 C           1.4080    2.0080    0.0000 C.3     1  LIG1        0.1351
     33 N           1.9210    2.8670    0.0000 N.ar    1  LIG1       -0.2548
     34 N           2.9170    2.9580    0.0000 N.ar    1  LIG1       -0.1740
     35 C           3.1460    3.9380    0.0000 C.ar    1  LIG1        0.0801
     36 C           2.2880    4.4460    0.0000 C.ar    1  LIG1        0.0308
     37 C           1.5290    3.7920    0.0000 C.ar    1  LIG1        0.0571
     38 C           0.5580    4.0130    0.0000 C.3     1  LIG1        0.0517
     39 C           4.0580    4.3250    0.0000 C.3     1  LIG1        0.0540
@<TRIPOS>BOND
     1     1     2   ar
     2     1     6   ar
     3     1    30   ar
     4     2     3   ar
     5     2    28   ar
     6     3     4   ar
     7     3    23   ar
     8     4     5   ar
     9     4    20   ar
    10     5     6   ar
    11     6     7    1
    12     7     8    1
    13     8     9    1
    14     9    10   am
    15     9    19    2
    16    10    11    1
    17    11    12    1
    18    12    13   ar
    19    12    18   ar
    20    13    14    1
    21    13    15   ar
    22    15    16   ar
    23    16    17   ar
    24    17    18   ar
    25    20    21   ar
    26    21    22   ar
    27    21    26    1
    28    22    23   ar
    29    22    24    1
    30    24    25    1
    31    26    27    1
    32    28    29   ar
    33    29    30   ar
    34    29    31    1
    35    31    32    1
    36    32    33    1
    37    33    34   ar
    38    33    37   ar
    39    34    35   ar
    40    35    36   ar
    41    35    39    1
    42    36    37   ar
    43    37    38    1
