@<TRIPOS>MOLECULE
37097_ChemDiv_C325-0322
 25 28 0 0 0
SMALL
GASTEIGER
Energy = 0

@<TRIPOS>ATOM
      1 N           0.0170    0.2540    0.0000 N.ar    1  LIG1       -0.2656
      2 C           0.8790    0.7580    0.0000 C.ar    1  LIG1        0.2374
      3 N           1.6290    0.0880    0.0000 N.ar    1  LIG1       -0.2051
      4 C           1.2250   -0.8210    0.0000 C.ar    1  LIG1        0.1506
      5 C           0.2290   -0.7210    0.0000 C.ar    1  LIG1        0.1598
      6 N          -0.4920   -1.4170    0.0000 N.pl3   1  LIG1       -0.1938
      7 C          -1.4540   -1.6880    0.0000 C.ar    1  LIG1        0.0718
      8 C          -2.1630   -0.9710    0.0000 C.ar    1  LIG1        0.0123
      9 C          -3.1330   -1.2250    0.0000 C.ar    1  LIG1       -0.0206
     10 C          -3.3960   -2.1960    0.0000 C.ar    1  LIG1       -0.0042
     11 C          -2.6790   -2.9080    0.0000 C.ar    1  LIG1        0.0010
     12 C          -1.7130   -2.6460    0.0000 C.ar    1  LIG1        0.0165
     13 C          -3.8380   -0.5210    0.0000 C.3     1  LIG1        0.0311
     14 C           1.7290   -1.6880    0.0000 C.ar    1  LIG1        0.1652
     15 O           2.7130   -1.7750    0.0000 O.2     1  LIG1       -0.4561
     16 C           2.9210   -2.7540    0.0000 C.ar    1  LIG1        0.1234
     17 C           2.0630   -3.2540    0.0000 C.ar    1  LIG1        0.0361
     18 C           1.3250   -2.6080    0.0000 C.ar    1  LIG1        0.0419
     19 C           3.8330   -3.1580    0.0000 C.3     1  LIG1        0.0725
     20 N           0.8790    1.7630    0.0000 N.ar    1  LIG1       -0.2154
     21 C           0.0080    2.2580    0.0000 C.ar    1  LIG1        0.0636
     22 C          -0.8500    1.7630    0.0000 C.ar    1  LIG1        0.0280
     23 C          -0.8500    0.7580    0.0000 C.ar    1  LIG1        0.0469
     24 C          -1.7210    0.2540    0.0000 C.3     1  LIG1        0.0505
     25 C           0.0000    3.2580    0.0000 C.3     1  LIG1        0.0522
@<TRIPOS>BOND
     1     1     2   ar
     2     1     5   ar
     3     1    23   ar
     4     2     3   ar
     5     2    20   ar
     6     3     4   ar
     7     4     5   ar
     8     4    14    1
     9     5     6    1
    10     6     7    1
    11     7     8   ar
    12     7    12   ar
    13     8     9   ar
    14     9    10   ar
    15     9    13    1
    16    10    11   ar
    17    11    12   ar
    18    14    15   ar
    19    14    18   ar
    20    15    16   ar
    21    16    17   ar
    22    16    19    1
    23    17    18   ar
    24    20    21   ar
    25    21    22   ar
    26    21    25    1
    27    22    23   ar
    28    23    24    1
