@<TRIPOS>MOLECULE
37103_ChemDiv_C325-0361
 24 27 0 0 0
SMALL
GASTEIGER
Energy = 0

@<TRIPOS>ATOM
      1 N          -0.0630    0.2790    0.0000 N.ar    1  LIG1       -0.2656
      2 C           0.8210    0.7670    0.0000 C.ar    1  LIG1        0.2374
      3 N           1.5460    0.0920    0.0000 N.ar    1  LIG1       -0.2051
      4 C           1.1330   -0.8130    0.0000 C.ar    1  LIG1        0.1506
      5 C           0.1500   -0.7000    0.0000 C.ar    1  LIG1        0.1598
      6 N          -0.7250   -1.1960    0.0000 N.pl3   1  LIG1       -0.1938
      7 C          -1.7290   -1.1960    0.0000 C.ar    1  LIG1        0.0721
      8 C          -2.2250   -0.3210    0.0000 C.ar    1  LIG1        0.0166
      9 C          -3.2290   -0.3210    0.0000 C.ar    1  LIG1        0.0013
     10 C          -3.7250   -1.1960    0.0000 C.ar    1  LIG1        0.0001
     11 C          -3.2210   -2.0630    0.0000 C.ar    1  LIG1        0.0013
     12 C          -2.2250   -2.0500    0.0000 C.ar    1  LIG1        0.0166
     13 C           1.6250   -1.6830    0.0000 C.ar    1  LIG1        0.1652
     14 O           2.6170   -1.8080    0.0000 O.2     1  LIG1       -0.4561
     15 C           2.8130   -2.7960    0.0000 C.ar    1  LIG1        0.1234
     16 C           1.9290   -3.2750    0.0000 C.ar    1  LIG1        0.0361
     17 C           1.1960   -2.5960    0.0000 C.ar    1  LIG1        0.0419
     18 C           3.7210   -3.2170    0.0000 C.3     1  LIG1        0.0725
     19 N           0.8420    1.7580    0.0000 N.ar    1  LIG1       -0.2154
     20 C          -0.0170    2.2790    0.0000 C.ar    1  LIG1        0.0636
     21 C          -0.8880    1.8040    0.0000 C.ar    1  LIG1        0.0280
     22 C          -0.9080    0.8000    0.0000 C.ar    1  LIG1        0.0469
     23 C          -1.7750    0.3210    0.0000 C.3     1  LIG1        0.0505
     24 C           0.0170    3.2790    0.0000 C.3     1  LIG1        0.0522
@<TRIPOS>BOND
     1     1     2   ar
     2     1     5   ar
     3     1    22   ar
     4     2     3   ar
     5     2    19   ar
     6     3     4   ar
     7     4     5   ar
     8     4    13    1
     9     5     6    1
    10     6     7    1
    11     7     8   ar
    12     7    12   ar
    13     8     9   ar
    14     9    10   ar
    15    10    11   ar
    16    11    12   ar
    17    13    14   ar
    18    13    17   ar
    19    14    15   ar
    20    15    16   ar
    21    15    18    1
    22    16    17   ar
    23    19    20   ar
    24    20    21   ar
    25    20    24    1
    26    21    22   ar
    27    22    23    1
