@<TRIPOS>MOLECULE
37108_ChemDiv_C428-0064
 29 33 0 0 0
SMALL
GASTEIGER
Energy = 0

@<TRIPOS>ATOM
      1 C          -1.4040   -1.5080    0.0000 C.3     1  LIG1        0.1184
      2 C          -1.4000   -2.5040    0.0000 C.3     1  LIG1        0.1381
      3 O          -2.2580   -1.9210    0.0000 O.3     1  LIG1       -0.3499
      4 C          -3.1330   -1.5080    0.0000 C.3     1  LIG1        0.1464
      5 C          -2.2750   -1.0000    0.0000 C.3     1  LIG1        0.1211
      6 C          -2.2750    0.0080    0.0000 C.2     1  LIG1        0.2484
      7 N          -1.4040    0.5080    0.0000 N.am    1  LIG1       -0.1790
      8 C          -1.4040    1.5040    0.0000 C.ar    1  LIG1        0.0766
      9 C          -2.2750    2.0000    0.0000 C.ar    1  LIG1        0.0568
     10 C          -2.2750    2.9960    0.0000 C.ar    1  LIG1        0.1777
     11 C          -1.4040    3.4960    0.0000 C.ar    1  LIG1        0.1765
     12 O          -1.6130    4.4710    0.0000 O.3     1  LIG1       -0.4346
     13 C          -2.6080    4.5750    0.0000 C.3     1  LIG1        0.4294
     14 O          -3.0130    3.6750    0.0000 O.3     1  LIG1       -0.4346
     15 C          -0.5460    2.9960    0.0000 C.ar    1  LIG1        0.0415
     16 C          -0.5420    2.0000    0.0000 C.ar    1  LIG1        0.0199
     17 O          -3.1420    0.5080    0.0000 O.2     1  LIG1       -0.2729
     18 C          -3.1330   -2.5080    0.0000 C.2     1  LIG1        0.0011
     19 C          -2.2750   -3.0040    0.0000 C.2     1  LIG1        0.0002
     20 C          -0.4500   -2.8080    0.0000 C.3     1  LIG1        0.1257
     21 N           0.1250   -1.9920    0.0000 N.am    1  LIG1       -0.2668
     22 C          -0.4630   -1.1920    0.0000 C.2     1  LIG1        0.2289
     23 O          -0.1540   -0.2330    0.0000 O.2     1  LIG1       -0.2748
     24 C           1.1290   -1.9830    0.0000 C.3     1  LIG1        0.2040
     25 C           1.6330   -2.8500    0.0000 C.2     1  LIG1        0.3375
     26 O           1.1330   -3.7170    0.0000 O.2     1  LIG1       -0.2482
     27 O           2.6290   -2.8420    0.0000 O.3     1  LIG1       -0.4473
     28 C           3.1380   -3.7000    0.0000 C.3     1  LIG1        0.2086
     29 C           2.6420   -4.5750    0.0000 C.3     1  LIG1        0.0513
@<TRIPOS>BOND
     1     1     2    1
     2     1     5    1
     3     1    22    1
     4     2     3    1
     5     2    19    1
     6     2    20    1
     7     3     4    1
     8     4     5    1
     9     4    18    1
    10     5     6    1
    11     6     7   am
    12     6    17    2
    13     7     8    1
    14     8     9   ar
    15     8    16   ar
    16     9    10   ar
    17    10    11   ar
    18    10    14    1
    19    11    12    1
    20    11    15   ar
    21    12    13    1
    22    13    14    1
    23    15    16   ar
    24    18    19    2
    25    20    21    1
    26    21    22   am
    27    21    24    1
    28    22    23    2
    29    24    25    1
    30    25    26    2
    31    25    27    1
    32    27    28    1
    33    28    29    1
