@<TRIPOS>MOLECULE
37107_ChemDiv_C361-0619
 37 42 0 0 0
SMALL
GASTEIGER
Energy = 0

@<TRIPOS>ATOM
      1 S          -0.0500   -1.2750    0.0000 S.O2    1  LIG1        0.0637
      2 N           0.8210   -0.7830    0.0000 N.3     1  LIG1       -0.1433
      3 C           0.7920    0.1670    0.0000 C.3     1  LIG1        0.1585
      4 C           1.6630    0.6580    0.0000 C.3     1  LIG1        0.1587
      5 N           2.5000    0.2000    0.0000 N.4     1  LIG1        0.3815
      6 C           3.3750    0.7080    0.0000 C.3     1  LIG1        0.1331
      7 C           3.3580    1.5460    0.0000 C.ar    1  LIG1        0.0328
      8 C           2.4880    2.0710    0.0000 C.ar    1  LIG1        0.0024
      9 C           2.4880    3.0670    0.0000 C.ar    1  LIG1        0.0113
     10 C           3.3880    3.5920    0.0000 C.ar    1  LIG1        0.0577
     11 C           4.2630    3.0830    0.0000 C.ar    1  LIG1        0.0113
     12 C           4.2750    2.0880    0.0000 C.ar    1  LIG1        0.0024
     13 CL          3.3750    4.7920    0.0000 Cl      1  LIG1       -0.0822
     14 C           4.1330    0.2170    0.0000 C.ar    1  LIG1        0.0328
     15 C           4.1330   -0.7830    0.0000 C.ar    1  LIG1        0.0016
     16 C           5.0040   -1.3040    0.0000 C.ar    1  LIG1       -0.0001
     17 C           5.9250   -0.7670    0.0000 C.ar    1  LIG1       -0.0000
     18 C           5.8920    0.2460    0.0000 C.ar    1  LIG1       -0.0001
     19 C           5.0380    0.7380    0.0000 C.ar    1  LIG1        0.0016
     20 C           2.5170   -0.8130    0.0000 C.3     1  LIG1        0.1587
     21 C           1.6460   -1.3210    0.0000 C.3     1  LIG1        0.1585
     22 C          -0.9040   -1.7670    0.0000 C.ar    1  LIG1        0.1220
     23 C          -1.7630   -1.2750    0.0000 C.ar    1  LIG1        0.0169
     24 C          -2.6330   -1.7670    0.0000 C.ar    1  LIG1       -0.0054
     25 C          -2.6330   -2.7630    0.0000 C.ar    1  LIG1        0.0500
     26 N          -3.5670   -3.0790    0.0000 N.am    1  LIG1       -0.2586
     27 C          -4.0750   -3.9380    0.0000 C.2     1  LIG1        0.2288
     28 C          -5.0750   -3.9380    0.0000 C.3     1  LIG1        0.0771
     29 C          -5.9290   -3.4460    0.0000 C.3     1  LIG1        0.0096
     30 C          -5.9290   -4.4290    0.0000 C.3     1  LIG1        0.0096
     31 O          -3.5670   -4.7920    0.0000 O.2     1  LIG1       -0.2745
     32 C          -4.1540   -2.2710    0.0000 C.3     1  LIG1        0.1029
     33 C          -3.5670   -1.4630    0.0000 C.3     1  LIG1        0.0495
     34 C          -1.7630   -3.2710    0.0000 C.ar    1  LIG1        0.0160
     35 C          -0.9040   -2.7630    0.0000 C.ar    1  LIG1        0.0212
     36 O           0.4580   -2.1290    0.0000 O.2     1  LIG1       -0.1528
     37 O          -0.5420   -0.4170    0.0000 O.2     1  LIG1       -0.1528
@<TRIPOS>BOND
     1     1     2    1
     2     1    22    1
     3     1    36    2
     4     1    37    2
     5     2     3    1
     6     2    21    1
     7     3     4    1
     8     4     5    1
     9     5     6    1
    10     5    20    1
    11     6     7    1
    12     6    14    1
    13     7     8   ar
    14     7    12   ar
    15     8     9   ar
    16     9    10   ar
    17    10    11   ar
    18    10    13    1
    19    11    12   ar
    20    14    15   ar
    21    14    19   ar
    22    15    16   ar
    23    16    17   ar
    24    17    18   ar
    25    18    19   ar
    26    20    21    1
    27    22    23   ar
    28    22    35   ar
    29    23    24   ar
    30    24    25   ar
    31    24    33    1
    32    25    26    1
    33    25    34   ar
    34    26    27   am
    35    26    32    1
    36    27    28    1
    37    27    31    2
    38    28    29    1
    39    28    30    1
    40    29    30    1
    41    32    33    1
    42    34    35   ar
