@<TRIPOS>MOLECULE
37102_ChemDiv_K280-0369
 38 43 0 0 0
SMALL
GASTEIGER
Energy = 0

@<TRIPOS>ATOM
      1 N          -1.4750    2.2920    0.0000 N.ar    1  LIG1       -0.1881
      2 C          -1.4750    3.2960    0.0000 C.ar    1  LIG1        0.1687
      3 N          -0.5130    3.6080    0.0000 N.ar    1  LIG1       -0.2100
      4 C           0.0670    2.7790    0.0000 C.ar    1  LIG1        0.1628
      5 N          -0.5290    1.9880    0.0000 N.ar    1  LIG1       -0.1470
      6 C           1.0710    2.7790    0.0000 C.3     1  LIG1        0.0939
      7 C           1.5670    1.9130    0.0000 C.3     1  LIG1        0.1351
      8 N           2.5830    1.8960    0.0000 N.ar    1  LIG1       -0.2548
      9 N           3.1580    1.0920    0.0000 N.ar    1  LIG1       -0.1740
     10 C           4.1130    1.3960    0.0000 C.ar    1  LIG1        0.0801
     11 C           4.1130    2.4000    0.0000 C.ar    1  LIG1        0.0308
     12 C           3.1710    2.7130    0.0000 C.ar    1  LIG1        0.0571
     13 C           2.8540    3.6670    0.0000 C.3     1  LIG1        0.0517
     14 C           4.9250    0.8040    0.0000 C.3     1  LIG1        0.0540
     15 C          -2.3420    3.7920    0.0000 C.ar    1  LIG1        0.0536
     16 C          -3.2040    3.2790    0.0000 C.ar    1  LIG1        0.0864
     17 N          -3.2040    2.2920    0.0000 N.ar    1  LIG1       -0.2210
     18 C          -2.3420    1.7920    0.0000 C.ar    1  LIG1        0.1930
     19 S          -2.3420    0.7920    0.0000 S.3     1  LIG1       -0.0671
     20 C          -3.2040    0.2920    0.0000 C.3     1  LIG1        0.1329
     21 C          -3.2080   -0.7080    0.0000 C.2     1  LIG1        0.2556
     22 N          -2.3540   -1.2080    0.0000 N.am    1  LIG1       -0.1784
     23 C          -2.3630   -2.2080    0.0000 C.ar    1  LIG1        0.0766
     24 C          -1.4920   -2.7210    0.0000 C.ar    1  LIG1        0.0568
     25 C          -1.4920   -3.7210    0.0000 C.ar    1  LIG1        0.1777
     26 C          -2.3540   -4.2080    0.0000 C.ar    1  LIG1        0.1765
     27 O          -2.1420   -5.1790    0.0000 O.3     1  LIG1       -0.4346
     28 C          -1.1500   -5.2880    0.0000 C.3     1  LIG1        0.4294
     29 O          -0.7500   -4.3750    0.0000 O.3     1  LIG1       -0.4346
     30 C          -3.2250   -3.7080    0.0000 C.ar    1  LIG1        0.0415
     31 C          -3.2330   -2.7080    0.0000 C.ar    1  LIG1        0.0199
     32 O          -4.0670   -1.2210    0.0000 O.2     1  LIG1       -0.2721
     33 C          -4.0670    0.7920    0.0000 C.3     1  LIG1        0.0205
     34 C          -4.9290    0.2920    0.0000 C.3     1  LIG1        0.0014
     35 C          -4.0710    3.7920    0.0000 C.ar    1  LIG1        0.0193
     36 C          -4.0710    4.7880    0.0000 C.ar    1  LIG1        0.0015
     37 C          -3.2040    5.2830    0.0000 C.ar    1  LIG1        0.0002
     38 C          -2.3420    4.7880    0.0000 C.ar    1  LIG1        0.0046
@<TRIPOS>BOND
     1     1     2   ar
     2     1     5   ar
     3     1    18   ar
     4     2     3   ar
     5     2    15   ar
     6     3     4   ar
     7     4     5   ar
     8     4     6    1
     9     6     7    1
    10     7     8    1
    11     8     9   ar
    12     8    12   ar
    13     9    10   ar
    14    10    11   ar
    15    10    14    1
    16    11    12   ar
    17    12    13    1
    18    15    16   ar
    19    15    38   ar
    20    16    17   ar
    21    16    35   ar
    22    17    18   ar
    23    18    19    1
    24    19    20    1
    25    20    21    1
    26    20    33    1
    27    21    22   am
    28    21    32    2
    29    22    23    1
    30    23    24   ar
    31    23    31   ar
    32    24    25   ar
    33    25    26   ar
    34    25    29    1
    35    26    27    1
    36    26    30   ar
    37    27    28    1
    38    28    29    1
    39    30    31   ar
    40    33    34    1
    41    35    36   ar
    42    36    37   ar
    43    37    38   ar
