@<TRIPOS>MOLECULE
37101_ChemDiv_C325-0343
 25 28 0 0 0
SMALL
GASTEIGER
Energy = 0

@<TRIPOS>ATOM
      1 N          -0.2540    0.7750    0.0000 N.ar    1  LIG1       -0.2656
      2 C           0.6080    1.2790    0.0000 C.ar    1  LIG1        0.2374
      3 N           1.3580    0.6040    0.0000 N.ar    1  LIG1       -0.2051
      4 C           0.9500   -0.2960    0.0000 C.ar    1  LIG1        0.1506
      5 C          -0.0420   -0.2000    0.0000 C.ar    1  LIG1        0.1598
      6 N          -0.7170   -0.9500    0.0000 N.pl3   1  LIG1       -0.1938
      7 C          -1.4290   -1.6500    0.0000 C.ar    1  LIG1        0.0721
      8 C          -2.3960   -1.3880    0.0000 C.ar    1  LIG1        0.0162
      9 C          -3.1040   -2.0960    0.0000 C.ar    1  LIG1       -0.0029
     10 C          -2.8540   -3.0710    0.0000 C.ar    1  LIG1       -0.0218
     11 C          -1.8750   -3.3250    0.0000 C.ar    1  LIG1       -0.0029
     12 C          -1.1710   -2.6210    0.0000 C.ar    1  LIG1        0.0162
     13 C          -3.5580   -3.7750    0.0000 C.3     1  LIG1        0.0310
     14 C           1.4540   -1.1580    0.0000 C.ar    1  LIG1        0.1652
     15 O           2.4420   -1.2580    0.0000 O.2     1  LIG1       -0.4561
     16 C           2.6420   -2.2330    0.0000 C.ar    1  LIG1        0.1234
     17 C           1.7880   -2.7380    0.0000 C.ar    1  LIG1        0.0361
     18 C           1.0460   -2.0830    0.0000 C.ar    1  LIG1        0.0419
     19 C           3.5540   -2.6420    0.0000 C.3     1  LIG1        0.0725
     20 N           0.6080    2.2830    0.0000 N.ar    1  LIG1       -0.2154
     21 C          -0.2540    2.7830    0.0000 C.ar    1  LIG1        0.0636
     22 C          -1.1210    2.2790    0.0000 C.ar    1  LIG1        0.0280
     23 C          -1.1210    1.2790    0.0000 C.ar    1  LIG1        0.0469
     24 C          -1.9920    0.7750    0.0000 C.3     1  LIG1        0.0505
     25 C          -0.2540    3.7790    0.0000 C.3     1  LIG1        0.0522
@<TRIPOS>BOND
     1     1     2   ar
     2     1     5   ar
     3     1    23   ar
     4     2     3   ar
     5     2    20   ar
     6     3     4   ar
     7     4     5   ar
     8     4    14    1
     9     5     6    1
    10     6     7    1
    11     7     8   ar
    12     7    12   ar
    13     8     9   ar
    14     9    10   ar
    15    10    11   ar
    16    10    13    1
    17    11    12   ar
    18    14    15   ar
    19    14    18   ar
    20    15    16   ar
    21    16    17   ar
    22    16    19    1
    23    17    18   ar
    24    20    21   ar
    25    21    22   ar
    26    21    25    1
    27    22    23   ar
    28    23    24    1
