@<TRIPOS>MOLECULE
37109_ChemDiv_C361-0745
 33 38 0 0 0
SMALL
GASTEIGER
Energy = 0

@<TRIPOS>ATOM
      1 S          -0.8540    0.7830    0.0000 S.O2    1  LIG1        0.0637
      2 N           0.0250    1.2630    0.0000 N.3     1  LIG1       -0.1433
      3 C           0.8830    0.7830    0.0000 C.3     1  LIG1        0.1585
      4 C           1.7580    1.2630    0.0000 C.3     1  LIG1        0.1586
      5 N           1.7580    2.2790    0.0000 N.4     1  LIG1        0.3830
      6 C           2.6170    2.7750    0.0000 C.3     1  LIG1        0.1664
      7 C           3.4920    2.2630    0.0000 C.ar    1  LIG1        0.0376
      8 C           4.3500    2.7580    0.0000 C.ar    1  LIG1        0.0416
      9 C           5.2080    2.2630    0.0000 C.ar    1  LIG1        0.1763
     10 C           5.2080    1.2630    0.0000 C.ar    1  LIG1        0.1764
     11 O           6.1710    0.9710    0.0000 O.3     1  LIG1       -0.4346
     12 C           6.7540    1.7460    0.0000 C.3     1  LIG1        0.4294
     13 O           6.1710    2.5710    0.0000 O.3     1  LIG1       -0.4346
     14 C           4.3500    0.7670    0.0000 C.ar    1  LIG1        0.0401
     15 C           3.4920    1.2630    0.0000 C.ar    1  LIG1        0.0048
     16 C           0.8830    2.7750    0.0000 C.3     1  LIG1        0.1586
     17 C           0.0250    2.2790    0.0000 C.3     1  LIG1        0.1585
     18 C          -1.7130    0.2670    0.0000 C.ar    1  LIG1        0.1220
     19 C          -2.5710    0.7830    0.0000 C.ar    1  LIG1        0.0169
     20 C          -3.4460    0.2670    0.0000 C.ar    1  LIG1       -0.0054
     21 C          -3.4460   -0.7290    0.0000 C.ar    1  LIG1        0.0500
     22 N          -4.3920   -1.0380    0.0000 N.am    1  LIG1       -0.2586
     23 C          -4.8880   -1.8960    0.0000 C.2     1  LIG1        0.2288
     24 C          -5.8830   -1.8960    0.0000 C.3     1  LIG1        0.0771
     25 C          -6.7540   -2.4130    0.0000 C.3     1  LIG1        0.0096
     26 C          -6.7540   -1.3960    0.0000 C.3     1  LIG1        0.0096
     27 O          -4.3920   -2.7710    0.0000 O.2     1  LIG1       -0.2745
     28 C          -4.9750   -0.2290    0.0000 C.3     1  LIG1        0.1029
     29 C          -4.3920    0.5790    0.0000 C.3     1  LIG1        0.0495
     30 C          -2.5710   -1.2250    0.0000 C.ar    1  LIG1        0.0160
     31 C          -1.7130   -0.7290    0.0000 C.ar    1  LIG1        0.0212
     32 O          -1.3500    1.6420    0.0000 O.2     1  LIG1       -0.1528
     33 O          -0.3540   -0.0920    0.0000 O.2     1  LIG1       -0.1528
@<TRIPOS>BOND
     1     1     2    1
     2     1    18    1
     3     1    32    2
     4     1    33    2
     5     2     3    1
     6     2    17    1
     7     3     4    1
     8     4     5    1
     9     5     6    1
    10     5    16    1
    11     6     7    1
    12     7     8   ar
    13     7    15   ar
    14     8     9   ar
    15     9    10   ar
    16     9    13    1
    17    10    11    1
    18    10    14   ar
    19    11    12    1
    20    12    13    1
    21    14    15   ar
    22    16    17    1
    23    18    19   ar
    24    18    31   ar
    25    19    20   ar
    26    20    21   ar
    27    20    29    1
    28    21    22    1
    29    21    30   ar
    30    22    23   am
    31    22    28    1
    32    23    24    1
    33    23    27    2
    34    24    25    1
    35    24    26    1
    36    25    26    1
    37    28    29    1
    38    30    31   ar
