@<TRIPOS>MOLECULE
37117_ChemDiv_C361-0965
 26 29 0 0 0
SMALL
GASTEIGER
Energy = 0

@<TRIPOS>ATOM
      1 S           1.9380    0.0420    0.0000 S.O2    1  LIG1       -0.0578
      2 N           2.8170    0.5500    0.0000 N.pl3   1  LIG1       -0.5360
      3 C           2.8170    1.5460    0.0000 C.ar    1  LIG1       -0.1163
      4 C           3.6670    2.0420    0.0000 C.ar    1  LIG1       -0.0439
      5 C           4.5460    1.5460    0.0000 C.3     1  LIG1        0.0291
      6 C           3.6830    3.0130    0.0000 C.ar    1  LIG1       -0.0060
      7 C           2.8290    3.5210    0.0000 C.ar    1  LIG1       -0.0004
      8 C           1.9750    3.0250    0.0000 C.ar    1  LIG1       -0.0019
      9 C           1.9750    2.0420    0.0000 C.ar    1  LIG1       -0.0241
     10 C           1.0710   -0.4630    0.0000 C.ar    1  LIG1        0.0891
     11 C           0.2040    0.0420    0.0000 C.ar    1  LIG1        0.0139
     12 C          -0.6630   -0.4630    0.0000 C.ar    1  LIG1       -0.0055
     13 C          -0.6630   -1.4630    0.0000 C.ar    1  LIG1        0.0500
     14 N          -1.6210   -1.7710    0.0000 N.am    1  LIG1       -0.2586
     15 C          -2.1250   -2.6380    0.0000 C.2     1  LIG1        0.2288
     16 O          -1.6210   -3.5170    0.0000 O.2     1  LIG1       -0.2745
     17 C          -3.1250   -2.6380    0.0000 C.3     1  LIG1        0.0770
     18 C          -3.8330   -3.3540    0.0000 C.3     1  LIG1        0.0091
     19 C          -4.5500   -2.6380    0.0000 C.3     1  LIG1        0.0010
     20 C          -3.8330   -1.9290    0.0000 C.3     1  LIG1        0.0091
     21 C          -2.2080   -0.9580    0.0000 C.3     1  LIG1        0.1029
     22 C          -1.6210   -0.1460    0.0000 C.3     1  LIG1        0.0495
     23 C           0.2040   -1.9710    0.0000 C.ar    1  LIG1        0.0159
     24 C           1.0710   -1.4630    0.0000 C.ar    1  LIG1        0.0182
     25 O           2.4420   -0.8250    0.0000 O.2     1  LIG1       -0.1842
     26 O           1.4420    0.9080    0.0000 O.2     1  LIG1       -0.1842
@<TRIPOS>BOND
     1     1     2    1
     2     1    10    1
     3     1    25    2
     4     1    26    2
     5     2     3    1
     6     3     4   ar
     7     3     9   ar
     8     4     5    1
     9     4     6   ar
    10     6     7   ar
    11     7     8   ar
    12     8     9   ar
    13    10    11   ar
    14    10    24   ar
    15    11    12   ar
    16    12    13   ar
    17    12    22    1
    18    13    14    1
    19    13    23   ar
    20    14    15   am
    21    14    21    1
    22    15    16    2
    23    15    17    1
    24    17    18    1
    25    17    20    1
    26    18    19    1
    27    19    20    1
    28    21    22    1
    29    23    24   ar
