@<TRIPOS>MOLECULE
37112_ChemDiv_C430-0003
 16 17 0 0 0
SMALL
GASTEIGER
Energy = 0

@<TRIPOS>ATOM
      1 N           1.2960   -0.2500    0.0000 N.3     1  LIG1       -0.2602
      2 C           1.2960   -1.2500    0.0000 C.3     1  LIG1        0.1103
      3 C           0.4290   -1.7500    0.0000 C.3     1  LIG1        0.1901
      4 C          -0.4330   -1.2500    0.0000 C.ar    1  LIG1        0.0091
      5 C          -1.3000   -1.7420    0.0000 C.ar    1  LIG1       -0.0018
      6 C          -2.1630   -1.2500    0.0000 C.ar    1  LIG1       -0.0002
      7 C          -2.1670   -0.2460    0.0000 C.ar    1  LIG1       -0.0000
      8 C          -1.3000    0.2540    0.0000 C.ar    1  LIG1       -0.0002
      9 C          -0.4330   -0.2460    0.0000 C.ar    1  LIG1       -0.0018
     10 O           0.4290   -2.7500    0.0000 O.3     1  LIG1       -0.2168
     11 C           0.4330    0.2460    0.0000 C.3     1  LIG1        0.1359
     12 C           0.4330    1.2460    0.0000 C.3     1  LIG1        0.1566
     13 N           1.2960    1.7540    0.0000 N.4     1  LIG1        0.3842
     14 C           2.1630    1.2460    0.0000 C.3     1  LIG1        0.1566
     15 C           2.1630    0.2460    0.0000 C.3     1  LIG1        0.1359
     16 C           1.2960    2.7540    0.0000 C.3     1  LIG1        0.2024
@<TRIPOS>BOND
     1     1     2    1
     2     1    11    1
     3     1    15    1
     4     2     3    1
     5     3     4    1
     6     3    10    1
     7     4     5   ar
     8     4     9   ar
     9     5     6   ar
    10     6     7   ar
    11     7     8   ar
    12     8     9   ar
    13    11    12    1
    14    12    13    1
    15    13    14    1
    16    13    16    1
    17    14    15    1
