@<TRIPOS>MOLECULE
37115_ChemDiv_C361-0816
 32 36 0 0 0
SMALL
GASTEIGER
Energy = 0

@<TRIPOS>ATOM
      1 C           2.0330    0.4880    0.0000 C.ar    1  LIG1       -0.0397
      2 C           2.8040    1.1040    0.0000 C.ar    1  LIG1        0.2577
      3 N           2.4540    2.0420    0.0000 N.ar    1  LIG1       -0.2160
      4 N           1.4710    1.9880    0.0000 N.ar    1  LIG1       -0.2677
      5 C           1.2040    1.0210    0.0000 C.ar    1  LIG1        0.0371
      6 C           0.2790    0.6540    0.0000 C.3     1  LIG1        0.0499
      7 C           0.8380    2.7710    0.0000 C.3     1  LIG1        0.1517
      8 C           3.1540    2.8420    0.0000 C.ar    1  LIG1        0.0840
      9 C           4.1330    2.7290    0.0000 C.ar    1  LIG1        0.0192
     10 C           4.7380    3.5170    0.0000 C.ar    1  LIG1        0.0015
     11 C           4.3460    4.4380    0.0000 C.ar    1  LIG1        0.0001
     12 C           3.3630    4.5500    0.0000 C.ar    1  LIG1        0.0015
     13 C           2.7630    3.7670    0.0000 C.ar    1  LIG1        0.0192
     14 O           3.7710    0.8210    0.0000 O.2     1  LIG1       -0.2672
     15 N           2.0460   -0.5080    0.0000 N.pl3   1  LIG1       -0.5312
     16 S           1.1750   -1.0170    0.0000 S.O2    1  LIG1       -0.0577
     17 C           0.3080   -1.5040    0.0000 C.ar    1  LIG1        0.0891
     18 C          -0.5500   -1.0170    0.0000 C.ar    1  LIG1        0.0139
     19 C          -1.4170   -1.5040    0.0000 C.ar    1  LIG1       -0.0055
     20 C          -1.4170   -2.5170    0.0000 C.ar    1  LIG1        0.0500
     21 N          -2.3710   -2.8250    0.0000 N.am    1  LIG1       -0.2586
     22 C          -2.8790   -3.6790    0.0000 C.2     1  LIG1        0.2288
     23 C          -3.8750   -3.6790    0.0000 C.3     1  LIG1        0.0771
     24 C          -4.7420   -3.1880    0.0000 C.3     1  LIG1        0.0096
     25 C          -4.7420   -4.1830    0.0000 C.3     1  LIG1        0.0096
     26 O          -2.3710   -4.5500    0.0000 O.2     1  LIG1       -0.2745
     27 C          -2.9630   -2.0130    0.0000 C.3     1  LIG1        0.1029
     28 C          -2.3710   -1.1960    0.0000 C.3     1  LIG1        0.0495
     29 C          -0.5500   -3.0080    0.0000 C.ar    1  LIG1        0.0159
     30 C           0.3080   -2.5170    0.0000 C.ar    1  LIG1        0.0182
     31 O           0.6710   -0.1460    0.0000 O.2     1  LIG1       -0.1842
     32 O           1.6790   -1.8710    0.0000 O.2     1  LIG1       -0.1842
@<TRIPOS>BOND
     1     1     2   ar
     2     1     5   ar
     3     1    15    1
     4     2     3   ar
     5     2    14    2
     6     3     4   ar
     7     3     8    1
     8     4     5   ar
     9     4     7    1
    10     5     6    1
    11     8     9   ar
    12     8    13   ar
    13     9    10   ar
    14    10    11   ar
    15    11    12   ar
    16    12    13   ar
    17    15    16    1
    18    16    17    1
    19    16    31    2
    20    16    32    2
    21    17    18   ar
    22    17    30   ar
    23    18    19   ar
    24    19    20   ar
    25    19    28    1
    26    20    21    1
    27    20    29   ar
    28    21    22   am
    29    21    27    1
    30    22    23    1
    31    22    26    2
    32    23    24    1
    33    23    25    1
    34    24    25    1
    35    27    28    1
    36    29    30   ar
