@<TRIPOS>MOLECULE
37111_ChemDiv_E570-0125
 31 35 0 0 0
SMALL
GASTEIGER
Energy = 0

@<TRIPOS>ATOM
      1 S          -0.1130   -0.5380    0.0000 S.O2    1  LIG1        0.0637
      2 N           0.9170   -0.5380    0.0000 N.3     1  LIG1       -0.1433
      3 C           1.4330   -1.4250    0.0000 C.3     1  LIG1        0.1585
      4 C           2.4630   -1.4250    0.0000 C.3     1  LIG1        0.1586
      5 N           2.9790   -0.5380    0.0000 N.4     1  LIG1        0.3830
      6 C           2.4630    0.3540    0.0000 C.3     1  LIG1        0.1586
      7 C           1.4330    0.3540    0.0000 C.3     1  LIG1        0.1585
      8 C           4.0170   -0.5250    0.0000 C.3     1  LIG1        0.1663
      9 C           4.5290    0.3670    0.0000 C.ar    1  LIG1        0.0344
     10 C           5.5580    0.3670    0.0000 C.ar    1  LIG1        0.0014
     11 C           6.0790    1.2630    0.0000 C.ar    1  LIG1       -0.0001
     12 C           5.5580    2.1540    0.0000 C.ar    1  LIG1       -0.0000
     13 C           4.5290    2.1540    0.0000 C.ar    1  LIG1       -0.0001
     14 C           4.0170    1.2630    0.0000 C.ar    1  LIG1        0.0014
     15 C          -1.1420   -0.5380    0.0000 C.ar    1  LIG1        0.1220
     16 C          -1.6580   -1.4250    0.0000 C.ar    1  LIG1        0.0169
     17 C          -2.6880   -1.4250    0.0000 C.ar    1  LIG1       -0.0055
     18 C          -3.2040   -0.5380    0.0000 C.ar    1  LIG1        0.0499
     19 N          -4.0580   -0.5830    0.0000 N.am    1  LIG1       -0.2603
     20 C          -4.4880    0.1540    0.0000 C.2     1  LIG1        0.2288
     21 C          -5.3460    0.1540    0.0000 C.3     1  LIG1        0.0771
     22 C          -6.0790    0.5830    0.0000 C.3     1  LIG1        0.0096
     23 C          -6.0790   -0.2710    0.0000 C.3     1  LIG1        0.0096
     24 O          -4.0580    0.9000    0.0000 O.2     1  LIG1       -0.2745
     25 C          -4.5210   -1.3710    0.0000 C.3     1  LIG1        0.0842
     26 C          -4.0710   -2.1500    0.0000 C.3     1  LIG1        0.0478
     27 C          -5.4290   -1.3710    0.0000 C.3     1  LIG1        0.0222
     28 C          -2.6880    0.3580    0.0000 C.ar    1  LIG1        0.0160
     29 C          -1.6580    0.3540    0.0000 C.ar    1  LIG1        0.0212
     30 O          -0.1130   -1.5670    0.0000 O.2     1  LIG1       -0.1528
     31 O          -0.1130    0.4960    0.0000 O.2     1  LIG1       -0.1528
@<TRIPOS>BOND
     1     1     2    1
     2     1    15    1
     3     1    30    2
     4     1    31    2
     5     2     3    1
     6     2     7    1
     7     3     4    1
     8     4     5    1
     9     5     6    1
    10     5     8    1
    11     6     7    1
    12     8     9    1
    13     9    10   ar
    14     9    14   ar
    15    10    11   ar
    16    11    12   ar
    17    12    13   ar
    18    13    14   ar
    19    15    16   ar
    20    15    29   ar
    21    16    17   ar
    22    17    18   ar
    23    17    26    1
    24    18    19    1
    25    18    28   ar
    26    19    20   am
    27    19    25    1
    28    20    21    1
    29    20    24    2
    30    21    22    1
    31    21    23    1
    32    22    23    1
    33    25    26    1
    34    25    27    1
    35    28    29   ar
