@<TRIPOS>MOLECULE
37118_ChemDiv_C430-0339
 23 25 0 0 0
SMALL
GASTEIGER
Energy = 0

@<TRIPOS>ATOM
      1 N          -0.4580    0.9960    0.0000 N.ar    1  LIG1       -0.2960
      2 C           0.1330    1.8000    0.0000 C.ar    1  LIG1        0.1220
      3 N          -0.4580    2.6170    0.0000 N.ar    1  LIG1       -0.2293
      4 C          -1.4080    2.3000    0.0000 C.ar    1  LIG1        0.1167
      5 C          -1.4080    1.3080    0.0000 C.ar    1  LIG1        0.1627
      6 N          -2.2750    0.7960    0.0000 N.ar    1  LIG1       -0.2252
      7 C          -3.1380    1.3000    0.0000 C.ar    1  LIG1        0.1006
      8 C          -3.1380    2.2960    0.0000 C.ar    1  LIG1        0.0223
      9 C          -2.2750    2.8000    0.0000 C.ar    1  LIG1        0.0238
     10 C           1.1330    1.8000    0.0000 C.3     1  LIG1        0.0699
     11 C           1.6290    0.9380    0.0000 C.3     1  LIG1        0.0496
     12 C           2.6250    0.9380    0.0000 C.2     1  LIG1        0.0508
     13 O           3.1290    1.8080    0.0000 O.co2   1  LIG1       -0.5492
     14 O           3.1330    0.0790    0.0000 O.co2   1  LIG1       -0.5492
     15 C          -0.1460    0.0420    0.0000 C.3     1  LIG1        0.1383
     16 C          -0.8210   -0.7000    0.0000 C.ar    1  LIG1        0.0345
     17 C          -0.5040   -1.6420    0.0000 C.ar    1  LIG1        0.1365
     18 O           0.4750   -1.8460    0.0000 O.3     1  LIG1       -0.4717
     19 C           0.7830   -2.7960    0.0000 C.3     1  LIG1        0.2525
     20 C          -1.1670   -2.3830    0.0000 C.ar    1  LIG1        0.0366
     21 C          -2.1540   -2.1830    0.0000 C.ar    1  LIG1        0.0031
     22 C          -2.4630   -1.2250    0.0000 C.ar    1  LIG1       -0.0001
     23 C          -1.7880   -0.4880    0.0000 C.ar    1  LIG1        0.0006
@<TRIPOS>BOND
     1     1     2   ar
     2     1     5   ar
     3     1    15    1
     4     2     3   ar
     5     2    10    1
     6     3     4   ar
     7     4     5   ar
     8     4     9   ar
     9     5     6   ar
    10     6     7   ar
    11     7     8   ar
    12     8     9   ar
    13    10    11    1
    14    11    12    1
    15    12    13   ar
    16    12    14   ar
    17    15    16    1
    18    16    17   ar
    19    16    23   ar
    20    17    18    1
    21    17    20   ar
    22    18    19    1
    23    20    21   ar
    24    21    22   ar
    25    22    23   ar
