@<TRIPOS>MOLECULE
37119_ChemDiv_C361-1005
 29 32 0 0 0
SMALL
GASTEIGER
Energy = 0

@<TRIPOS>ATOM
      1 S           1.4830    0.8000    0.0000 S.O2    1  LIG1       -0.0578
      2 N           2.3500    1.2920    0.0000 N.pl3   1  LIG1       -0.5363
      3 C           3.2210    0.7880    0.0000 C.ar    1  LIG1       -0.1203
      4 C           3.2040   -0.1960    0.0000 C.ar    1  LIG1       -0.0445
      5 C           4.0580   -0.7000    0.0000 C.ar    1  LIG1       -0.0061
      6 C           4.9290   -0.2080    0.0000 C.ar    1  LIG1       -0.0008
      7 C           4.9420    0.7710    0.0000 C.ar    1  LIG1       -0.0061
      8 C           4.0880    1.2750    0.0000 C.ar    1  LIG1       -0.0445
      9 C           4.1000    2.2830    0.0000 C.3     1  LIG1        0.0245
     10 C           4.9830    2.7630    0.0000 C.3     1  LIG1        0.0050
     11 C           2.3500   -0.6830    0.0000 C.3     1  LIG1        0.0245
     12 C           2.3380   -1.6790    0.0000 C.3     1  LIG1        0.0050
     13 C           0.6130    0.2960    0.0000 C.ar    1  LIG1        0.0891
     14 C          -0.2540    0.8000    0.0000 C.ar    1  LIG1        0.0139
     15 C          -1.1210    0.2960    0.0000 C.ar    1  LIG1       -0.0055
     16 C          -1.1210   -0.7130    0.0000 C.ar    1  LIG1        0.0500
     17 N          -2.0750   -1.0210    0.0000 N.am    1  LIG1       -0.2586
     18 C          -2.5790   -1.8880    0.0000 C.2     1  LIG1        0.2288
     19 O          -2.0750   -2.7580    0.0000 O.2     1  LIG1       -0.2745
     20 C          -3.5750   -1.8880    0.0000 C.3     1  LIG1        0.0770
     21 C          -4.2880   -1.1750    0.0000 C.3     1  LIG1        0.0091
     22 C          -4.9880   -1.8880    0.0000 C.3     1  LIG1        0.0010
     23 C          -4.2880   -2.6040    0.0000 C.3     1  LIG1        0.0091
     24 C          -2.6630   -0.2080    0.0000 C.3     1  LIG1        0.1029
     25 C          -2.0750    0.6040    0.0000 C.3     1  LIG1        0.0495
     26 C          -0.2540   -1.2170    0.0000 C.ar    1  LIG1        0.0159
     27 C           0.6130   -0.7130    0.0000 C.ar    1  LIG1        0.0182
     28 O           0.9920    1.6670    0.0000 O.2     1  LIG1       -0.1842
     29 O           1.9880   -0.0670    0.0000 O.2     1  LIG1       -0.1842
@<TRIPOS>BOND
     1     1     2    1
     2     1    13    1
     3     1    28    2
     4     1    29    2
     5     2     3    1
     6     3     4   ar
     7     3     8   ar
     8     4     5   ar
     9     4    11    1
    10     5     6   ar
    11     6     7   ar
    12     7     8   ar
    13     8     9    1
    14     9    10    1
    15    11    12    1
    16    13    14   ar
    17    13    27   ar
    18    14    15   ar
    19    15    16   ar
    20    15    25    1
    21    16    17    1
    22    16    26   ar
    23    17    18   am
    24    17    24    1
    25    18    19    2
    26    18    20    1
    27    20    21    1
    28    20    23    1
    29    21    22    1
    30    22    23    1
    31    24    25    1
    32    26    27   ar
