@<TRIPOS>MOLECULE
37113_ChemDiv_E667-0061
 35 39 0 0 0
SMALL
GASTEIGER
Energy = 0

@<TRIPOS>ATOM
      1 S          -0.1830    0.0040    0.0000 S.O2    1  LIG1        0.0637
      2 N           0.8040    0.0040    0.0000 N.3     1  LIG1       -0.1433
      3 C           1.3000    0.9040    0.0000 C.3     1  LIG1        0.1585
      4 C           2.3170    0.8920    0.0000 C.3     1  LIG1        0.1587
      5 N           2.8210    0.0040    0.0000 N.4     1  LIG1        0.3815
      6 C           3.8170    0.0040    0.0000 C.3     1  LIG1        0.1331
      7 C           4.3210    0.8750    0.0000 C.ar    1  LIG1        0.0328
      8 C           5.3330    0.8670    0.0000 C.ar    1  LIG1        0.0016
      9 C           5.8380    1.7330    0.0000 C.ar    1  LIG1       -0.0001
     10 C           5.3330    2.6170    0.0000 C.ar    1  LIG1       -0.0000
     11 C           4.3210    2.6170    0.0000 C.ar    1  LIG1       -0.0001
     12 C           3.8170    1.7540    0.0000 C.ar    1  LIG1        0.0016
     13 C           4.3210   -0.8630    0.0000 C.ar    1  LIG1        0.0328
     14 C           3.8170   -1.7290    0.0000 C.ar    1  LIG1        0.0016
     15 C           4.3210   -2.6040    0.0000 C.ar    1  LIG1       -0.0001
     16 C           5.3330   -2.6130    0.0000 C.ar    1  LIG1       -0.0000
     17 C           5.8380   -1.7420    0.0000 C.ar    1  LIG1       -0.0001
     18 C           5.3330   -0.8710    0.0000 C.ar    1  LIG1        0.0016
     19 C           2.3170   -0.8460    0.0000 C.3     1  LIG1        0.1587
     20 C           1.3000   -0.8460    0.0000 C.3     1  LIG1        0.1585
     21 C          -1.1790    0.0040    0.0000 C.ar    1  LIG1        0.1220
     22 C          -1.6750    0.8670    0.0000 C.ar    1  LIG1        0.0169
     23 C          -2.6630    0.8670    0.0000 C.ar    1  LIG1       -0.0055
     24 C          -3.1580    0.0040    0.0000 C.ar    1  LIG1        0.0499
     25 N          -4.1290    0.2170    0.0000 N.am    1  LIG1       -0.2602
     26 C          -4.2290    1.2000    0.0000 C.3     1  LIG1        0.0842
     27 C          -3.3250    1.6000    0.0000 C.3     1  LIG1        0.0478
     28 C          -5.0880    1.6920    0.0000 C.3     1  LIG1        0.0222
     29 C          -4.9880   -0.2830    0.0000 C.2     1  LIG1        0.2298
     30 O          -5.8420    0.2170    0.0000 O.2     1  LIG1       -0.2745
     31 C          -4.9880   -1.2750    0.0000 C.3     1  LIG1        0.0952
     32 C          -2.6630   -0.8540    0.0000 C.ar    1  LIG1        0.0160
     33 C          -1.6750   -0.8540    0.0000 C.ar    1  LIG1        0.0212
     34 O          -0.1830   -0.9830    0.0000 O.2     1  LIG1       -0.1528
     35 O          -0.1830    0.9960    0.0000 O.2     1  LIG1       -0.1528
@<TRIPOS>BOND
     1     1     2    1
     2     1    21    1
     3     1    34    2
     4     1    35    2
     5     2     3    1
     6     2    20    1
     7     3     4    1
     8     4     5    1
     9     5     6    1
    10     5    19    1
    11     6     7    1
    12     6    13    1
    13     7     8   ar
    14     7    12   ar
    15     8     9   ar
    16     9    10   ar
    17    10    11   ar
    18    11    12   ar
    19    13    14   ar
    20    13    18   ar
    21    14    15   ar
    22    15    16   ar
    23    16    17   ar
    24    17    18   ar
    25    19    20    1
    26    21    22   ar
    27    21    33   ar
    28    22    23   ar
    29    23    24   ar
    30    23    27    1
    31    24    25    1
    32    24    32   ar
    33    25    26    1
    34    25    29   am
    35    26    27    1
    36    26    28    1
    37    29    30    2
    38    29    31    1
    39    32    33   ar
