@<TRIPOS>MOLECULE
37114_ChemDiv_C430-0146
 31 36 0 0 0
SMALL
GASTEIGER
Energy = 0

@<TRIPOS>ATOM
      1 N          -0.5670   -0.5580    0.0000 N.am    1  LIG1       -0.2526
      2 C          -1.1330   -1.3750    0.0000 C.3     1  LIG1        0.1931
      3 C          -2.0750   -1.0670    0.0000 C.ar    1  LIG1        0.0207
      4 C          -2.0750   -0.0790    0.0000 C.ar    1  LIG1        0.0529
      5 C          -1.1330    0.2170    0.0000 C.2     1  LIG1        0.2504
      6 O          -0.7830    1.1880    0.0000 O.2     1  LIG1       -0.2699
      7 C          -2.9210    0.4380    0.0000 C.ar    1  LIG1        0.0043
      8 C          -3.8080   -0.0790    0.0000 C.ar    1  LIG1        0.0001
      9 C          -3.8080   -1.0670    0.0000 C.ar    1  LIG1       -0.0002
     10 C          -2.9210   -1.5670    0.0000 C.ar    1  LIG1       -0.0008
     11 N          -0.7830   -2.3250    0.0000 N.pl3   1  LIG1       -0.2148
     12 C           0.2040   -2.4750    0.0000 C.ar    1  LIG1        0.0707
     13 C           0.8540   -1.7130    0.0000 C.ar    1  LIG1        0.0562
     14 C           1.8250   -1.8750    0.0000 C.ar    1  LIG1        0.1737
     15 C           2.1710   -2.8170    0.0000 C.ar    1  LIG1        0.1725
     16 O           3.1670   -2.9750    0.0000 O.3     1  LIG1       -0.4684
     17 C           3.8040   -2.2000    0.0000 C.3     1  LIG1        0.2526
     18 C           3.4420   -1.2710    0.0000 C.3     1  LIG1        0.2526
     19 O           2.4460   -1.1170    0.0000 O.3     1  LIG1       -0.4683
     20 C           1.5040   -3.5920    0.0000 C.ar    1  LIG1        0.0414
     21 C           0.5330   -3.4080    0.0000 C.ar    1  LIG1        0.0195
     22 C           0.4380   -0.5580    0.0000 C.3     1  LIG1        0.1224
     23 C           0.9250    0.3080    0.0000 C.ar    1  LIG1        0.0010
     24 C           0.4380    1.1750    0.0000 C.ar    1  LIG1        0.0376
     25 C           0.9250    2.0580    0.0000 C.ar    1  LIG1        0.1762
     26 C           1.9290    2.0420    0.0000 C.ar    1  LIG1        0.1764
     27 O           2.2130    3.0290    0.0000 O.3     1  LIG1       -0.4346
     28 C           1.4210    3.5960    0.0000 C.3     1  LIG1        0.4294
     29 O           0.5960    2.9960    0.0000 O.3     1  LIG1       -0.4346
     30 C           2.4290    1.1670    0.0000 C.ar    1  LIG1        0.0399
     31 C           1.9380    0.3080    0.0000 C.ar    1  LIG1        0.0007
@<TRIPOS>BOND
     1     1     2    1
     2     1     5   am
     3     1    22    1
     4     2     3    1
     5     2    11    1
     6     3     4   ar
     7     3    10   ar
     8     4     5    1
     9     4     7   ar
    10     5     6    2
    11     7     8   ar
    12     8     9   ar
    13     9    10   ar
    14    11    12    1
    15    12    13   ar
    16    12    21   ar
    17    13    14   ar
    18    14    15   ar
    19    14    19    1
    20    15    16    1
    21    15    20   ar
    22    16    17    1
    23    17    18    1
    24    18    19    1
    25    20    21   ar
    26    22    23    1
    27    23    24   ar
    28    23    31   ar
    29    24    25   ar
    30    25    26   ar
    31    25    29    1
    32    26    27    1
    33    26    30   ar
    34    27    28    1
    35    28    29    1
    36    30    31   ar
