@<TRIPOS>MOLECULE
37123_ChemDiv_C328-0140
 35 38 0 0 0
SMALL
GASTEIGER
Energy = 0

@<TRIPOS>ATOM
      1 O          -1.3960   -0.3830    0.0000 O.2     1  LIG1       -0.4130
      2 C          -0.5790    0.2080    0.0000 C.ar    1  LIG1        0.2785
      3 N          -0.8830    1.1540    0.0000 N.ar    1  LIG1       -0.1009
      4 N          -1.8830    1.1540    0.0000 N.ar    1  LIG1       -0.1091
      5 C          -2.1920    0.2130    0.0000 C.ar    1  LIG1        0.2488
      6 C          -3.1460   -0.0960    0.0000 C.3     1  LIG1        0.2016
      7 N          -3.8880    0.5710    0.0000 N.am    1  LIG1       -0.1921
      8 C          -4.8420    0.2630    0.0000 C.2     1  LIG1        0.2863
      9 O          -5.0420   -0.7040    0.0000 O.2     1  LIG1       -0.2693
     10 C          -5.5830    0.9380    0.0000 C.3     1  LIG1        0.2911
     11 O          -6.5170    0.6330    0.0000 O.3     1  LIG1       -0.4656
     12 C          -6.7170   -0.3420    0.0000 C.ar    1  LIG1        0.1393
     13 C          -5.9960   -1.0040    0.0000 C.ar    1  LIG1        0.0378
     14 C          -6.2040   -1.9830    0.0000 C.ar    1  LIG1        0.0145
     15 C          -7.1670   -2.2920    0.0000 C.ar    1  LIG1        0.0579
     16 CL         -7.3750   -3.2830    0.0000 Cl      1  LIG1       -0.0822
     17 C          -7.8960   -1.6250    0.0000 C.ar    1  LIG1        0.0145
     18 C          -7.6790   -0.6420    0.0000 C.ar    1  LIG1        0.0378
     19 S           0.3710   -0.1080    0.0000 S.3     1  LIG1       -0.0455
     20 C           1.1130    0.5670    0.0000 C.3     1  LIG1        0.1516
     21 C           2.0540    0.2630    0.0000 C.2     1  LIG1        0.2371
     22 N           2.7960    0.9290    0.0000 N.am    1  LIG1       -0.2788
     23 C           3.7330    0.6210    0.0000 C.3     1  LIG1        0.0934
     24 C           4.4880    1.2830    0.0000 C.3     1  LIG1        0.0219
     25 C           4.2920    2.2670    0.0000 C.3     1  LIG1        0.0078
     26 C           5.0330    2.9420    0.0000 C.3     1  LIG1        0.0265
     27 C           5.9960    2.6250    0.0000 C.ar    1  LIG1       -0.0222
     28 C           6.7250    3.2880    0.0000 C.ar    1  LIG1       -0.0043
     29 C           7.6790    2.9880    0.0000 C.ar    1  LIG1       -0.0003
     30 C           7.8960    1.9920    0.0000 C.ar    1  LIG1       -0.0000
     31 C           7.1330    1.3250    0.0000 C.ar    1  LIG1       -0.0003
     32 C           6.1960    1.6380    0.0000 C.ar    1  LIG1       -0.0043
     33 C           3.3420    2.5790    0.0000 C.3     1  LIG1        0.0219
     34 C           2.5830    1.9000    0.0000 C.3     1  LIG1        0.0934
     35 O           2.2500   -0.7210    0.0000 O.2     1  LIG1       -0.2739
@<TRIPOS>BOND
     1     1     2   ar
     2     1     5   ar
     3     2     3   ar
     4     2    19    1
     5     3     4   ar
     6     4     5   ar
     7     5     6    1
     8     6     7    1
     9     7     8   am
    10     8     9    2
    11     8    10    1
    12    10    11    1
    13    11    12    1
    14    12    13   ar
    15    12    18   ar
    16    13    14   ar
    17    14    15   ar
    18    15    16    1
    19    15    17   ar
    20    17    18   ar
    21    19    20    1
    22    20    21    1
    23    21    22   am
    24    21    35    2
    25    22    23    1
    26    22    34    1
    27    23    24    1
    28    24    25    1
    29    25    26    1
    30    25    33    1
    31    26    27    1
    32    27    28   ar
    33    27    32   ar
    34    28    29   ar
    35    29    30   ar
    36    30    31   ar
    37    31    32   ar
    38    33    34    1
