@<TRIPOS>MOLECULE
37120_ChemDiv_C614-0565
 23 25 0 0 0
SMALL
GASTEIGER
Energy = 0

@<TRIPOS>ATOM
      1 N          -0.1250    1.0630    0.0000 N.ar    1  LIG1       -0.2961
      2 C           0.4670    1.8630    0.0000 C.ar    1  LIG1        0.1220
      3 N          -0.1250    2.6830    0.0000 N.ar    1  LIG1       -0.2293
      4 C          -1.0750    2.3630    0.0000 C.ar    1  LIG1        0.1167
      5 C          -1.0750    1.3670    0.0000 C.ar    1  LIG1        0.1627
      6 N          -1.9420    0.8670    0.0000 N.ar    1  LIG1       -0.2252
      7 C          -2.8040    1.3670    0.0000 C.ar    1  LIG1        0.1006
      8 C          -2.8040    2.3630    0.0000 C.ar    1  LIG1        0.0223
      9 C          -1.9420    2.8630    0.0000 C.ar    1  LIG1        0.0238
     10 C           1.4670    1.8630    0.0000 C.3     1  LIG1        0.0699
     11 C           1.9670    1.0000    0.0000 C.3     1  LIG1        0.0496
     12 C           2.9670    1.0000    0.0000 C.2     1  LIG1        0.0508
     13 O           3.4670    1.8710    0.0000 O.co2   1  LIG1       -0.5492
     14 O           3.4670    0.1380    0.0000 O.co2   1  LIG1       -0.5492
     15 C           0.1880    0.1080    0.0000 C.3     1  LIG1        0.1353
     16 C          -0.4880   -0.6330    0.0000 C.ar    1  LIG1        0.0007
     17 C          -1.4540   -0.4210    0.0000 C.ar    1  LIG1        0.0007
     18 C          -2.1250   -1.1630    0.0000 C.ar    1  LIG1        0.0366
     19 C          -1.8210   -2.1170    0.0000 C.ar    1  LIG1        0.1387
     20 C          -0.8330   -2.3250    0.0000 C.ar    1  LIG1        0.0366
     21 C          -0.1670   -1.5830    0.0000 C.ar    1  LIG1        0.0007
     22 O          -2.4830   -2.8580    0.0000 O.3     1  LIG1       -0.4714
     23 C          -3.4710   -2.6580    0.0000 C.3     1  LIG1        0.2525
@<TRIPOS>BOND
     1     1     2   ar
     2     1     5   ar
     3     1    15    1
     4     2     3   ar
     5     2    10    1
     6     3     4   ar
     7     4     5   ar
     8     4     9   ar
     9     5     6   ar
    10     6     7   ar
    11     7     8   ar
    12     8     9   ar
    13    10    11    1
    14    11    12    1
    15    12    13   ar
    16    12    14   ar
    17    15    16    1
    18    16    17   ar
    19    16    21   ar
    20    17    18   ar
    21    18    19   ar
    22    19    20   ar
    23    19    22    1
    24    20    21   ar
    25    22    23    1
