@<TRIPOS>MOLECULE
37121_ChemDiv_C328-0114
 36 39 0 0 0
SMALL
GASTEIGER
Energy = 0

@<TRIPOS>ATOM
      1 O           2.6830    0.8580    0.0000 O.2     1  LIG1       -0.4130
      2 C           3.5040    1.4460    0.0000 C.ar    1  LIG1        0.2785
      3 N           3.1920    2.3920    0.0000 N.ar    1  LIG1       -0.1009
      4 N           2.1960    2.3920    0.0000 N.ar    1  LIG1       -0.1091
      5 C           1.8830    1.4460    0.0000 C.ar    1  LIG1        0.2488
      6 C           0.9290    1.1420    0.0000 C.3     1  LIG1        0.2018
      7 N           0.1920    1.8130    0.0000 N.am    1  LIG1       -0.1915
      8 C          -0.7630    1.4960    0.0000 C.2     1  LIG1        0.2654
      9 C          -1.5040    2.1710    0.0000 C.ar    1  LIG1        0.0613
     10 C          -2.4670    1.8630    0.0000 C.ar    1  LIG1        0.0448
     11 C          -3.1880    2.5380    0.0000 C.ar    1  LIG1        0.1756
     12 C          -2.9920    3.5000    0.0000 C.ar    1  LIG1        0.2061
     13 C          -2.0210    3.8040    0.0000 C.ar    1  LIG1        0.1756
     14 C          -1.2960    3.1210    0.0000 C.ar    1  LIG1        0.0448
     15 O          -1.8080    4.7830    0.0000 O.3     1  LIG1       -0.4683
     16 C          -0.8710    5.1000    0.0000 C.3     1  LIG1        0.2526
     17 O          -3.7130    4.1750    0.0000 O.3     1  LIG1       -0.4654
     18 C          -4.6830    3.8960    0.0000 C.3     1  LIG1        0.2528
     19 O          -4.1500    2.2380    0.0000 O.3     1  LIG1       -0.4683
     20 C          -4.3630    1.2540    0.0000 C.3     1  LIG1        0.2526
     21 O          -0.9750    0.5210    0.0000 O.2     1  LIG1       -0.2684
     22 S           4.4500    1.1290    0.0000 S.3     1  LIG1       -0.0454
     23 C           4.6540    0.1580    0.0000 C.3     1  LIG1        0.1535
     24 C           3.9130   -0.5130    0.0000 C.2     1  LIG1        0.2571
     25 N           4.0920   -1.4880    0.0000 N.am    1  LIG1       -0.1785
     26 C           3.3460   -2.1540    0.0000 C.ar    1  LIG1        0.0734
     27 C           3.5330   -3.1380    0.0000 C.ar    1  LIG1        0.0153
     28 C           2.7880   -3.8040    0.0000 C.ar    1  LIG1        0.0013
     29 C           1.8380   -3.4880    0.0000 C.ar    1  LIG1        0.0001
     30 C           1.6250   -2.4960    0.0000 C.ar    1  LIG1        0.0013
     31 C           2.3830   -1.8330    0.0000 C.ar    1  LIG1        0.0166
     32 C           2.9830   -4.7830    0.0000 C.ar    1  LIG1        0.0000
     33 C           3.9130   -5.1000    0.0000 C.ar    1  LIG1        0.0000
     34 C           4.6790   -4.4420    0.0000 C.ar    1  LIG1        0.0000
     35 C           4.4830   -3.4580    0.0000 C.ar    1  LIG1        0.0013
     36 O           2.9580   -0.1880    0.0000 O.2     1  LIG1       -0.2720
@<TRIPOS>BOND
     1     1     2   ar
     2     1     5   ar
     3     2     3   ar
     4     2    22    1
     5     3     4   ar
     6     4     5   ar
     7     5     6    1
     8     6     7    1
     9     7     8   am
    10     8     9    1
    11     8    21    2
    12     9    10   ar
    13     9    14   ar
    14    10    11   ar
    15    11    12   ar
    16    11    19    1
    17    12    13   ar
    18    12    17    1
    19    13    14   ar
    20    13    15    1
    21    15    16    1
    22    17    18    1
    23    19    20    1
    24    22    23    1
    25    23    24    1
    26    24    25   am
    27    24    36    2
    28    25    26    1
    29    26    27   ar
    30    26    31   ar
    31    27    28   ar
    32    27    35   ar
    33    28    29   ar
    34    28    32   ar
    35    29    30   ar
    36    30    31   ar
    37    32    33   ar
    38    33    34   ar
    39    34    35   ar
