@<TRIPOS>MOLECULE
37124_ChemDiv_C447-1034
 31 35 0 0 0
SMALL
GASTEIGER
Energy = 0

@<TRIPOS>ATOM
      1 C           0.4500    2.3540    0.0000 C.2     1  LIG1        0.2491
      2 N          -0.1380    3.1750    0.0000 N.am    1  LIG1       -0.2736
      3 C           0.4500    3.9750    0.0000 C.3     1  LIG1        0.1205
      4 C           1.3920    3.6710    0.0000 C.ar    1  LIG1        0.0022
      5 C           1.3920    2.6710    0.0000 C.ar    1  LIG1        0.0556
      6 C           2.2540    2.1750    0.0000 C.ar    1  LIG1        0.0577
      7 C           2.2540    1.1750    0.0000 C.2     1  LIG1        0.2492
      8 N           1.3920    0.6790    0.0000 N.am    1  LIG1       -0.2726
      9 C           0.7880    0.0540    0.0000 C.3     1  LIG1        0.1152
     10 C           0.7880   -0.9540    0.0000 C.3     1  LIG1        0.1153
     11 N          -0.0920   -1.4580    0.0000 N.am    1  LIG1       -0.2701
     12 C          -0.0920   -2.4750    0.0000 C.2     1  LIG1        0.2839
     13 C          -0.9670   -2.9710    0.0000 C.ar    1  LIG1        0.1987
     14 O          -1.1040   -3.9880    0.0000 O.2     1  LIG1       -0.4458
     15 C          -2.0880   -4.1710    0.0000 C.ar    1  LIG1        0.1798
     16 C          -2.5880   -3.2920    0.0000 C.ar    1  LIG1        0.0440
     17 C          -1.9040   -2.5460    0.0000 C.ar    1  LIG1        0.0455
     18 O           0.7710   -2.9880    0.0000 O.2     1  LIG1       -0.2666
     19 C           0.4080   -0.5630    0.0000 C.3     1  LIG1        0.1153
     20 C           0.4250    0.4210    0.0000 C.3     1  LIG1        0.1152
     21 O           3.1290    0.6790    0.0000 O.2     1  LIG1       -0.2699
     22 C           3.1290    2.6580    0.0000 C.ar    1  LIG1        0.0046
     23 C           3.1290    3.6580    0.0000 C.ar    1  LIG1       -0.0001
     24 C           2.2540    4.1710    0.0000 C.ar    1  LIG1       -0.0025
     25 C          -1.1330    3.1750    0.0000 C.3     1  LIG1        0.0759
     26 C          -1.6330    2.3210    0.0000 C.3     1  LIG1        0.0198
     27 C          -2.6330    2.3250    0.0000 C.3     1  LIG1        0.0017
     28 C          -3.1330    3.2040    0.0000 C.3     1  LIG1        0.0001
     29 C          -2.6290    4.0500    0.0000 C.3     1  LIG1        0.0017
     30 C          -1.6290    4.0500    0.0000 C.3     1  LIG1        0.0198
     31 O           0.1330    1.4130    0.0000 O.2     1  LIG1       -0.2699
@<TRIPOS>BOND
     1     1     2   am
     2     1     5    1
     3     1    31    2
     4     2     3    1
     5     2    25    1
     6     3     4    1
     7     4     5   ar
     8     4    24   ar
     9     5     6   ar
    10     6     7    1
    11     6    22   ar
    12     7     8   am
    13     7    21    2
    14     8     9    1
    15     8    20    1
    16     9    10    1
    17    10    11    1
    18    11    12   am
    19    11    19    1
    20    12    13    1
    21    12    18    2
    22    13    14   ar
    23    13    17   ar
    24    14    15   ar
    25    15    16   ar
    26    16    17   ar
    27    19    20    1
    28    22    23   ar
    29    23    24   ar
    30    25    26    1
    31    25    30    1
    32    26    27    1
    33    27    28    1
    34    28    29    1
    35    29    30    1
