@<TRIPOS>MOLECULE
37127_ChemDiv_C328-0417
 25 27 0 0 0
SMALL
GASTEIGER
Energy = 0

@<TRIPOS>ATOM
      1 O           1.8540    1.4580    0.0000 O.2     1  LIG1       -0.4130
      2 C           2.6710    2.0500    0.0000 C.ar    1  LIG1        0.2785
      3 N           2.3630    2.9960    0.0000 N.ar    1  LIG1       -0.1009
      4 N           1.3630    2.9960    0.0000 N.ar    1  LIG1       -0.1091
      5 C           1.0500    2.0500    0.0000 C.ar    1  LIG1        0.2488
      6 C           0.0960    1.7460    0.0000 C.3     1  LIG1        0.2019
      7 N          -0.6460    2.4130    0.0000 N.am    1  LIG1       -0.1889
      8 C          -1.6000    2.1000    0.0000 C.2     1  LIG1        0.3000
      9 C          -2.3420    2.7790    0.0000 C.ar    1  LIG1        0.2002
     10 O          -3.3250    2.5790    0.0000 O.2     1  LIG1       -0.4458
     11 C          -3.8250    3.4380    0.0000 C.ar    1  LIG1        0.1798
     12 C          -3.1420    4.1710    0.0000 C.ar    1  LIG1        0.0440
     13 C          -2.2330    3.7420    0.0000 C.ar    1  LIG1        0.0455
     14 O          -1.8080    1.1290    0.0000 O.2     1  LIG1       -0.2650
     15 S           3.6210    1.7330    0.0000 S.3     1  LIG1       -0.0454
     16 C           3.8210    0.7630    0.0000 C.3     1  LIG1        0.1532
     17 C           3.0750    0.0830    0.0000 C.2     1  LIG1        0.2529
     18 N           3.2880   -0.8960    0.0000 N.am    1  LIG1       -0.2021
     19 C           2.5500   -1.5670    0.0000 C.3     1  LIG1        0.1445
     20 C           2.7710   -2.5500    0.0000 C.3     1  LIG1        0.1369
     21 O           3.6830   -2.9540    0.0000 O.3     1  LIG1       -0.3544
     22 C           3.5790   -3.9540    0.0000 C.3     1  LIG1        0.1422
     23 C           2.5960   -4.1710    0.0000 C.3     1  LIG1        0.0346
     24 C           2.0960   -3.3040    0.0000 C.3     1  LIG1        0.0340
     25 O           2.1250    0.3880    0.0000 O.2     1  LIG1       -0.2724
@<TRIPOS>BOND
     1     1     2   ar
     2     1     5   ar
     3     2     3   ar
     4     2    15    1
     5     3     4   ar
     6     4     5   ar
     7     5     6    1
     8     6     7    1
     9     7     8   am
    10     8     9    1
    11     8    14    2
    12     9    10   ar
    13     9    13   ar
    14    10    11   ar
    15    11    12   ar
    16    12    13   ar
    17    15    16    1
    18    16    17    1
    19    17    18   am
    20    17    25    2
    21    18    19    1
    22    19    20    1
    23    20    21    1
    24    20    24    1
    25    21    22    1
    26    22    23    1
    27    23    24    1
