@<TRIPOS>MOLECULE
37128_ChemDiv_C447-1579
 36 40 0 0 0
SMALL
GASTEIGER
Energy = 0

@<TRIPOS>ATOM
      1 C          -0.0580    1.5960    0.0000 C.2     1  LIG1        0.2491
      2 N           0.9500    1.7130    0.0000 N.am    1  LIG1       -0.2735
      3 C           1.3580    0.7960    0.0000 C.3     1  LIG1        0.1205
      4 C           0.6130    0.1080    0.0000 C.ar    1  LIG1        0.0022
      5 C          -0.2710    0.6130    0.0000 C.ar    1  LIG1        0.0557
      6 C          -1.1290    0.1040    0.0000 C.ar    1  LIG1        0.0595
      7 C          -2.0080    0.6040    0.0000 C.2     1  LIG1        0.2691
      8 N          -2.8830    0.1040    0.0000 N.am    1  LIG1       -0.1754
      9 C          -2.8830   -0.9130    0.0000 C.ar    1  LIG1        0.0737
     10 C          -3.7540   -1.4130    0.0000 C.ar    1  LIG1        0.0165
     11 C          -3.7630   -2.4210    0.0000 C.ar    1  LIG1        0.0028
     12 C          -2.8830   -2.9250    0.0000 C.ar    1  LIG1        0.0345
     13 C          -2.8790   -3.9460    0.0000 C.3     1  LIG1        0.1662
     14 N          -3.7540   -4.4630    0.0000 N.4     1  LIG1        0.3807
     15 C          -4.7130   -4.1580    0.0000 C.3     1  LIG1        0.1392
     16 C          -5.2960   -4.9790    0.0000 C.3     1  LIG1        0.0689
     17 C          -4.7000   -5.7880    0.0000 C.3     1  LIG1        0.0689
     18 C          -3.7500   -5.4710    0.0000 C.3     1  LIG1        0.1392
     19 C          -2.0080   -2.4290    0.0000 C.ar    1  LIG1        0.0028
     20 C          -2.0080   -1.4130    0.0000 C.ar    1  LIG1        0.0165
     21 O          -2.0080    1.5750    0.0000 O.2     1  LIG1       -0.2680
     22 C          -1.1290   -0.9130    0.0000 C.ar    1  LIG1        0.0047
     23 C          -0.2580   -1.4130    0.0000 C.ar    1  LIG1       -0.0001
     24 C           0.6290   -0.9040    0.0000 C.ar    1  LIG1       -0.0025
     25 C           1.4380    2.5960    0.0000 C.3     1  LIG1        0.0794
     26 C           2.4540    2.5960    0.0000 C.3     1  LIG1        0.0415
     27 C           2.9460    3.4710    0.0000 C.3     1  LIG1        0.0984
     28 N           2.4460    4.3460    0.0000 N.am    1  LIG1       -0.2459
     29 C           2.7630    4.9170    0.0000 C.2     1  LIG1        0.4049
     30 O           2.2630    5.7880    0.0000 O.2     1  LIG1       -0.2262
     31 O           3.7710    4.9290    0.0000 O.3     1  LIG1       -0.4345
     32 C           4.2750    4.0580    0.0000 C.3     1  LIG1        0.2102
     33 C           5.2920    4.0580    0.0000 C.3     1  LIG1        0.0513
     34 C           1.4380    4.3330    0.0000 C.3     1  LIG1        0.0984
     35 C           0.9290    3.4540    0.0000 C.3     1  LIG1        0.0415
     36 O          -0.7460    2.3420    0.0000 O.2     1  LIG1       -0.2699
@<TRIPOS>BOND
     1     1     2   am
     2     1     5    1
     3     1    36    2
     4     2     3    1
     5     2    25    1
     6     3     4    1
     7     4     5   ar
     8     4    24   ar
     9     5     6   ar
    10     6     7    1
    11     6    22   ar
    12     7     8   am
    13     7    21    2
    14     8     9    1
    15     9    10   ar
    16     9    20   ar
    17    10    11   ar
    18    11    12   ar
    19    12    13    1
    20    12    19   ar
    21    13    14    1
    22    14    15    1
    23    14    18    1
    24    15    16    1
    25    16    17    1
    26    17    18    1
    27    19    20   ar
    28    22    23   ar
    29    23    24   ar
    30    25    26    1
    31    25    35    1
    32    26    27    1
    33    27    28    1
    34    28    29   am
    35    28    34    1
    36    29    30    2
    37    29    31    1
    38    31    32    1
    39    32    33    1
    40    34    35    1
