@<TRIPOS>MOLECULE
37126_ChemDiv_C447-1539
 39 43 0 0 0
SMALL
GASTEIGER
Energy = 0

@<TRIPOS>ATOM
      1 S          -3.6000   -3.3380    0.0000 S.O2    1  LIG1        0.0633
      2 N          -3.6080   -4.3420    0.0000 N.3     1  LIG1       -0.1555
      3 C          -2.7330   -4.8540    0.0000 C.3     1  LIG1        0.0958
      4 C          -2.7330   -5.8630    0.0000 C.3     1  LIG1        0.0192
      5 C          -3.6080   -6.3670    0.0000 C.3     1  LIG1        0.0030
      6 C          -4.4880   -5.8630    0.0000 C.3     1  LIG1        0.0192
      7 C          -4.4750   -4.8420    0.0000 C.3     1  LIG1        0.0958
      8 C          -3.6000   -2.3130    0.0000 C.ar    1  LIG1        0.1223
      9 C          -2.7330   -1.8080    0.0000 C.ar    1  LIG1        0.0212
     10 C          -2.7330   -0.8040    0.0000 C.ar    1  LIG1        0.0180
     11 C          -3.6080   -0.3170    0.0000 C.ar    1  LIG1        0.0738
     12 N          -3.6080    0.6830    0.0000 N.am    1  LIG1       -0.1754
     13 C          -2.7330    1.1880    0.0000 C.2     1  LIG1        0.2691
     14 C          -1.8500    0.6830    0.0000 C.ar    1  LIG1        0.0595
     15 C          -0.9960    1.1880    0.0000 C.ar    1  LIG1        0.0557
     16 C          -0.7790    2.1750    0.0000 C.2     1  LIG1        0.2491
     17 N           0.2250    2.2880    0.0000 N.am    1  LIG1       -0.2735
     18 C           0.6330    1.3710    0.0000 C.3     1  LIG1        0.1205
     19 C          -0.1080    0.6830    0.0000 C.ar    1  LIG1        0.0022
     20 C          -0.0960   -0.3210    0.0000 C.ar    1  LIG1       -0.0025
     21 C          -0.9790   -0.8330    0.0000 C.ar    1  LIG1       -0.0001
     22 C          -1.8500   -0.3290    0.0000 C.ar    1  LIG1        0.0047
     23 C           0.7080    3.1670    0.0000 C.3     1  LIG1        0.0794
     24 C           1.7290    3.1710    0.0000 C.3     1  LIG1        0.0415
     25 C           2.2170    4.0460    0.0000 C.3     1  LIG1        0.0984
     26 N           1.7130    4.9210    0.0000 N.am    1  LIG1       -0.2459
     27 C           2.0330    5.5250    0.0000 C.2     1  LIG1        0.4049
     28 O           1.4960    6.3670    0.0000 O.2     1  LIG1       -0.2262
     29 O           3.0500    5.5830    0.0000 O.3     1  LIG1       -0.4345
     30 C           3.5880    4.7380    0.0000 C.3     1  LIG1        0.2102
     31 C           4.6080    4.7830    0.0000 C.3     1  LIG1        0.0513
     32 C           0.7080    4.9130    0.0000 C.3     1  LIG1        0.0984
     33 C           0.2040    4.0290    0.0000 C.3     1  LIG1        0.0415
     34 O          -1.4670    2.9210    0.0000 O.2     1  LIG1       -0.2699
     35 O          -2.7330    2.1460    0.0000 O.2     1  LIG1       -0.2680
     36 C          -4.4670   -0.8080    0.0000 C.ar    1  LIG1        0.0180
     37 C          -4.4670   -1.8130    0.0000 C.ar    1  LIG1        0.0212
     38 O          -4.6130   -3.3210    0.0000 O.2     1  LIG1       -0.1528
     39 O          -2.5960   -3.3330    0.0000 O.2     1  LIG1       -0.1528
@<TRIPOS>BOND
     1     1     2    1
     2     1     8    1
     3     1    38    2
     4     1    39    2
     5     2     3    1
     6     2     7    1
     7     3     4    1
     8     4     5    1
     9     5     6    1
    10     6     7    1
    11     8     9   ar
    12     8    37   ar
    13     9    10   ar
    14    10    11   ar
    15    11    12    1
    16    11    36   ar
    17    12    13   am
    18    13    14    1
    19    13    35    2
    20    14    15   ar
    21    14    22   ar
    22    15    16    1
    23    15    19   ar
    24    16    17   am
    25    16    34    2
    26    17    18    1
    27    17    23    1
    28    18    19    1
    29    19    20   ar
    30    20    21   ar
    31    21    22   ar
    32    23    24    1
    33    23    33    1
    34    24    25    1
    35    25    26    1
    36    26    27   am
    37    26    32    1
    38    27    28    2
    39    27    29    1
    40    29    30    1
    41    30    31    1
    42    32    33    1
    43    36    37   ar
