@<TRIPOS>MOLECULE
37130_ChemDiv_C450-0401
 37 41 0 0 0
SMALL
GASTEIGER
Energy = 0

@<TRIPOS>ATOM
      1 S           1.8460   -0.2500    0.0000 S.O2    1  LIG1        0.0772
      2 N           1.1000   -1.3170    0.0000 N.3     1  LIG1       -0.0695
      3 C           0.1290   -1.2670    0.0000 C.3     1  LIG1        0.1794
      4 C          -0.3580   -0.4170    0.0000 C.2     1  LIG1        0.2597
      5 N          -1.3330   -0.4170    0.0000 N.am    1  LIG1       -0.2015
      6 C          -1.8170   -1.2670    0.0000 C.3     1  LIG1        0.1172
      7 C          -2.8210   -1.2880    0.0000 C.ar    1  LIG1       -0.0065
      8 C          -3.3380   -2.1670    0.0000 C.ar    1  LIG1       -0.0245
      9 C          -2.8630   -3.0750    0.0000 C.3     1  LIG1        0.0262
     10 C          -1.8080   -3.0460    0.0000 C.3     1  LIG1        0.0068
     11 C          -1.3000   -2.1670    0.0000 C.3     1  LIG1        0.0265
     12 C          -4.3960   -2.1960    0.0000 C.ar    1  LIG1       -0.0045
     13 C          -4.8580   -1.2880    0.0000 C.ar    1  LIG1       -0.0003
     14 C          -4.3540   -0.4080    0.0000 C.ar    1  LIG1       -0.0003
     15 C          -3.3380   -0.3880    0.0000 C.ar    1  LIG1       -0.0029
     16 O           0.1380    0.4210    0.0000 O.2     1  LIG1       -0.2718
     17 C          -0.4130   -2.0830    0.0000 C.3     1  LIG1        0.0551
     18 C           0.0880   -2.9290    0.0000 C.ar    1  LIG1       -0.0202
     19 C           1.0670   -2.9210    0.0000 C.ar    1  LIG1       -0.0042
     20 C           1.5670   -3.7580    0.0000 C.ar    1  LIG1       -0.0003
     21 C           1.0790   -4.6170    0.0000 C.ar    1  LIG1       -0.0000
     22 C           0.0960   -4.6170    0.0000 C.ar    1  LIG1       -0.0003
     23 C          -0.4000   -3.7710    0.0000 C.ar    1  LIG1       -0.0042
     24 C           2.3290    0.5960    0.0000 C.ar    1  LIG1        0.1233
     25 C           3.3040    0.5960    0.0000 C.ar    1  LIG1        0.0170
     26 C           3.7920    1.4460    0.0000 C.ar    1  LIG1       -0.0054
     27 C           3.3040    2.2920    0.0000 C.ar    1  LIG1        0.0500
     28 N           3.9540    3.0170    0.0000 N.am    1  LIG1       -0.2586
     29 C           3.7580    3.9710    0.0000 C.2     1  LIG1        0.2298
     30 O           4.4830    4.6170    0.0000 O.2     1  LIG1       -0.2745
     31 C           2.8290    4.2750    0.0000 C.3     1  LIG1        0.0952
     32 C           4.8540    2.6130    0.0000 C.3     1  LIG1        0.1029
     33 C           4.7420    1.6420    0.0000 C.3     1  LIG1        0.0495
     34 C           2.3210    2.2920    0.0000 C.ar    1  LIG1        0.0160
     35 C           1.8330    1.4460    0.0000 C.ar    1  LIG1        0.0212
     36 O           2.6920   -0.7380    0.0000 O.2     1  LIG1       -0.1516
     37 O           0.9670    0.2460    0.0000 O.2     1  LIG1       -0.1516
@<TRIPOS>BOND
     1     1     2    1
     2     1    24    1
     3     1    36    2
     4     1    37    2
     5     2     3    1
     6     3     4    1
     7     3    17    1
     8     4     5   am
     9     4    16    2
    10     5     6    1
    11     6     7    1
    12     6    11    1
    13     7     8   ar
    14     7    15   ar
    15     8     9    1
    16     8    12   ar
    17     9    10    1
    18    10    11    1
    19    12    13   ar
    20    13    14   ar
    21    14    15   ar
    22    17    18    1
    23    18    19   ar
    24    18    23   ar
    25    19    20   ar
    26    20    21   ar
    27    21    22   ar
    28    22    23   ar
    29    24    25   ar
    30    24    35   ar
    31    25    26   ar
    32    26    27   ar
    33    26    33    1
    34    27    28    1
    35    27    34   ar
    36    28    29   am
    37    28    32    1
    38    29    30    2
    39    29    31    1
    40    32    33    1
    41    34    35   ar
