@<TRIPOS>MOLECULE
37135_ChemDiv_C331-1341
 29 31 0 0 0
SMALL
GASTEIGER
Energy = 0

@<TRIPOS>ATOM
      1 N          -0.5460    0.1500    0.0000 N.ar    1  LIG1       -0.2189
      2 C          -1.5540    0.1500    0.0000 C.ar    1  LIG1        0.1264
      3 C          -1.8670    1.1080    0.0000 C.ar    1  LIG1        0.1064
      4 N          -1.0540    1.6880    0.0000 N.ar    1  LIG1       -0.2245
      5 C          -0.2420    1.1080    0.0000 C.ar    1  LIG1        0.1628
      6 C           0.7130    1.4080    0.0000 C.ar    1  LIG1        0.0360
      7 C           0.9080    2.3960    0.0000 C.ar    1  LIG1        0.0062
      8 C           1.8630    2.6920    0.0000 C.ar    1  LIG1        0.0370
      9 C           2.6130    2.0210    0.0000 C.ar    1  LIG1        0.1386
     10 C           2.4000    1.0500    0.0000 C.ar    1  LIG1        0.0370
     11 C           1.4500    0.7330    0.0000 C.ar    1  LIG1        0.0062
     12 O           3.5540    2.3380    0.0000 O.3     1  LIG1       -0.4755
     13 C           3.7670    3.3040    0.0000 C.3     1  LIG1        0.2055
     14 C           4.7210    3.6130    0.0000 C.3     1  LIG1        0.0512
     15 C          -2.8170    1.4080    0.0000 C.ar    1  LIG1        0.0197
     16 C          -3.0210    2.3960    0.0000 C.ar    1  LIG1        0.0016
     17 C          -3.9750    2.6920    0.0000 C.ar    1  LIG1        0.0000
     18 C          -4.7250    2.0330    0.0000 C.ar    1  LIG1        0.0000
     19 C          -4.5040    1.0500    0.0000 C.ar    1  LIG1        0.0000
     20 C          -3.5500    0.7330    0.0000 C.ar    1  LIG1        0.0016
     21 S          -2.1420   -0.6580    0.0000 S.3     1  LIG1       -0.0835
     22 C          -1.7460   -1.5790    0.0000 C.3     1  LIG1        0.1501
     23 C          -2.3250   -2.3920    0.0000 C.2     1  LIG1        0.2528
     24 O          -3.3210   -2.2880    0.0000 O.2     1  LIG1       -0.2724
     25 N          -1.9250   -3.3000    0.0000 N.am    1  LIG1       -0.2020
     26 C          -0.9290   -3.4040    0.0000 C.3     1  LIG1        0.1471
     27 C          -0.3460   -2.5920    0.0000 C.3     1  LIG1        0.1656
     28 O           0.6460   -2.6960    0.0000 O.3     1  LIG1       -0.3492
     29 C           1.0460   -3.6080    0.0000 C.3     1  LIG1        0.1742
@<TRIPOS>BOND
     1     1     2   ar
     2     1     5   ar
     3     2     3   ar
     4     2    21    1
     5     3     4   ar
     6     3    15    1
     7     4     5   ar
     8     5     6    1
     9     6     7   ar
    10     6    11   ar
    11     7     8   ar
    12     8     9   ar
    13     9    10   ar
    14     9    12    1
    15    10    11   ar
    16    12    13    1
    17    13    14    1
    18    15    16   ar
    19    15    20   ar
    20    16    17   ar
    21    17    18   ar
    22    18    19   ar
    23    19    20   ar
    24    21    22    1
    25    22    23    1
    26    23    24    2
    27    23    25   am
    28    25    26    1
    29    26    27    1
    30    27    28    1
    31    28    29    1
