@<TRIPOS>MOLECULE
37133_ChemDiv_C331-0962
 29 32 0 0 0
SMALL
GASTEIGER
Energy = 0

@<TRIPOS>ATOM
      1 N          -0.0710    0.6460    0.0000 N.ar    1  LIG1       -0.2189
      2 C          -1.0880    0.6460    0.0000 C.ar    1  LIG1        0.1264
      3 C          -1.3960    1.5960    0.0000 C.ar    1  LIG1        0.1064
      4 N          -0.5880    2.1880    0.0000 N.ar    1  LIG1       -0.2245
      5 C           0.2210    1.5960    0.0000 C.ar    1  LIG1        0.1628
      6 C           1.1750    1.9040    0.0000 C.ar    1  LIG1        0.0358
      7 C           1.3880    2.8750    0.0000 C.ar    1  LIG1        0.0035
      8 C           2.3380    3.1830    0.0000 C.ar    1  LIG1        0.0062
      9 C           3.0880    2.5130    0.0000 C.ar    1  LIG1        0.0252
     10 S           4.0370    2.8170    0.0000 S.3     1  LIG1       -0.1127
     11 C           4.2500    3.7880    0.0000 C.3     1  LIG1        0.0742
     12 C           2.8710    1.5380    0.0000 C.ar    1  LIG1        0.0062
     13 C           1.9210    1.2330    0.0000 C.ar    1  LIG1        0.0035
     14 C          -2.3460    1.9040    0.0000 C.ar    1  LIG1        0.0197
     15 C          -2.5500    2.8750    0.0000 C.ar    1  LIG1        0.0016
     16 C          -3.5040    3.1830    0.0000 C.ar    1  LIG1        0.0000
     17 C          -4.2540    2.5170    0.0000 C.ar    1  LIG1        0.0000
     18 C          -4.0330    1.5380    0.0000 C.ar    1  LIG1        0.0000
     19 C          -3.0830    1.2330    0.0000 C.ar    1  LIG1        0.0016
     20 S          -1.6750   -0.1750    0.0000 S.3     1  LIG1       -0.0835
     21 C          -1.2750   -1.0920    0.0000 C.3     1  LIG1        0.1505
     22 C          -1.8580   -1.9000    0.0000 C.2     1  LIG1        0.2587
     23 N          -1.4540   -2.8130    0.0000 N.am    1  LIG1       -0.1535
     24 C          -0.4630   -2.9170    0.0000 C.ar    1  LIG1        0.1859
     25 N           0.0330   -3.7830    0.0000 N.ar    1  LIG1       -0.2209
     26 C           1.0080   -3.5790    0.0000 C.ar    1  LIG1        0.1079
     27 C           1.1130   -2.5830    0.0000 C.ar    1  LIG1        0.0588
     28 S           0.2000   -2.1710    0.0000 S.2     1  LIG1       -0.0491
     29 O          -2.8540   -1.7920    0.0000 O.2     1  LIG1       -0.2720
@<TRIPOS>BOND
     1     1     2   ar
     2     1     5   ar
     3     2     3   ar
     4     2    20    1
     5     3     4   ar
     6     3    14    1
     7     4     5   ar
     8     5     6    1
     9     6     7   ar
    10     6    13   ar
    11     7     8   ar
    12     8     9   ar
    13     9    10    1
    14     9    12   ar
    15    10    11    1
    16    12    13   ar
    17    14    15   ar
    18    14    19   ar
    19    15    16   ar
    20    16    17   ar
    21    17    18   ar
    22    18    19   ar
    23    20    21    1
    24    21    22    1
    25    22    23   am
    26    22    29    2
    27    23    24    1
    28    24    25   ar
    29    24    28   ar
    30    25    26   ar
    31    26    27   ar
    32    27    28   ar
