@<TRIPOS>MOLECULE
37137_ChemDiv_C361-1081
 26 29 0 0 0
SMALL
GASTEIGER
Energy = 0

@<TRIPOS>ATOM
      1 S           1.9290    0.0170    0.0000 S.O2    1  LIG1       -0.0578
      2 C           1.0670   -0.4750    0.0000 C.ar    1  LIG1        0.0891
      3 C           0.1920    0.0170    0.0000 C.ar    1  LIG1        0.0139
      4 C          -0.6710   -0.4750    0.0000 C.ar    1  LIG1       -0.0055
      5 C          -0.6710   -1.4830    0.0000 C.ar    1  LIG1        0.0500
      6 N          -1.6290   -1.7920    0.0000 N.am    1  LIG1       -0.2586
      7 C          -2.1210   -2.6540    0.0000 C.2     1  LIG1        0.2288
      8 O          -1.6290   -3.5170    0.0000 O.2     1  LIG1       -0.2745
      9 C          -3.1170   -2.6540    0.0000 C.3     1  LIG1        0.0770
     10 C          -3.8330   -3.3580    0.0000 C.3     1  LIG1        0.0091
     11 C          -4.5380   -2.6540    0.0000 C.3     1  LIG1        0.0010
     12 C          -3.8330   -1.9500    0.0000 C.3     1  LIG1        0.0091
     13 C          -2.2130   -0.9790    0.0000 C.3     1  LIG1        0.1029
     14 C          -1.6290   -0.1710    0.0000 C.3     1  LIG1        0.0495
     15 C           0.1920   -1.9750    0.0000 C.ar    1  LIG1        0.0159
     16 C           1.0670   -1.4830    0.0000 C.ar    1  LIG1        0.0182
     17 N           2.7920    0.5210    0.0000 N.pl3   1  LIG1       -0.5358
     18 C           2.7920    1.5170    0.0000 C.ar    1  LIG1       -0.1126
     19 C           3.6580    2.0210    0.0000 C.ar    1  LIG1       -0.0281
     20 C           3.6580    3.0170    0.0000 C.ar    1  LIG1       -0.0236
     21 C           2.7920    3.5210    0.0000 C.ar    1  LIG1       -0.0044
     22 C           1.9290    3.0170    0.0000 C.ar    1  LIG1       -0.0022
     23 C           1.9290    2.0210    0.0000 C.ar    1  LIG1       -0.0239
     24 C           4.5330    3.5210    0.0000 C.3     1  LIG1        0.0310
     25 O           2.4210   -0.8460    0.0000 O.2     1  LIG1       -0.1842
     26 O           1.4250    0.8920    0.0000 O.2     1  LIG1       -0.1842
@<TRIPOS>BOND
     1     1     2    1
     2     1    17    1
     3     1    25    2
     4     1    26    2
     5     2     3   ar
     6     2    16   ar
     7     3     4   ar
     8     4     5   ar
     9     4    14    1
    10     5     6    1
    11     5    15   ar
    12     6     7   am
    13     6    13    1
    14     7     8    2
    15     7     9    1
    16     9    10    1
    17     9    12    1
    18    10    11    1
    19    11    12    1
    20    13    14    1
    21    15    16   ar
    22    17    18    1
    23    18    19   ar
    24    18    23   ar
    25    19    20   ar
    26    20    21   ar
    27    20    24    1
    28    21    22   ar
    29    22    23   ar
