@<TRIPOS>MOLECULE
37138_ChemDiv_C430-0438
 18 20 0 0 0
SMALL
GASTEIGER
Energy = 0

@<TRIPOS>ATOM
      1 N           0.7170    0.9960    0.0000 N.ar    1  LIG1       -0.2901
      2 C          -0.2380    1.3040    0.0000 C.ar    1  LIG1        0.1630
      3 C          -0.2380    2.3040    0.0000 C.ar    1  LIG1        0.1171
      4 N           0.7170    2.6170    0.0000 N.ar    1  LIG1       -0.2223
      5 C           1.3080    1.8040    0.0000 C.ar    1  LIG1        0.1799
      6 C          -1.1000    2.8040    0.0000 C.ar    1  LIG1        0.0238
      7 C          -1.9630    2.3040    0.0000 C.ar    1  LIG1        0.0223
      8 C          -1.9630    1.3000    0.0000 C.ar    1  LIG1        0.1006
      9 N          -1.1000    0.8000    0.0000 N.ar    1  LIG1       -0.2251
     10 C           1.0290    0.0420    0.0000 C.3     1  LIG1        0.1387
     11 C           0.3540   -0.7000    0.0000 C.ar    1  LIG1        0.0345
     12 C           0.6710   -1.6380    0.0000 C.ar    1  LIG1        0.1365
     13 O           1.6500   -1.8500    0.0000 O.3     1  LIG1       -0.4717
     14 C           1.9580   -2.8000    0.0000 C.3     1  LIG1        0.2525
     15 C           0.0040   -2.3790    0.0000 C.ar    1  LIG1        0.0366
     16 C          -0.9790   -2.1830    0.0000 C.ar    1  LIG1        0.0031
     17 C          -1.2880   -1.2290    0.0000 C.ar    1  LIG1       -0.0001
     18 C          -0.6170   -0.4880    0.0000 C.ar    1  LIG1        0.0006
@<TRIPOS>BOND
     1     1     2   ar
     2     1     5   ar
     3     1    10    1
     4     2     3   ar
     5     2     9   ar
     6     3     4   ar
     7     3     6   ar
     8     4     5   ar
     9     6     7   ar
    10     7     8   ar
    11     8     9   ar
    12    10    11    1
    13    11    12   ar
    14    11    18   ar
    15    12    13    1
    16    12    15   ar
    17    13    14    1
    18    15    16   ar
    19    16    17   ar
    20    17    18   ar
