@<TRIPOS>MOLECULE
37131_ChemDiv_C331-0391
 31 34 0 0 0
SMALL
GASTEIGER
Energy = 0

@<TRIPOS>ATOM
      1 N          -0.5500    1.3380    0.0000 N.ar    1  LIG1       -0.2189
      2 C          -1.5670    1.3380    0.0000 C.ar    1  LIG1        0.1264
      3 C          -1.8750    2.2790    0.0000 C.ar    1  LIG1        0.1064
      4 N          -1.0710    2.8580    0.0000 N.ar    1  LIG1       -0.2245
      5 C          -0.2380    2.2790    0.0000 C.ar    1  LIG1        0.1628
      6 C           0.7210    2.5790    0.0000 C.ar    1  LIG1        0.0360
      7 C           0.9290    3.5330    0.0000 C.ar    1  LIG1        0.0062
      8 C           1.8880    3.8420    0.0000 C.ar    1  LIG1        0.0370
      9 C           2.6420    3.1750    0.0000 C.ar    1  LIG1        0.1386
     10 C           2.4170    2.2170    0.0000 C.ar    1  LIG1        0.0370
     11 C           1.4580    1.9170    0.0000 C.ar    1  LIG1        0.0062
     12 O           3.5880    3.4790    0.0000 O.3     1  LIG1       -0.4755
     13 C           3.8000    4.4330    0.0000 C.3     1  LIG1        0.2055
     14 C           4.7580    4.7290    0.0000 C.3     1  LIG1        0.0512
     15 C          -2.8330    2.5790    0.0000 C.ar    1  LIG1        0.0197
     16 C          -3.5830    1.9170    0.0000 C.ar    1  LIG1        0.0016
     17 C          -4.5460    2.2170    0.0000 C.ar    1  LIG1        0.0000
     18 C          -4.7630    3.1960    0.0000 C.ar    1  LIG1        0.0000
     19 C          -4.0080    3.8420    0.0000 C.ar    1  LIG1        0.0000
     20 C          -3.0500    3.5330    0.0000 C.ar    1  LIG1        0.0016
     21 S          -2.1630    0.5380    0.0000 S.3     1  LIG1       -0.0835
     22 C          -1.7540   -0.3580    0.0000 C.3     1  LIG1        0.1501
     23 C          -2.3460   -1.1500    0.0000 C.2     1  LIG1        0.2532
     24 N          -1.9380   -2.0750    0.0000 N.am    1  LIG1       -0.1964
     25 C          -0.9330   -2.1830    0.0000 C.3     1  LIG1        0.1791
     26 C          -0.5210   -3.1080    0.0000 C.ar    1  LIG1        0.1449
     27 O           0.4580   -3.3170    0.0000 O.2     1  LIG1       -0.4529
     28 C           0.5580   -4.3210    0.0000 C.ar    1  LIG1        0.1792
     29 C          -0.3580   -4.7290    0.0000 C.ar    1  LIG1        0.0435
     30 C          -1.0290   -3.9750    0.0000 C.ar    1  LIG1        0.0380
     31 O          -3.3460   -1.0500    0.0000 O.2     1  LIG1       -0.2724
@<TRIPOS>BOND
     1     1     2   ar
     2     1     5   ar
     3     2     3   ar
     4     2    21    1
     5     3     4   ar
     6     3    15    1
     7     4     5   ar
     8     5     6    1
     9     6     7   ar
    10     6    11   ar
    11     7     8   ar
    12     8     9   ar
    13     9    10   ar
    14     9    12    1
    15    10    11   ar
    16    12    13    1
    17    13    14    1
    18    15    16   ar
    19    15    20   ar
    20    16    17   ar
    21    17    18   ar
    22    18    19   ar
    23    19    20   ar
    24    21    22    1
    25    22    23    1
    26    23    24   am
    27    23    31    2
    28    24    25    1
    29    25    26    1
    30    26    27   ar
    31    26    30   ar
    32    27    28   ar
    33    28    29   ar
    34    29    30   ar
