@<TRIPOS>MOLECULE
37139_ChemDiv_C361-1109
 27 30 0 0 0
SMALL
GASTEIGER
Energy = 0

@<TRIPOS>ATOM
      1 S           1.4830    1.3420    0.0000 S.O2    1  LIG1       -0.0577
      2 N           2.3500    1.8460    0.0000 N.pl3   1  LIG1       -0.5335
      3 C           3.2170    1.3420    0.0000 C.ar    1  LIG1       -0.0775
      4 C           3.2290    0.3500    0.0000 C.ar    1  LIG1        0.1167
      5 O           2.3790   -0.1670    0.0000 O.3     1  LIG1       -0.4733
      6 C           2.3920   -1.1710    0.0000 C.3     1  LIG1        0.2524
      7 C           4.1080   -0.1380    0.0000 C.ar    1  LIG1        0.0350
      8 C           4.9750    0.3790    0.0000 C.ar    1  LIG1        0.0030
      9 C           4.9460    1.3830    0.0000 C.ar    1  LIG1       -0.0017
     10 C           4.0670    1.8580    0.0000 C.ar    1  LIG1       -0.0209
     11 C           0.6210    0.8420    0.0000 C.ar    1  LIG1        0.0891
     12 C          -0.2460    1.3420    0.0000 C.ar    1  LIG1        0.0139
     13 C          -1.1130    0.8420    0.0000 C.ar    1  LIG1       -0.0055
     14 C          -1.1130   -0.1670    0.0000 C.ar    1  LIG1        0.0500
     15 N          -2.0630   -0.4710    0.0000 N.am    1  LIG1       -0.2586
     16 C          -2.5630   -1.3380    0.0000 C.2     1  LIG1        0.2288
     17 O          -2.0630   -2.2040    0.0000 O.2     1  LIG1       -0.2745
     18 C          -3.5710   -1.3380    0.0000 C.3     1  LIG1        0.0770
     19 C          -4.2670   -0.6250    0.0000 C.3     1  LIG1        0.0091
     20 C          -4.9790   -1.3380    0.0000 C.3     1  LIG1        0.0010
     21 C          -4.2670   -2.0380    0.0000 C.3     1  LIG1        0.0091
     22 C          -2.6500    0.3380    0.0000 C.3     1  LIG1        0.1029
     23 C          -2.0630    1.1460    0.0000 C.3     1  LIG1        0.0495
     24 C          -0.2460   -0.6540    0.0000 C.ar    1  LIG1        0.0159
     25 C           0.6210   -0.1670    0.0000 C.ar    1  LIG1        0.0182
     26 O           0.9830    2.2080    0.0000 O.2     1  LIG1       -0.1842
     27 O           1.9750    0.4750    0.0000 O.2     1  LIG1       -0.1842
@<TRIPOS>BOND
     1     1     2    1
     2     1    11    1
     3     1    26    2
     4     1    27    2
     5     2     3    1
     6     3     4   ar
     7     3    10   ar
     8     4     5    1
     9     4     7   ar
    10     5     6    1
    11     7     8   ar
    12     8     9   ar
    13     9    10   ar
    14    11    12   ar
    15    11    25   ar
    16    12    13   ar
    17    13    14   ar
    18    13    23    1
    19    14    15    1
    20    14    24   ar
    21    15    16   am
    22    15    22    1
    23    16    17    2
    24    16    18    1
    25    18    19    1
    26    18    21    1
    27    19    20    1
    28    20    21    1
    29    22    23    1
    30    24    25   ar
