@<TRIPOS>MOLECULE
37149_ChemDiv_E699-1371
 29 32 0 0 0
SMALL
GASTEIGER
Energy = 0

@<TRIPOS>ATOM
      1 S           1.3830    1.3420    0.0000 S.O2    1  LIG1       -0.0578
      2 C           0.3880    1.3420    0.0000 C.ar    1  LIG1        0.0891
      3 C          -0.1170    2.2080    0.0000 C.ar    1  LIG1        0.0139
      4 C          -1.1170    2.2080    0.0000 C.ar    1  LIG1       -0.0056
      5 C          -1.6170    1.3420    0.0000 C.ar    1  LIG1        0.0499
      6 N          -2.5960    1.5500    0.0000 N.am    1  LIG1       -0.2603
      7 C          -3.4630    1.0500    0.0000 C.2     1  LIG1        0.2288
      8 O          -4.3290    1.5500    0.0000 O.2     1  LIG1       -0.2745
      9 C          -3.4630    0.0460    0.0000 C.3     1  LIG1        0.0770
     10 C          -2.7540   -0.6630    0.0000 C.3     1  LIG1        0.0091
     11 C          -3.4630   -1.3710    0.0000 C.3     1  LIG1        0.0010
     12 C          -4.1710   -0.6630    0.0000 C.3     1  LIG1        0.0091
     13 C          -2.7000    2.5420    0.0000 C.3     1  LIG1        0.0842
     14 C          -1.7880    2.9500    0.0000 C.3     1  LIG1        0.0478
     15 C          -3.5670    3.0460    0.0000 C.3     1  LIG1        0.0222
     16 C          -1.1170    0.4750    0.0000 C.ar    1  LIG1        0.0159
     17 C          -0.1170    0.4750    0.0000 C.ar    1  LIG1        0.0182
     18 N           2.3830    1.3420    0.0000 N.pl3   1  LIG1       -0.5358
     19 C           2.8500    0.4540    0.0000 C.ar    1  LIG1       -0.1121
     20 C           3.8460    0.4250    0.0000 C.ar    1  LIG1       -0.0207
     21 C           4.3250   -0.4580    0.0000 C.ar    1  LIG1        0.0350
     22 C           3.8000   -1.3040    0.0000 C.ar    1  LIG1        0.1384
     23 C           2.8000   -1.2790    0.0000 C.ar    1  LIG1        0.0350
     24 C           2.3250   -0.3960    0.0000 C.ar    1  LIG1       -0.0207
     25 O           4.2830   -2.1830    0.0000 O.3     1  LIG1       -0.4755
     26 C           3.7710   -3.0420    0.0000 C.3     1  LIG1        0.2055
     27 C           2.7790   -3.0290    0.0000 C.3     1  LIG1        0.0512
     28 O           1.3830    2.3380    0.0000 O.2     1  LIG1       -0.1842
     29 O           1.3830    0.3420    0.0000 O.2     1  LIG1       -0.1842
@<TRIPOS>BOND
     1     1     2    1
     2     1    18    1
     3     1    28    2
     4     1    29    2
     5     2     3   ar
     6     2    17   ar
     7     3     4   ar
     8     4     5   ar
     9     4    14    1
    10     5     6    1
    11     5    16   ar
    12     6     7   am
    13     6    13    1
    14     7     8    2
    15     7     9    1
    16     9    10    1
    17     9    12    1
    18    10    11    1
    19    11    12    1
    20    13    14    1
    21    13    15    1
    22    16    17   ar
    23    18    19    1
    24    19    20   ar
    25    19    24   ar
    26    20    21   ar
    27    21    22   ar
    28    22    23   ar
    29    22    25    1
    30    23    24   ar
    31    25    26    1
    32    26    27    1
