@<TRIPOS>MOLECULE
37145_ChemDiv_E699-1348
 28 31 0 0 0
SMALL
GASTEIGER
Energy = 0

@<TRIPOS>ATOM
      1 S           1.3670    0.0750    0.0000 S.O2    1  LIG1       -0.0578
      2 N           2.3750    0.0750    0.0000 N.pl3   1  LIG1       -0.5363
      3 C           2.8750    0.9420    0.0000 C.ar    1  LIG1       -0.1203
      4 C           2.3710    1.7750    0.0000 C.ar    1  LIG1       -0.0442
      5 C           2.8710    2.6460    0.0000 C.ar    1  LIG1       -0.0061
      6 C           3.8580    2.6500    0.0000 C.ar    1  LIG1       -0.0008
      7 C           4.3500    1.7920    0.0000 C.ar    1  LIG1       -0.0061
      8 C           3.8500    0.9170    0.0000 C.ar    1  LIG1       -0.0442
      9 C           4.3630    0.0830    0.0000 C.3     1  LIG1        0.0291
     10 C           1.3880    1.8000    0.0000 C.3     1  LIG1        0.0291
     11 C           0.3630    0.0750    0.0000 C.ar    1  LIG1        0.0891
     12 C          -0.1380    0.9420    0.0000 C.ar    1  LIG1        0.0139
     13 C          -1.1420    0.9420    0.0000 C.ar    1  LIG1       -0.0056
     14 C          -1.6460    0.0750    0.0000 C.ar    1  LIG1        0.0499
     15 N          -2.6290    0.2830    0.0000 N.am    1  LIG1       -0.2603
     16 C          -3.4960   -0.2210    0.0000 C.2     1  LIG1        0.2288
     17 O          -4.3670    0.2830    0.0000 O.2     1  LIG1       -0.2745
     18 C          -3.4960   -1.2250    0.0000 C.3     1  LIG1        0.0770
     19 C          -4.2080   -1.9380    0.0000 C.3     1  LIG1        0.0091
     20 C          -3.4960   -2.6460    0.0000 C.3     1  LIG1        0.0010
     21 C          -2.7880   -1.9380    0.0000 C.3     1  LIG1        0.0091
     22 C          -2.7380    1.2830    0.0000 C.3     1  LIG1        0.0842
     23 C          -1.8170    1.6920    0.0000 C.3     1  LIG1        0.0478
     24 C          -3.6000    1.7830    0.0000 C.3     1  LIG1        0.0222
     25 C          -1.1420   -0.7960    0.0000 C.ar    1  LIG1        0.0159
     26 C          -0.1380   -0.7960    0.0000 C.ar    1  LIG1        0.0182
     27 O           1.3670   -0.9290    0.0000 O.2     1  LIG1       -0.1842
     28 O           1.3670    1.0750    0.0000 O.2     1  LIG1       -0.1842
@<TRIPOS>BOND
     1     1     2    1
     2     1    11    1
     3     1    27    2
     4     1    28    2
     5     2     3    1
     6     3     4   ar
     7     3     8   ar
     8     4     5   ar
     9     4    10    1
    10     5     6   ar
    11     6     7   ar
    12     7     8   ar
    13     8     9    1
    14    11    12   ar
    15    11    26   ar
    16    12    13   ar
    17    13    14   ar
    18    13    23    1
    19    14    15    1
    20    14    25   ar
    21    15    16   am
    22    15    22    1
    23    16    17    2
    24    16    18    1
    25    18    19    1
    26    18    21    1
    27    19    20    1
    28    20    21    1
    29    22    23    1
    30    22    24    1
    31    25    26   ar
