@<TRIPOS>MOLECULE
37141_ChemDiv_C361-1147
 28 31 0 0 0
SMALL
GASTEIGER
Energy = 0

@<TRIPOS>ATOM
      1 S           1.4920    1.0080    0.0000 S.O2    1  LIG1        0.0766
      2 N           2.3540    1.5080    0.0000 N.pl3   1  LIG1       -0.1891
      3 C           3.2210    1.0210    0.0000 C.ar    1  LIG1        0.0646
      4 C           4.0830    1.5210    0.0000 C.ar    1  LIG1       -0.0070
      5 C           4.9630    1.0210    0.0000 C.ar    1  LIG1       -0.0033
      6 C           4.9500    0.0170    0.0000 C.ar    1  LIG1       -0.0045
      7 C           4.0830   -0.4710    0.0000 C.ar    1  LIG1       -0.0206
      8 C           3.2210    0.0290    0.0000 C.ar    1  LIG1        0.0116
      9 C           4.0830   -1.4920    0.0000 C.3     1  LIG1        0.0311
     10 C           4.0710    2.5250    0.0000 C.3     1  LIG1        0.0324
     11 C           2.3540    2.5130    0.0000 C.3     1  LIG1        0.1391
     12 C           0.6250    0.5170    0.0000 C.ar    1  LIG1        0.1252
     13 C          -0.2380    1.0080    0.0000 C.ar    1  LIG1        0.0172
     14 C          -1.1040    0.5170    0.0000 C.ar    1  LIG1       -0.0054
     15 C          -1.1040   -0.4880    0.0000 C.ar    1  LIG1        0.0500
     16 N          -2.0540   -0.7920    0.0000 N.am    1  LIG1       -0.2586
     17 C          -2.5540   -1.6580    0.0000 C.2     1  LIG1        0.2288
     18 O          -2.0540   -2.5210    0.0000 O.2     1  LIG1       -0.2745
     19 C          -3.5580   -1.6580    0.0000 C.3     1  LIG1        0.0770
     20 C          -4.2710   -2.3710    0.0000 C.3     1  LIG1        0.0091
     21 C          -4.9670   -1.6580    0.0000 C.3     1  LIG1        0.0010
     22 C          -4.2710   -0.9630    0.0000 C.3     1  LIG1        0.0091
     23 C          -2.6540    0.0170    0.0000 C.3     1  LIG1        0.1029
     24 C          -2.0540    0.8250    0.0000 C.3     1  LIG1        0.0495
     25 C          -0.2380   -0.9880    0.0000 C.ar    1  LIG1        0.0160
     26 C           0.6250   -0.4880    0.0000 C.ar    1  LIG1        0.0214
     27 O           0.9880    1.8710    0.0000 O.2     1  LIG1       -0.1497
     28 O           1.9790    0.1420    0.0000 O.2     1  LIG1       -0.1497
@<TRIPOS>BOND
     1     1     2    1
     2     1    12    1
     3     1    27    2
     4     1    28    2
     5     2     3    1
     6     2    11    1
     7     3     4   ar
     8     3     8   ar
     9     4     5   ar
    10     4    10    1
    11     5     6   ar
    12     6     7   ar
    13     7     8   ar
    14     7     9    1
    15    12    13   ar
    16    12    26   ar
    17    13    14   ar
    18    14    15   ar
    19    14    24    1
    20    15    16    1
    21    15    25   ar
    22    16    17   am
    23    16    23    1
    24    17    18    2
    25    17    19    1
    26    19    20    1
    27    19    22    1
    28    20    21    1
    29    21    22    1
    30    23    24    1
    31    25    26   ar
