@<TRIPOS>MOLECULE
37147_ChemDiv_E699-1352
 28 31 0 0 0
SMALL
GASTEIGER
Energy = 0

@<TRIPOS>ATOM
      1 S           0.8670    0.0670    0.0000 S.O2    1  LIG1       -0.0578
      2 N           1.8670    0.0670    0.0000 N.pl3   1  LIG1       -0.5360
      3 C           2.3710    0.9250    0.0000 C.ar    1  LIG1       -0.1163
      4 C           3.3420    0.9250    0.0000 C.ar    1  LIG1       -0.0443
      5 C           3.8380    0.0580    0.0000 C.3     1  LIG1        0.0245
      6 C           4.8460    0.0500    0.0000 C.3     1  LIG1        0.0050
      7 C           3.8630    1.7830    0.0000 C.ar    1  LIG1       -0.0061
      8 C           3.3670    2.6460    0.0000 C.ar    1  LIG1       -0.0004
      9 C           2.3630    2.6500    0.0000 C.ar    1  LIG1       -0.0019
     10 C           1.8750    1.8000    0.0000 C.ar    1  LIG1       -0.0241
     11 C          -0.1330    0.0670    0.0000 C.ar    1  LIG1        0.0891
     12 C          -0.6330    0.9250    0.0000 C.ar    1  LIG1        0.0139
     13 C          -1.6380    0.9330    0.0000 C.ar    1  LIG1       -0.0056
     14 C          -2.1380    0.0670    0.0000 C.ar    1  LIG1        0.0499
     15 N          -3.1130    0.2670    0.0000 N.am    1  LIG1       -0.2603
     16 C          -3.9830   -0.2290    0.0000 C.2     1  LIG1        0.2288
     17 O          -4.8500    0.2750    0.0000 O.2     1  LIG1       -0.2745
     18 C          -3.9830   -1.2330    0.0000 C.3     1  LIG1        0.0770
     19 C          -3.2710   -1.9380    0.0000 C.3     1  LIG1        0.0091
     20 C          -3.9830   -2.6460    0.0000 C.3     1  LIG1        0.0010
     21 C          -4.6920   -1.9380    0.0000 C.3     1  LIG1        0.0091
     22 C          -3.2210    1.2670    0.0000 C.3     1  LIG1        0.0842
     23 C          -2.3040    1.6750    0.0000 C.3     1  LIG1        0.0478
     24 C          -4.0920    1.7670    0.0000 C.3     1  LIG1        0.0222
     25 C          -1.6380   -0.8040    0.0000 C.ar    1  LIG1        0.0159
     26 C          -0.6330   -0.8040    0.0000 C.ar    1  LIG1        0.0182
     27 O           0.8670    1.0670    0.0000 O.2     1  LIG1       -0.1842
     28 O           0.8670   -0.9380    0.0000 O.2     1  LIG1       -0.1842
@<TRIPOS>BOND
     1     1     2    1
     2     1    11    1
     3     1    27    2
     4     1    28    2
     5     2     3    1
     6     3     4   ar
     7     3    10   ar
     8     4     5    1
     9     4     7   ar
    10     5     6    1
    11     7     8   ar
    12     8     9   ar
    13     9    10   ar
    14    11    12   ar
    15    11    26   ar
    16    12    13   ar
    17    13    14   ar
    18    13    23    1
    19    14    15    1
    20    14    25   ar
    21    15    16   am
    22    15    22    1
    23    16    17    2
    24    16    18    1
    25    18    19    1
    26    18    21    1
    27    19    20    1
    28    20    21    1
    29    22    23    1
    30    22    24    1
    31    25    26   ar
