@<TRIPOS>MOLECULE
37156_ChemDiv_C456-0074
 19 22 0 0 0
SMALL
GASTEIGER
Energy = 0

@<TRIPOS>ATOM
      1 C           1.1210    0.5080    0.0000 C.ar    1  LIG1        0.2402
      2 N           0.5330    1.3420    0.0000 N.ar    1  LIG1       -0.2851
      3 C          -0.4130    1.0380    0.0000 C.ar    1  LIG1        0.0820
      4 C          -0.4130    0.0380    0.0000 C.ar    1  LIG1        0.0828
      5 N           0.5330   -0.2960    0.0000 N.ar    1  LIG1       -0.2751
      6 C           0.8460   -1.2330    0.0000 C.ar    1  LIG1        0.0668
      7 C           0.1920   -1.9830    0.0000 C.ar    1  LIG1        0.0176
      8 C           0.5080   -2.9330    0.0000 C.ar    1  LIG1        0.0015
      9 C           1.4710   -3.1170    0.0000 C.ar    1  LIG1        0.0001
     10 C           2.1500   -2.3880    0.0000 C.ar    1  LIG1        0.0015
     11 C           1.8380   -1.4380    0.0000 C.ar    1  LIG1        0.0176
     12 C          -1.2920   -0.4580    0.0000 C.ar    1  LIG1        0.0191
     13 C          -2.1540    0.0380    0.0000 C.ar    1  LIG1        0.0016
     14 C          -2.1540    1.0380    0.0000 C.ar    1  LIG1        0.0016
     15 C          -1.2920    1.5380    0.0000 C.ar    1  LIG1        0.0191
     16 C           1.1500    2.1500    0.0000 C.ar    1  LIG1       -0.0008
     17 N           2.0920    1.8130    0.0000 N.ar    1  LIG1       -0.1599
     18 N           2.0580    0.8210    0.0000 N.ar    1  LIG1       -0.1118
     19 S           0.8830    3.1210    0.0000 S.3     1  LIG1       -0.7188
@<TRIPOS>BOND
     1     1     2   ar
     2     1     5   ar
     3     1    18   ar
     4     2     3   ar
     5     2    16   ar
     6     3     4   ar
     7     3    15   ar
     8     4     5   ar
     9     4    12   ar
    10     5     6    1
    11     6     7   ar
    12     6    11   ar
    13     7     8   ar
    14     8     9   ar
    15     9    10   ar
    16    10    11   ar
    17    12    13   ar
    18    13    14   ar
    19    14    15   ar
    20    16    17   ar
    21    16    19    1
    22    17    18   ar
