@<TRIPOS>MOLECULE
37153_ChemDiv_C331-1350
 27 29 0 0 0
SMALL
GASTEIGER
Energy = 0

@<TRIPOS>ATOM
      1 N           0.9710    0.6040    0.0000 N.ar    1  LIG1       -0.2189
      2 C          -0.0290    0.6040    0.0000 C.ar    1  LIG1        0.1264
      3 C          -0.3380    1.5540    0.0000 C.ar    1  LIG1        0.1064
      4 N           0.4710    2.1460    0.0000 N.ar    1  LIG1       -0.2245
      5 C           1.2880    1.5540    0.0000 C.ar    1  LIG1        0.1628
      6 C           2.2380    1.8750    0.0000 C.ar    1  LIG1        0.0358
      7 C           2.4380    2.8380    0.0000 C.ar    1  LIG1        0.0030
      8 C           3.3880    3.1540    0.0000 C.ar    1  LIG1        0.0001
      9 C           4.1420    2.4750    0.0000 C.ar    1  LIG1        0.0000
     10 C           3.9290    1.4960    0.0000 C.ar    1  LIG1        0.0001
     11 C           2.9750    1.1960    0.0000 C.ar    1  LIG1        0.0030
     12 C          -1.2880    1.8750    0.0000 C.ar    1  LIG1        0.0197
     13 C          -2.0210    1.1960    0.0000 C.ar    1  LIG1        0.0012
     14 C          -2.9790    1.4960    0.0000 C.ar    1  LIG1       -0.0042
     15 C          -3.1920    2.4920    0.0000 C.ar    1  LIG1       -0.0218
     16 C          -2.4420    3.1540    0.0000 C.ar    1  LIG1       -0.0042
     17 C          -1.4880    2.8380    0.0000 C.ar    1  LIG1        0.0012
     18 C          -4.1460    2.7920    0.0000 C.3     1  LIG1        0.0310
     19 S          -0.6130   -0.2080    0.0000 S.3     1  LIG1       -0.0835
     20 C          -0.2170   -1.1170    0.0000 C.3     1  LIG1        0.1501
     21 C          -0.7960   -1.9330    0.0000 C.2     1  LIG1        0.2528
     22 O          -1.7920   -1.8250    0.0000 O.2     1  LIG1       -0.2724
     23 N          -0.3960   -2.8380    0.0000 N.am    1  LIG1       -0.2020
     24 C           0.5960   -2.9460    0.0000 C.3     1  LIG1        0.1471
     25 C           1.1790   -2.1420    0.0000 C.3     1  LIG1        0.1656
     26 O           2.1670   -2.2330    0.0000 O.3     1  LIG1       -0.3492
     27 C           2.5750   -3.1500    0.0000 C.3     1  LIG1        0.1742
@<TRIPOS>BOND
     1     1     2   ar
     2     1     5   ar
     3     2     3   ar
     4     2    19    1
     5     3     4   ar
     6     3    12    1
     7     4     5   ar
     8     5     6    1
     9     6     7   ar
    10     6    11   ar
    11     7     8   ar
    12     8     9   ar
    13     9    10   ar
    14    10    11   ar
    15    12    13   ar
    16    12    17   ar
    17    13    14   ar
    18    14    15   ar
    19    15    16   ar
    20    15    18    1
    21    16    17   ar
    22    19    20    1
    23    20    21    1
    24    21    22    2
    25    21    23   am
    26    23    24    1
    27    24    25    1
    28    25    26    1
    29    26    27    1
