@<TRIPOS>MOLECULE
37155_ChemDiv_C331-1623
 34 36 0 0 0
SMALL
GASTEIGER
Energy = 0

@<TRIPOS>ATOM
      1 N           0.2380   -0.1540    0.0000 N.ar    1  LIG1       -0.2189
      2 C          -0.7670   -0.1540    0.0000 C.ar    1  LIG1        0.1264
      3 C          -1.0710    0.7960    0.0000 C.ar    1  LIG1        0.1064
      4 N          -0.2670    1.3830    0.0000 N.ar    1  LIG1       -0.2245
      5 C           0.5460    0.7960    0.0000 C.ar    1  LIG1        0.1630
      6 C           1.5080    1.1130    0.0000 C.ar    1  LIG1        0.0420
      7 C           1.7040    2.0790    0.0000 C.ar    1  LIG1        0.0433
      8 C           2.6630    2.3920    0.0000 C.ar    1  LIG1        0.1755
      9 C           3.4000    1.7210    0.0000 C.ar    1  LIG1        0.2061
     10 C           3.1880    0.7380    0.0000 C.ar    1  LIG1        0.1755
     11 C           2.2380    0.4380    0.0000 C.ar    1  LIG1        0.0433
     12 O           3.9290    0.0670    0.0000 O.3     1  LIG1       -0.4683
     13 C           4.8790    0.3750    0.0000 C.3     1  LIG1        0.2526
     14 O           4.3630    2.0170    0.0000 O.3     1  LIG1       -0.4654
     15 C           4.5670    2.9960    0.0000 C.3     1  LIG1        0.2528
     16 O           2.8670    3.3670    0.0000 O.3     1  LIG1       -0.4683
     17 C           2.1250    4.0290    0.0000 C.3     1  LIG1        0.2526
     18 C          -2.0250    1.1130    0.0000 C.ar    1  LIG1        0.0197
     19 C          -2.7630    0.4380    0.0000 C.ar    1  LIG1        0.0024
     20 C          -3.7210    0.7380    0.0000 C.ar    1  LIG1        0.0114
     21 C          -3.9290    1.7250    0.0000 C.ar    1  LIG1        0.0577
     22 C          -3.1880    2.3920    0.0000 C.ar    1  LIG1        0.0114
     23 C          -2.2380    2.0790    0.0000 C.ar    1  LIG1        0.0024
     24 CL         -4.8830    2.0290    0.0000 Cl      1  LIG1       -0.0822
     25 S          -1.3540   -0.9710    0.0000 S.3     1  LIG1       -0.0835
     26 C          -0.9500   -1.8830    0.0000 C.3     1  LIG1        0.1501
     27 C          -1.5420   -2.6920    0.0000 C.2     1  LIG1        0.2528
     28 O          -2.5380   -2.5880    0.0000 O.2     1  LIG1       -0.2724
     29 N          -1.1420   -3.6040    0.0000 N.am    1  LIG1       -0.2046
     30 C          -0.1500   -3.7130    0.0000 C.3     1  LIG1        0.1178
     31 C           0.4420   -2.9040    0.0000 C.3     1  LIG1        0.0555
     32 C           1.4330   -3.0130    0.0000 C.3     1  LIG1        0.1441
     33 O           1.8330   -3.9250    0.0000 O.3     1  LIG1       -0.3510
     34 C           2.8250   -4.0290    0.0000 C.3     1  LIG1        0.1741
@<TRIPOS>BOND
     1     1     2   ar
     2     1     5   ar
     3     2     3   ar
     4     2    25    1
     5     3     4   ar
     6     3    18    1
     7     4     5   ar
     8     5     6    1
     9     6     7   ar
    10     6    11   ar
    11     7     8   ar
    12     8     9   ar
    13     8    16    1
    14     9    10   ar
    15     9    14    1
    16    10    11   ar
    17    10    12    1
    18    12    13    1
    19    14    15    1
    20    16    17    1
    21    18    19   ar
    22    18    23   ar
    23    19    20   ar
    24    20    21   ar
    25    21    22   ar
    26    21    24    1
    27    22    23   ar
    28    25    26    1
    29    26    27    1
    30    27    28    2
    31    27    29   am
    32    29    30    1
    33    30    31    1
    34    31    32    1
    35    32    33    1
    36    33    34    1
