@<TRIPOS>MOLECULE
37151_ChemDiv_E699-1389
 28 31 0 0 0
SMALL
GASTEIGER
Energy = 0

@<TRIPOS>ATOM
      1 S           0.8750    0.8960    0.0000 S.O2    1  LIG1       -0.0578
      2 N           1.8790    0.8960    0.0000 N.pl3   1  LIG1       -0.5358
      3 C           2.3790    0.0290    0.0000 C.ar    1  LIG1       -0.1115
      4 C           3.3580   -0.0040    0.0000 C.ar    1  LIG1       -0.0128
      5 C           3.8330   -0.8670    0.0000 C.ar    1  LIG1        0.0519
      6 C           3.3170   -1.7210    0.0000 C.ar    1  LIG1       -0.0114
      7 C           2.3130   -1.6880    0.0000 C.ar    1  LIG1       -0.0053
      8 C           1.8500   -0.8290    0.0000 C.ar    1  LIG1       -0.0241
      9 C           3.8040   -2.6000    0.0000 C.3     1  LIG1        0.0319
     10 CL          4.8380   -0.9040    0.0000 Cl      1  LIG1       -0.0826
     11 C          -0.1250    0.8960    0.0000 C.ar    1  LIG1        0.0891
     12 C          -0.6250    1.7630    0.0000 C.ar    1  LIG1        0.0139
     13 C          -1.6250    1.7630    0.0000 C.ar    1  LIG1       -0.0056
     14 C          -2.1250    0.8960    0.0000 C.ar    1  LIG1        0.0499
     15 N          -3.1080    1.1040    0.0000 N.am    1  LIG1       -0.2603
     16 C          -3.9750    0.6040    0.0000 C.2     1  LIG1        0.2288
     17 O          -4.8420    1.1040    0.0000 O.2     1  LIG1       -0.2745
     18 C          -3.9750   -0.3960    0.0000 C.3     1  LIG1        0.0770
     19 C          -3.2670   -1.1040    0.0000 C.3     1  LIG1        0.0091
     20 C          -3.9750   -1.8130    0.0000 C.3     1  LIG1        0.0010
     21 C          -4.6830   -1.1040    0.0000 C.3     1  LIG1        0.0091
     22 C          -3.2130    2.1000    0.0000 C.3     1  LIG1        0.0842
     23 C          -2.2960    2.5080    0.0000 C.3     1  LIG1        0.0478
     24 C          -4.0790    2.6040    0.0000 C.3     1  LIG1        0.0222
     25 C          -1.6250    0.0290    0.0000 C.ar    1  LIG1        0.0159
     26 C          -0.6250    0.0290    0.0000 C.ar    1  LIG1        0.0182
     27 O           0.8750    1.9000    0.0000 O.2     1  LIG1       -0.1842
     28 O           0.8750   -0.1040    0.0000 O.2     1  LIG1       -0.1842
@<TRIPOS>BOND
     1     1     2    1
     2     1    11    1
     3     1    27    2
     4     1    28    2
     5     2     3    1
     6     3     4   ar
     7     3     8   ar
     8     4     5   ar
     9     5     6   ar
    10     5    10    1
    11     6     7   ar
    12     6     9    1
    13     7     8   ar
    14    11    12   ar
    15    11    26   ar
    16    12    13   ar
    17    13    14   ar
    18    13    23    1
    19    14    15    1
    20    14    25   ar
    21    15    16   am
    22    15    22    1
    23    16    17    2
    24    16    18    1
    25    18    19    1
    26    18    21    1
    27    19    20    1
    28    20    21    1
    29    22    23    1
    30    22    24    1
    31    25    26   ar
