@<TRIPOS>MOLECULE
37157_ChemDiv_C331-1840
 31 35 0 0 0
SMALL
GASTEIGER
Energy = 0

@<TRIPOS>ATOM
      1 N           0.5000    1.4080    0.0000 N.ar    1  LIG1       -0.2189
      2 C          -0.5040    1.4080    0.0000 C.ar    1  LIG1        0.1264
      3 C          -0.8170    2.3630    0.0000 C.ar    1  LIG1        0.1064
      4 N          -0.0170    2.9460    0.0000 N.ar    1  LIG1       -0.2245
      5 C           0.8130    2.3630    0.0000 C.ar    1  LIG1        0.1628
      6 C           1.7670    2.6750    0.0000 C.ar    1  LIG1        0.0358
      7 C           1.9630    3.6460    0.0000 C.ar    1  LIG1        0.0030
      8 C           2.9130    3.9580    0.0000 C.ar    1  LIG1        0.0001
      9 C           3.6670    3.2830    0.0000 C.ar    1  LIG1        0.0000
     10 C           3.4540    2.3040    0.0000 C.ar    1  LIG1        0.0001
     11 C           2.5000    1.9960    0.0000 C.ar    1  LIG1        0.0030
     12 C          -1.7670    2.6750    0.0000 C.ar    1  LIG1        0.0197
     13 C          -2.4960    1.9960    0.0000 C.ar    1  LIG1        0.0016
     14 C          -3.4500    2.3040    0.0000 C.ar    1  LIG1        0.0000
     15 C          -3.6710    3.2960    0.0000 C.ar    1  LIG1        0.0000
     16 C          -2.9210    3.9580    0.0000 C.ar    1  LIG1        0.0000
     17 C          -1.9670    3.6460    0.0000 C.ar    1  LIG1        0.0016
     18 S          -1.0920    0.5960    0.0000 S.3     1  LIG1       -0.0835
     19 C          -0.6920   -0.3170    0.0000 C.3     1  LIG1        0.1505
     20 C          -1.2750   -1.1290    0.0000 C.2     1  LIG1        0.2570
     21 N          -0.8630   -2.0330    0.0000 N.am    1  LIG1       -0.1784
     22 C           0.1210   -2.1420    0.0000 C.ar    1  LIG1        0.0766
     23 C           0.5290   -3.0500    0.0000 C.ar    1  LIG1        0.0568
     24 C           1.5210   -3.1500    0.0000 C.ar    1  LIG1        0.1777
     25 C           2.1000   -2.3380    0.0000 C.ar    1  LIG1        0.1765
     26 O           3.0500   -2.6540    0.0000 O.3     1  LIG1       -0.4346
     27 C           3.0500   -3.6460    0.0000 C.3     1  LIG1        0.4294
     28 O           2.1000   -3.9540    0.0000 O.3     1  LIG1       -0.4346
     29 C           1.6880   -1.4250    0.0000 C.ar    1  LIG1        0.0415
     30 C           0.6960   -1.3250    0.0000 C.ar    1  LIG1        0.0199
     31 O          -2.2710   -1.0250    0.0000 O.2     1  LIG1       -0.2720
@<TRIPOS>BOND
     1     1     2   ar
     2     1     5   ar
     3     2     3   ar
     4     2    18    1
     5     3     4   ar
     6     3    12    1
     7     4     5   ar
     8     5     6    1
     9     6     7   ar
    10     6    11   ar
    11     7     8   ar
    12     8     9   ar
    13     9    10   ar
    14    10    11   ar
    15    12    13   ar
    16    12    17   ar
    17    13    14   ar
    18    14    15   ar
    19    15    16   ar
    20    16    17   ar
    21    18    19    1
    22    19    20    1
    23    20    21   am
    24    20    31    2
    25    21    22    1
    26    22    23   ar
    27    22    30   ar
    28    23    24   ar
    29    24    25   ar
    30    24    28    1
    31    25    26    1
    32    25    29   ar
    33    26    27    1
    34    27    28    1
    35    29    30   ar
