@<TRIPOS>MOLECULE
37163_ChemDiv_C654-0404
 35 39 0 0 0
SMALL
GASTEIGER
Energy = 0

@<TRIPOS>ATOM
      1 C          -0.8420    1.7290    0.0000 C.ar    1  LIG1        0.2058
      2 S          -1.3540    0.8670    0.0000 S.O2    1  LIG1        0.0356
      3 C          -1.8830    0.0040    0.0000 C.3     1  LIG1        0.2441
      4 C          -1.4000   -0.8830    0.0000 C.2     1  LIG1        0.2701
      5 N          -0.3880   -0.9040    0.0000 N.am    1  LIG1       -0.1776
      6 C           0.0790   -1.7790    0.0000 C.ar    1  LIG1        0.0766
      7 C           1.0790   -1.7960    0.0000 C.ar    1  LIG1        0.0566
      8 C           1.5630   -2.6710    0.0000 C.ar    1  LIG1        0.1737
      9 C           1.0460   -3.5290    0.0000 C.ar    1  LIG1        0.1725
     10 O           1.5170   -4.3960    0.0000 O.3     1  LIG1       -0.4684
     11 C           2.5170   -4.4210    0.0000 C.3     1  LIG1        0.2526
     12 C           3.0420   -3.5670    0.0000 C.3     1  LIG1        0.2526
     13 O           2.5630   -2.6880    0.0000 O.3     1  LIG1       -0.4683
     14 C           0.0380   -3.5040    0.0000 C.ar    1  LIG1        0.0414
     15 C          -0.4330   -2.6290    0.0000 C.ar    1  LIG1        0.0199
     16 O          -1.9170   -1.7330    0.0000 O.2     1  LIG1       -0.2711
     17 O          -0.4920    0.3420    0.0000 O.2     1  LIG1       -0.1667
     18 O          -2.2170    1.3880    0.0000 O.2     1  LIG1       -0.1667
     19 N           0.1580    1.7960    0.0000 N.ar    1  LIG1       -0.2069
     20 C           0.4000    2.7630    0.0000 C.ar    1  LIG1        0.1638
     21 N          -0.4500    3.2920    0.0000 N.ar    1  LIG1       -0.2237
     22 C          -1.2210    2.6500    0.0000 C.ar    1  LIG1        0.1180
     23 C          -2.2040    2.8500    0.0000 C.ar    1  LIG1        0.0205
     24 C          -2.5210    3.7920    0.0000 C.ar    1  LIG1        0.0016
     25 C          -3.5040    3.9880    0.0000 C.ar    1  LIG1        0.0000
     26 C          -4.1540    3.2330    0.0000 C.ar    1  LIG1        0.0000
     27 C          -3.8380    2.2880    0.0000 C.ar    1  LIG1        0.0000
     28 C          -2.8540    2.0960    0.0000 C.ar    1  LIG1        0.0016
     29 C           1.3380    3.1040    0.0000 C.ar    1  LIG1        0.0358
     30 C           2.0920    2.4580    0.0000 C.ar    1  LIG1        0.0027
     31 C           3.0290    2.8040    0.0000 C.ar    1  LIG1       -0.0042
     32 C           3.2130    3.7750    0.0000 C.ar    1  LIG1       -0.0218
     33 C           2.4420    4.4210    0.0000 C.ar    1  LIG1       -0.0042
     34 C           1.5040    4.0830    0.0000 C.ar    1  LIG1        0.0027
     35 C           4.1500    4.1170    0.0000 C.3     1  LIG1        0.0310
@<TRIPOS>BOND
     1     1     2    1
     2     1    19   ar
     3     1    22   ar
     4     2     3    1
     5     2    17    2
     6     2    18    2
     7     3     4    1
     8     4     5   am
     9     4    16    2
    10     5     6    1
    11     6     7   ar
    12     6    15   ar
    13     7     8   ar
    14     8     9   ar
    15     8    13    1
    16     9    10    1
    17     9    14   ar
    18    10    11    1
    19    11    12    1
    20    12    13    1
    21    14    15   ar
    22    19    20   ar
    23    20    21   ar
    24    20    29    1
    25    21    22   ar
    26    22    23    1
    27    23    24   ar
    28    23    28   ar
    29    24    25   ar
    30    25    26   ar
    31    26    27   ar
    32    27    28   ar
    33    29    30   ar
    34    29    34   ar
    35    30    31   ar
    36    31    32   ar
    37    32    33   ar
    38    32    35    1
    39    33    34   ar
