@<TRIPOS>MOLECULE
37169_ChemDiv_E699-1400
 28 31 0 0 0
SMALL
GASTEIGER
Energy = 0

@<TRIPOS>ATOM
      1 S           0.8460    0.8790    0.0000 S.O2    1  LIG1       -0.0578
      2 C          -0.1540    0.8790    0.0000 C.ar    1  LIG1        0.0891
      3 C          -0.6500    1.7460    0.0000 C.ar    1  LIG1        0.0139
      4 C          -1.6540    1.7460    0.0000 C.ar    1  LIG1       -0.0056
      5 C          -2.1540    0.8790    0.0000 C.ar    1  LIG1        0.0499
      6 N          -3.1330    1.0880    0.0000 N.am    1  LIG1       -0.2603
      7 C          -4.0000    0.5880    0.0000 C.2     1  LIG1        0.2288
      8 O          -4.8630    1.0880    0.0000 O.2     1  LIG1       -0.2745
      9 C          -4.0000   -0.4130    0.0000 C.3     1  LIG1        0.0770
     10 C          -3.2920   -1.1210    0.0000 C.3     1  LIG1        0.0091
     11 C          -4.0000   -1.8250    0.0000 C.3     1  LIG1        0.0010
     12 C          -4.7040   -1.1210    0.0000 C.3     1  LIG1        0.0091
     13 C          -3.2380    2.0830    0.0000 C.3     1  LIG1        0.0842
     14 C          -2.3250    2.4920    0.0000 C.3     1  LIG1        0.0478
     15 C          -4.1000    2.5830    0.0000 C.3     1  LIG1        0.0222
     16 C          -1.6540    0.0170    0.0000 C.ar    1  LIG1        0.0159
     17 C          -0.6500    0.0170    0.0000 C.ar    1  LIG1        0.0182
     18 N           1.8500    0.8790    0.0000 N.pl3   1  LIG1       -0.5358
     19 C           2.3500    0.0170    0.0000 C.ar    1  LIG1       -0.1127
     20 C           3.3460    0.0170    0.0000 C.ar    1  LIG1       -0.0284
     21 C           3.8500   -0.8540    0.0000 C.ar    1  LIG1       -0.0276
     22 C           3.3540   -1.7170    0.0000 C.ar    1  LIG1       -0.0259
     23 C           2.3500   -1.7170    0.0000 C.ar    1  LIG1       -0.0064
     24 C           1.8540   -0.8460    0.0000 C.ar    1  LIG1       -0.0242
     25 C           3.8500   -2.5790    0.0000 C.3     1  LIG1        0.0307
     26 C           4.8580   -0.8460    0.0000 C.3     1  LIG1        0.0306
     27 O           0.8460    1.8790    0.0000 O.2     1  LIG1       -0.1842
     28 O           0.8460   -0.1210    0.0000 O.2     1  LIG1       -0.1842
@<TRIPOS>BOND
     1     1     2    1
     2     1    18    1
     3     1    27    2
     4     1    28    2
     5     2     3   ar
     6     2    17   ar
     7     3     4   ar
     8     4     5   ar
     9     4    14    1
    10     5     6    1
    11     5    16   ar
    12     6     7   am
    13     6    13    1
    14     7     8    2
    15     7     9    1
    16     9    10    1
    17     9    12    1
    18    10    11    1
    19    11    12    1
    20    13    14    1
    21    13    15    1
    22    16    17   ar
    23    18    19    1
    24    19    20   ar
    25    19    24   ar
    26    20    21   ar
    27    21    22   ar
    28    21    26    1
    29    22    23   ar
    30    22    25    1
    31    23    24   ar
