@<TRIPOS>MOLECULE
37167_ChemDiv_C336-0043
 34 39 0 0 0
SMALL
GASTEIGER
Energy = 0

@<TRIPOS>ATOM
      1 N          -1.2960    0.6750    0.0000 N.ar    1  LIG1       -0.1476
      2 C          -2.1750    1.1920    0.0000 C.ar    1  LIG1        0.3758
      3 N          -1.9380    2.1500    0.0000 N.2     1  LIG1        0.0805
      4 C          -0.9540    2.2500    0.0000 C.3     1  LIG1        0.4188
      5 C          -0.5540    1.3420    0.0000 C.2     1  LIG1        0.3334
      6 O           0.4170    1.1290    0.0000 O.2     1  LIG1       -0.2633
      7 C          -0.4500    3.1170    0.0000 C.ar    1  LIG1        0.0642
      8 C           0.5540    3.1080    0.0000 C.ar    1  LIG1        0.0030
      9 C           1.0670    3.9670    0.0000 C.ar    1  LIG1       -0.0001
     10 C           0.5830    4.8420    0.0000 C.ar    1  LIG1       -0.0000
     11 C          -0.4330    4.8420    0.0000 C.ar    1  LIG1       -0.0001
     12 C          -0.9330    3.9830    0.0000 C.ar    1  LIG1        0.0030
     13 C          -3.0420    0.6750    0.0000 C.ar    1  LIG1        0.1585
     14 C          -3.0420   -0.3380    0.0000 C.ar    1  LIG1        0.3068
     15 N          -2.1750   -0.8290    0.0000 N.ar    1  LIG1        0.1032
     16 C          -1.3130   -0.3380    0.0000 C.ar    1  LIG1        0.4034
     17 S          -0.4330   -0.8420    0.0000 S.3     1  LIG1       -0.0130
     18 C          -0.4330   -1.8420    0.0000 C.3     1  LIG1        0.1155
     19 C           0.4330   -2.3420    0.0000 C.ar    1  LIG1        0.0768
     20 N           1.2960   -1.8420    0.0000 N.ar    1  LIG1       -0.2311
     21 C           2.1630   -2.3420    0.0000 C.ar    1  LIG1        0.1496
     22 N           2.1630   -3.3420    0.0000 N.ar    1  LIG1       -0.2572
     23 C           1.2960   -3.8420    0.0000 C.ar    1  LIG1        0.2671
     24 C           0.4250   -3.3420    0.0000 C.ar    1  LIG1        0.0767
     25 O           1.2920   -4.8420    0.0000 O.2     1  LIG1       -0.2665
     26 C           3.0210   -3.8420    0.0000 C.ar    1  LIG1        0.0910
     27 C           3.9000   -3.3420    0.0000 C.ar    1  LIG1        0.0523
     28 C           3.8880   -2.3420    0.0000 C.ar    1  LIG1        0.0113
     29 C           3.0210   -1.8420    0.0000 C.ar    1  LIG1        0.0380
     30 BR          4.7630   -3.8420    0.0000 Br      1  LIG1       -0.0474
     31 C          -3.8960   -0.8290    0.0000 C.ar    1  LIG1        0.0765
     32 C          -4.7670   -0.3290    0.0000 C.ar    1  LIG1        0.0063
     33 C          -4.7580    0.6750    0.0000 C.ar    1  LIG1        0.0007
     34 C          -3.8880    1.1630    0.0000 C.ar    1  LIG1        0.0141
@<TRIPOS>BOND
     1     1     2   ar
     2     1     5   am
     3     1    16   ar
     4     2     3    2
     5     2    13   ar
     6     3     4    1
     7     4     5    1
     8     4     7    1
     9     5     6    2
    10     7     8   ar
    11     7    12   ar
    12     8     9   ar
    13     9    10   ar
    14    10    11   ar
    15    11    12   ar
    16    13    14   ar
    17    13    34   ar
    18    14    15   ar
    19    14    31   ar
    20    15    16   ar
    21    16    17    1
    22    17    18    1
    23    18    19    1
    24    19    20   ar
    25    19    24   ar
    26    20    21   ar
    27    21    22   ar
    28    21    29   ar
    29    22    23   ar
    30    22    26   ar
    31    23    24   ar
    32    23    25    2
    33    26    27   ar
    34    27    28   ar
    35    27    30    1
    36    28    29   ar
    37    31    32   ar
    38    32    33   ar
    39    33    34   ar
