@<TRIPOS>MOLECULE
37161_ChemDiv_C331-1901
 34 38 0 0 0
SMALL
GASTEIGER
Energy = 0

@<TRIPOS>ATOM
      1 N          -0.0830    1.2170    0.0000 N.ar    1  LIG1       -0.2189
      2 C          -1.0790    1.2170    0.0000 C.ar    1  LIG1        0.1264
      3 C          -1.3920    2.1750    0.0000 C.ar    1  LIG1        0.1064
      4 N          -0.5830    2.7500    0.0000 N.ar    1  LIG1       -0.2245
      5 C           0.2250    2.1750    0.0000 C.ar    1  LIG1        0.1628
      6 C           1.1830    2.4830    0.0000 C.ar    1  LIG1        0.0360
      7 C           1.9170    1.8000    0.0000 C.ar    1  LIG1        0.0062
      8 C           2.8670    2.1130    0.0000 C.ar    1  LIG1        0.0370
      9 C           3.0790    3.0880    0.0000 C.ar    1  LIG1        0.1387
     10 C           2.3380    3.7630    0.0000 C.ar    1  LIG1        0.0370
     11 C           1.3880    3.4580    0.0000 C.ar    1  LIG1        0.0062
     12 O           4.0370    3.3960    0.0000 O.3     1  LIG1       -0.4714
     13 C           4.2420    4.3670    0.0000 C.3     1  LIG1        0.2525
     14 C          -2.3420    2.4830    0.0000 C.ar    1  LIG1        0.0197
     15 C          -2.5540    3.4580    0.0000 C.ar    1  LIG1        0.0016
     16 C          -3.5040    3.7630    0.0000 C.ar    1  LIG1        0.0000
     17 C          -4.2460    3.1000    0.0000 C.ar    1  LIG1        0.0000
     18 C          -4.0330    2.1130    0.0000 C.ar    1  LIG1        0.0000
     19 C          -3.0830    1.8000    0.0000 C.ar    1  LIG1        0.0016
     20 S          -1.6790    0.4080    0.0000 S.3     1  LIG1       -0.0835
     21 C          -1.2710   -0.5080    0.0000 C.3     1  LIG1        0.1505
     22 C          -1.8580   -1.3250    0.0000 C.2     1  LIG1        0.2570
     23 N          -1.4630   -2.2330    0.0000 N.am    1  LIG1       -0.1784
     24 C          -0.4710   -2.3380    0.0000 C.ar    1  LIG1        0.0766
     25 C          -0.0670   -3.2460    0.0000 C.ar    1  LIG1        0.0566
     26 C           0.9210   -3.3540    0.0000 C.ar    1  LIG1        0.1737
     27 C           1.5040   -2.5380    0.0000 C.ar    1  LIG1        0.1725
     28 O           2.5040   -2.6380    0.0000 O.3     1  LIG1       -0.4684
     29 C           2.9130   -3.5580    0.0000 C.3     1  LIG1        0.2526
     30 C           2.3210   -4.3670    0.0000 C.3     1  LIG1        0.2526
     31 O           1.3250   -4.2580    0.0000 O.3     1  LIG1       -0.4683
     32 C           1.1000   -1.6330    0.0000 C.ar    1  LIG1        0.0414
     33 C           0.1040   -1.5250    0.0000 C.ar    1  LIG1        0.0199
     34 O          -2.8580   -1.2170    0.0000 O.2     1  LIG1       -0.2720
@<TRIPOS>BOND
     1     1     2   ar
     2     1     5   ar
     3     2     3   ar
     4     2    20    1
     5     3     4   ar
     6     3    14    1
     7     4     5   ar
     8     5     6    1
     9     6     7   ar
    10     6    11   ar
    11     7     8   ar
    12     8     9   ar
    13     9    10   ar
    14     9    12    1
    15    10    11   ar
    16    12    13    1
    17    14    15   ar
    18    14    19   ar
    19    15    16   ar
    20    16    17   ar
    21    17    18   ar
    22    18    19   ar
    23    20    21    1
    24    21    22    1
    25    22    23   am
    26    22    34    2
    27    23    24    1
    28    24    25   ar
    29    24    33   ar
    30    25    26   ar
    31    26    27   ar
    32    26    31    1
    33    27    28    1
    34    27    32   ar
    35    28    29    1
    36    29    30    1
    37    30    31    1
    38    32    33   ar
