@<TRIPOS>MOLECULE
37165_ChemDiv_C336-0004
 24 27 0 0 0
SMALL
GASTEIGER
Energy = 0

@<TRIPOS>ATOM
      1 N           0.4380   -0.3170    0.0000 N.ar    1  LIG1       -0.1476
      2 C          -0.4420    0.2040    0.0000 C.ar    1  LIG1        0.3758
      3 N          -0.2080    1.1830    0.0000 N.2     1  LIG1        0.0805
      4 C           0.7710    1.2880    0.0000 C.3     1  LIG1        0.4188
      5 C           1.1630    0.3580    0.0000 C.2     1  LIG1        0.3334
      6 O           2.1380    0.1420    0.0000 O.2     1  LIG1       -0.2633
      7 C           1.2790    2.1580    0.0000 C.ar    1  LIG1        0.0642
      8 C           0.7880    3.0130    0.0000 C.ar    1  LIG1        0.0030
      9 C           1.2920    3.8750    0.0000 C.ar    1  LIG1       -0.0001
     10 C           2.2830    3.8670    0.0000 C.ar    1  LIG1       -0.0000
     11 C           2.7750    3.0080    0.0000 C.ar    1  LIG1       -0.0001
     12 C           2.2630    2.1500    0.0000 C.ar    1  LIG1        0.0030
     13 C          -1.3000   -0.3170    0.0000 C.ar    1  LIG1        0.1585
     14 C          -1.3000   -1.3250    0.0000 C.ar    1  LIG1        0.3068
     15 N          -0.4420   -1.8290    0.0000 N.ar    1  LIG1        0.1032
     16 C           0.4210   -1.3250    0.0000 C.ar    1  LIG1        0.4040
     17 S           1.2920   -1.8460    0.0000 S.3     1  LIG1       -0.0029
     18 C           1.2710   -2.8630    0.0000 C.3     1  LIG1        0.1745
     19 C           2.1380   -3.3670    0.0000 C.1     1  LIG1        0.0857
     20 N           3.0170   -3.8710    0.0000 N.1     1  LIG1       -0.1949
     21 C          -2.1500   -1.8290    0.0000 C.ar    1  LIG1        0.0765
     22 C          -3.0210   -1.3210    0.0000 C.ar    1  LIG1        0.0063
     23 C          -3.0040   -0.3170    0.0000 C.ar    1  LIG1        0.0007
     24 C          -2.1420    0.1880    0.0000 C.ar    1  LIG1        0.0141
@<TRIPOS>BOND
     1     1     2   ar
     2     1     5   am
     3     1    16   ar
     4     2     3    2
     5     2    13   ar
     6     3     4    1
     7     4     5    1
     8     4     7    1
     9     5     6    2
    10     7     8   ar
    11     7    12   ar
    12     8     9   ar
    13     9    10   ar
    14    10    11   ar
    15    11    12   ar
    16    13    14   ar
    17    13    24   ar
    18    14    15   ar
    19    14    21   ar
    20    15    16   ar
    21    16    17    1
    22    17    18    1
    23    18    19    1
    24    19    20    3
    25    21    22   ar
    26    22    23   ar
    27    23    24   ar
