@<TRIPOS>MOLECULE
37178_ChemDiv_C999-0356
 29 31 0 0 0
SMALL
GASTEIGER
Energy = 0

@<TRIPOS>ATOM
      1 C           2.3920    1.0580    0.0000 C.ar    1  LIG1        0.1596
      2 N           2.7000    2.0080    0.0000 N.ar    1  LIG1       -0.2381
      3 N           1.8920    2.5960    0.0000 N.ar    1  LIG1       -0.1725
      4 C           1.0790    2.0080    0.0000 C.ar    1  LIG1        0.0816
      5 C           1.3920    1.0580    0.0000 C.ar    1  LIG1        0.0465
      6 C           0.8920    0.1920    0.0000 C.ar    1  LIG1       -0.0205
      7 C           1.3920   -0.6710    0.0000 C.ar    1  LIG1       -0.0119
      8 C           2.3920   -0.6710    0.0000 C.ar    1  LIG1        0.0567
      9 N           2.8880    0.1920    0.0000 N.ar    1  LIG1       -0.2315
     10 C           2.8880   -1.5380    0.0000 C.3     1  LIG1        0.0518
     11 C           0.8920   -1.5380    0.0000 C.3     1  LIG1        0.0369
     12 C          -0.1130   -1.5380    0.0000 C.3     1  LIG1        0.0919
     13 C          -0.6080   -2.4040    0.0000 C.2     1  LIG1        0.2459
     14 N          -1.6080   -2.4040    0.0000 N.am    1  LIG1       -0.1792
     15 C          -2.1080   -1.5380    0.0000 C.ar    1  LIG1        0.0730
     16 C          -3.1130   -1.5380    0.0000 C.ar    1  LIG1        0.0120
     17 C          -3.6130   -0.6710    0.0000 C.ar    1  LIG1       -0.0245
     18 C          -3.1130    0.1920    0.0000 C.ar    1  LIG1       -0.0257
     19 C          -2.1080    0.1920    0.0000 C.ar    1  LIG1       -0.0032
     20 C          -1.6080   -0.6710    0.0000 C.ar    1  LIG1        0.0163
     21 C          -3.6130    1.0580    0.0000 C.3     1  LIG1        0.0307
     22 C          -4.6080   -0.6710    0.0000 C.3     1  LIG1        0.0307
     23 O          -0.1130   -3.2670    0.0000 O.2     1  LIG1       -0.2730
     24 C          -0.1130    0.1920    0.0000 C.3     1  LIG1        0.0309
     25 C           0.1290    2.3210    0.0000 C.3     1  LIG1        0.0540
     26 C           3.6500    2.3210    0.0000 C.3     1  LIG1        0.0882
     27 C           4.6040    2.6250    0.0000 C.3     1  LIG1        0.0245
     28 C           3.9580    1.3710    0.0000 C.3     1  LIG1        0.0245
     29 C           3.3420    3.2710    0.0000 C.3     1  LIG1        0.0245
@<TRIPOS>BOND
     1     1     2   ar
     2     1     5   ar
     3     1     9   ar
     4     2     3   ar
     5     2    26    1
     6     3     4   ar
     7     4     5   ar
     8     4    25    1
     9     5     6   ar
    10     6     7   ar
    11     6    24    1
    12     7     8   ar
    13     7    11    1
    14     8     9   ar
    15     8    10    1
    16    11    12    1
    17    12    13    1
    18    13    14   am
    19    13    23    2
    20    14    15    1
    21    15    16   ar
    22    15    20   ar
    23    16    17   ar
    24    17    18   ar
    25    17    22    1
    26    18    19   ar
    27    18    21    1
    28    19    20   ar
    29    26    27    1
    30    26    28    1
    31    26    29    1
