@<TRIPOS>MOLECULE
37179_ChemDiv_E699-1461
 29 32 0 0 0
SMALL
GASTEIGER
Energy = 0

@<TRIPOS>ATOM
      1 S           1.2790    0.8830    0.0000 S.O2    1  LIG1       -0.0577
      2 N           2.2670    0.8830    0.0000 N.pl3   1  LIG1       -0.5335
      3 C           2.7580    0.0290    0.0000 C.ar    1  LIG1       -0.0778
      4 C           3.7920    0.0750    0.0000 C.ar    1  LIG1        0.1167
      5 C           4.3380   -0.7750    0.0000 C.ar    1  LIG1        0.0347
      6 C           3.8670   -1.6670    0.0000 C.ar    1  LIG1       -0.0013
      7 C           2.8330   -1.7130    0.0000 C.ar    1  LIG1       -0.0235
      8 C           2.3000   -0.8670    0.0000 C.ar    1  LIG1       -0.0252
      9 C           2.4170   -2.5580    0.0000 C.3     1  LIG1        0.0310
     10 O           4.2580    0.9710    0.0000 O.3     1  LIG1       -0.4733
     11 C           3.5460    2.0580    0.0000 C.3     1  LIG1        0.2524
     12 C           0.3000    0.8830    0.0000 C.ar    1  LIG1        0.0891
     13 C          -0.2000    1.7330    0.0000 C.ar    1  LIG1        0.0139
     14 C          -1.1790    1.7330    0.0000 C.ar    1  LIG1       -0.0056
     15 C          -1.6710    0.8830    0.0000 C.ar    1  LIG1        0.0499
     16 N          -2.6380    1.0880    0.0000 N.am    1  LIG1       -0.2603
     17 C          -3.4920    0.5960    0.0000 C.2     1  LIG1        0.2288
     18 O          -4.3420    1.0880    0.0000 O.2     1  LIG1       -0.2745
     19 C          -3.4920   -0.3920    0.0000 C.3     1  LIG1        0.0770
     20 C          -2.7920   -1.0880    0.0000 C.3     1  LIG1        0.0091
     21 C          -3.4920   -1.7830    0.0000 C.3     1  LIG1        0.0010
     22 C          -4.1880   -1.0880    0.0000 C.3     1  LIG1        0.0091
     23 C          -2.7420    2.0670    0.0000 C.3     1  LIG1        0.0842
     24 C          -1.8380    2.4670    0.0000 C.3     1  LIG1        0.0478
     25 C          -3.5920    2.5630    0.0000 C.3     1  LIG1        0.0222
     26 C          -1.1830    0.0290    0.0000 C.ar    1  LIG1        0.0159
     27 C          -0.1960    0.0290    0.0000 C.ar    1  LIG1        0.0182
     28 O           1.2790   -0.1000    0.0000 O.2     1  LIG1       -0.1842
     29 O           1.2790    1.8670    0.0000 O.2     1  LIG1       -0.1842
@<TRIPOS>BOND
     1     1     2    1
     2     1    12    1
     3     1    28    2
     4     1    29    2
     5     2     3    1
     6     3     4   ar
     7     3     8   ar
     8     4     5   ar
     9     4    10    1
    10     5     6   ar
    11     6     7   ar
    12     7     8   ar
    13     7     9    1
    14    10    11    1
    15    12    13   ar
    16    12    27   ar
    17    13    14   ar
    18    14    15   ar
    19    14    24    1
    20    15    16    1
    21    15    26   ar
    22    16    17   am
    23    16    23    1
    24    17    18    2
    25    17    19    1
    26    19    20    1
    27    19    22    1
    28    20    21    1
    29    21    22    1
    30    23    24    1
    31    23    25    1
    32    26    27   ar
