@<TRIPOS>MOLECULE
37171_ChemDiv_E699-1406
 29 32 0 0 0
SMALL
GASTEIGER
Energy = 0

@<TRIPOS>ATOM
      1 S           1.3130    0.8670    0.0000 S.O2    1  LIG1       -0.0578
      2 N           2.3130    0.8670    0.0000 N.pl3   1  LIG1       -0.5363
      3 C           2.8290    0.0130    0.0000 C.ar    1  LIG1       -0.1203
      4 C           2.3420   -0.8630    0.0000 C.ar    1  LIG1       -0.0445
      5 C           2.8580   -1.7250    0.0000 C.ar    1  LIG1       -0.0103
      6 C           3.8670   -1.7080    0.0000 C.ar    1  LIG1       -0.0226
      7 C           4.3540   -0.8290    0.0000 C.ar    1  LIG1       -0.0103
      8 C           3.8380    0.0290    0.0000 C.ar    1  LIG1       -0.0445
      9 C           4.3170    0.9040    0.0000 C.3     1  LIG1        0.0291
     10 C           4.3830   -2.5630    0.0000 C.3     1  LIG1        0.0310
     11 C           1.3420   -0.8880    0.0000 C.3     1  LIG1        0.0291
     12 C           0.3170    0.8670    0.0000 C.ar    1  LIG1        0.0891
     13 C          -0.1880    1.7290    0.0000 C.ar    1  LIG1        0.0139
     14 C          -1.1880    1.7290    0.0000 C.ar    1  LIG1       -0.0056
     15 C          -1.6830    0.8670    0.0000 C.ar    1  LIG1        0.0499
     16 N          -2.6580    1.0750    0.0000 N.am    1  LIG1       -0.2603
     17 C          -3.5250    0.5790    0.0000 C.2     1  LIG1        0.2288
     18 O          -4.3880    1.0750    0.0000 O.2     1  LIG1       -0.2745
     19 C          -3.5250   -0.4210    0.0000 C.3     1  LIG1        0.0770
     20 C          -4.2290   -1.1290    0.0000 C.3     1  LIG1        0.0091
     21 C          -3.5250   -1.8380    0.0000 C.3     1  LIG1        0.0010
     22 C          -2.8170   -1.1290    0.0000 C.3     1  LIG1        0.0091
     23 C          -2.7630    2.0670    0.0000 C.3     1  LIG1        0.0842
     24 C          -1.8500    2.4750    0.0000 C.3     1  LIG1        0.0478
     25 C          -3.6290    2.5670    0.0000 C.3     1  LIG1        0.0222
     26 C          -1.1880    0.0000    0.0000 C.ar    1  LIG1        0.0159
     27 C          -0.1880    0.0000    0.0000 C.ar    1  LIG1        0.0182
     28 O           1.3130   -0.1330    0.0000 O.2     1  LIG1       -0.1842
     29 O           1.3130    1.8670    0.0000 O.2     1  LIG1       -0.1842
@<TRIPOS>BOND
     1     1     2    1
     2     1    12    1
     3     1    28    2
     4     1    29    2
     5     2     3    1
     6     3     4   ar
     7     3     8   ar
     8     4     5   ar
     9     4    11    1
    10     5     6   ar
    11     6     7   ar
    12     6    10    1
    13     7     8   ar
    14     8     9    1
    15    12    13   ar
    16    12    27   ar
    17    13    14   ar
    18    14    15   ar
    19    14    24    1
    20    15    16    1
    21    15    26   ar
    22    16    17   am
    23    16    23    1
    24    17    18    2
    25    17    19    1
    26    19    20    1
    27    19    22    1
    28    20    21    1
    29    21    22    1
    30    23    24    1
    31    23    25    1
    32    26    27   ar
