@<TRIPOS>MOLECULE
37175_ChemDiv_E699-1426
 29 32 0 0 0
SMALL
GASTEIGER
Energy = 0

@<TRIPOS>ATOM
      1 S           0.8290    1.3250    0.0000 S.O2    1  LIG1       -0.0578
      2 C          -0.1630    1.3290    0.0000 C.ar    1  LIG1        0.0891
      3 C          -0.6670    2.1920    0.0000 C.ar    1  LIG1        0.0139
      4 C          -1.6580    2.1920    0.0000 C.ar    1  LIG1       -0.0056
      5 C          -2.1540    1.3290    0.0000 C.ar    1  LIG1        0.0499
      6 N          -3.1290    1.5330    0.0000 N.am    1  LIG1       -0.2603
      7 C          -3.9920    1.0380    0.0000 C.2     1  LIG1        0.2288
      8 O          -4.8580    1.5330    0.0000 O.2     1  LIG1       -0.2745
      9 C          -3.9920    0.0380    0.0000 C.3     1  LIG1        0.0770
     10 C          -3.2880   -0.6670    0.0000 C.3     1  LIG1        0.0091
     11 C          -3.9920   -1.3670    0.0000 C.3     1  LIG1        0.0010
     12 C          -4.7000   -0.6630    0.0000 C.3     1  LIG1        0.0091
     13 C          -3.2380    2.5250    0.0000 C.3     1  LIG1        0.0842
     14 C          -2.3290    2.9290    0.0000 C.3     1  LIG1        0.0478
     15 C          -4.1000    3.0250    0.0000 C.3     1  LIG1        0.0222
     16 C          -1.6580    0.4630    0.0000 C.ar    1  LIG1        0.0159
     17 C          -0.6670    0.4630    0.0000 C.ar    1  LIG1        0.0182
     18 N           1.8290    1.3250    0.0000 N.pl3   1  LIG1       -0.5358
     19 C           2.3330    0.4710    0.0000 C.ar    1  LIG1       -0.1123
     20 C           3.3500    0.4710    0.0000 C.ar    1  LIG1       -0.0242
     21 C           3.8540   -0.4080    0.0000 C.ar    1  LIG1       -0.0061
     22 C           3.3500   -1.2830    0.0000 C.ar    1  LIG1       -0.0226
     23 C           2.3330   -1.2830    0.0000 C.ar    1  LIG1       -0.0061
     24 C           1.8290   -0.4080    0.0000 C.ar    1  LIG1       -0.0242
     25 C           3.8500   -2.1540    0.0000 C.3     1  LIG1        0.0224
     26 C           4.8540   -2.1540    0.0000 C.3     1  LIG1        0.0047
     27 C           3.3500   -3.0210    0.0000 C.3     1  LIG1        0.0047
     28 O           0.8290    2.3250    0.0000 O.2     1  LIG1       -0.1842
     29 O           0.8290    0.3290    0.0000 O.2     1  LIG1       -0.1842
@<TRIPOS>BOND
     1     1     2    1
     2     1    18    1
     3     1    28    2
     4     1    29    2
     5     2     3   ar
     6     2    17   ar
     7     3     4   ar
     8     4     5   ar
     9     4    14    1
    10     5     6    1
    11     5    16   ar
    12     6     7   am
    13     6    13    1
    14     7     8    2
    15     7     9    1
    16     9    10    1
    17     9    12    1
    18    10    11    1
    19    11    12    1
    20    13    14    1
    21    13    15    1
    22    16    17   ar
    23    18    19    1
    24    19    20   ar
    25    19    24   ar
    26    20    21   ar
    27    21    22   ar
    28    22    23   ar
    29    22    25    1
    30    23    24   ar
    31    25    26    1
    32    25    27    1
