@<TRIPOS>MOLECULE
37177_ChemDiv_E699-1444
 29 32 0 0 0
SMALL
GASTEIGER
Energy = 0

@<TRIPOS>ATOM
      1 S           0.6170    0.0630    0.0000 S.O2    1  LIG1       -0.0577
      2 N           1.6130    0.0630    0.0000 N.pl3   1  LIG1       -0.5335
      3 C           2.1210    0.9290    0.0000 C.ar    1  LIG1       -0.0775
      4 C           3.1170    0.9000    0.0000 C.ar    1  LIG1        0.1165
      5 O           3.6000    0.0580    0.0000 O.3     1  LIG1       -0.4773
      6 C           4.6080    0.0540    0.0000 C.3     1  LIG1        0.2054
      7 C           5.0960   -0.8290    0.0000 C.3     1  LIG1        0.0512
      8 C           3.6130    1.7710    0.0000 C.ar    1  LIG1        0.0350
      9 C           3.1210    2.6500    0.0000 C.ar    1  LIG1        0.0030
     10 C           2.1170    2.6500    0.0000 C.ar    1  LIG1       -0.0017
     11 C           1.6290    1.8000    0.0000 C.ar    1  LIG1       -0.0209
     12 C          -0.3830    0.0630    0.0000 C.ar    1  LIG1        0.0891
     13 C          -0.8880    0.9290    0.0000 C.ar    1  LIG1        0.0139
     14 C          -1.8830    0.9290    0.0000 C.ar    1  LIG1       -0.0056
     15 C          -2.3880    0.0630    0.0000 C.ar    1  LIG1        0.0499
     16 N          -3.3670    0.2670    0.0000 N.am    1  LIG1       -0.2603
     17 C          -4.2330   -0.2290    0.0000 C.2     1  LIG1        0.2288
     18 O          -5.1000    0.2710    0.0000 O.2     1  LIG1       -0.2745
     19 C          -4.2330   -1.2290    0.0000 C.3     1  LIG1        0.0770
     20 C          -4.9420   -1.9380    0.0000 C.3     1  LIG1        0.0091
     21 C          -4.2330   -2.6460    0.0000 C.3     1  LIG1        0.0010
     22 C          -3.5250   -1.9380    0.0000 C.3     1  LIG1        0.0091
     23 C          -3.4710    1.2630    0.0000 C.3     1  LIG1        0.0842
     24 C          -2.5540    1.6710    0.0000 C.3     1  LIG1        0.0478
     25 C          -4.3380    1.7670    0.0000 C.3     1  LIG1        0.0222
     26 C          -1.8830   -0.8080    0.0000 C.ar    1  LIG1        0.0159
     27 C          -0.8880   -0.8080    0.0000 C.ar    1  LIG1        0.0182
     28 O           0.6170   -0.9420    0.0000 O.2     1  LIG1       -0.1842
     29 O           0.6170    1.0630    0.0000 O.2     1  LIG1       -0.1842
@<TRIPOS>BOND
     1     1     2    1
     2     1    12    1
     3     1    28    2
     4     1    29    2
     5     2     3    1
     6     3     4   ar
     7     3    11   ar
     8     4     5    1
     9     4     8   ar
    10     5     6    1
    11     6     7    1
    12     8     9   ar
    13     9    10   ar
    14    10    11   ar
    15    12    13   ar
    16    12    27   ar
    17    13    14   ar
    18    14    15   ar
    19    14    24    1
    20    15    16    1
    21    15    26   ar
    22    16    17   am
    23    16    23    1
    24    17    18    2
    25    17    19    1
    26    19    20    1
    27    19    22    1
    28    20    21    1
    29    21    22    1
    30    23    24    1
    31    23    25    1
    32    26    27   ar
