@<TRIPOS>MOLECULE
37176_ChemDiv_C561-2196
 37 40 0 0 0
SMALL
GASTEIGER
Energy = 0

@<TRIPOS>ATOM
      1 C          -4.3000   -2.1960    0.0000 C.ar    1  LIG1        0.1596
      2 N          -5.2420   -2.5040    0.0000 N.ar    1  LIG1       -0.2381
      3 N          -5.8290   -1.6880    0.0000 N.ar    1  LIG1       -0.1725
      4 C          -5.2420   -0.8880    0.0000 C.ar    1  LIG1        0.0816
      5 C          -4.3000   -1.2000    0.0000 C.ar    1  LIG1        0.0465
      6 C          -3.4380   -0.7000    0.0000 C.ar    1  LIG1       -0.0205
      7 C          -2.5670   -1.2000    0.0000 C.ar    1  LIG1       -0.0119
      8 C          -2.5670   -2.1960    0.0000 C.ar    1  LIG1        0.0567
      9 N          -3.4380   -2.6960    0.0000 N.ar    1  LIG1       -0.2315
     10 C          -1.6960   -2.6960    0.0000 C.3     1  LIG1        0.0518
     11 C          -1.6960   -0.6880    0.0000 C.3     1  LIG1        0.0369
     12 C          -0.8210   -1.1880    0.0000 C.3     1  LIG1        0.0919
     13 C           0.0420   -0.6830    0.0000 C.2     1  LIG1        0.2459
     14 N           0.0290    0.3250    0.0000 N.am    1  LIG1       -0.1792
     15 C           0.9000    0.8250    0.0000 C.ar    1  LIG1        0.0734
     16 C           1.7540    0.3250    0.0000 C.ar    1  LIG1        0.0180
     17 C           2.6250    0.8250    0.0000 C.ar    1  LIG1        0.0212
     18 C           2.6250    1.8210    0.0000 C.ar    1  LIG1        0.1223
     19 S           3.4880    2.3290    0.0000 S.O2    1  LIG1        0.0633
     20 N           4.3500    2.8380    0.0000 N.3     1  LIG1       -0.1555
     21 C           5.1830    2.2170    0.0000 C.3     1  LIG1        0.0958
     22 C           6.0460    2.3420    0.0000 C.3     1  LIG1        0.0191
     23 C           6.5040    3.2500    0.0000 C.3     1  LIG1        0.0015
     24 C           6.0380    4.1960    0.0000 C.3     1  LIG1        0.0015
     25 C           4.9750    4.4130    0.0000 C.3     1  LIG1        0.0191
     26 C           4.2330    3.7290    0.0000 C.3     1  LIG1        0.0958
     27 O           3.9790    1.4670    0.0000 O.2     1  LIG1       -0.1528
     28 O           2.9790    3.2000    0.0000 O.2     1  LIG1       -0.1528
     29 C           1.7540    2.3210    0.0000 C.ar    1  LIG1        0.0212
     30 C           0.8920    1.8210    0.0000 C.ar    1  LIG1        0.0180
     31 O           0.9170   -1.1750    0.0000 O.2     1  LIG1       -0.2730
     32 C          -3.4380    0.3000    0.0000 C.3     1  LIG1        0.0309
     33 C          -5.5540    0.0670    0.0000 C.3     1  LIG1        0.0540
     34 C          -5.5540   -3.4580    0.0000 C.3     1  LIG1        0.0882
     35 C          -6.5040   -3.1500    0.0000 C.3     1  LIG1        0.0245
     36 C          -4.6040   -3.7630    0.0000 C.3     1  LIG1        0.0245
     37 C          -5.8580   -4.4130    0.0000 C.3     1  LIG1        0.0245
@<TRIPOS>BOND
     1     1     2   ar
     2     1     5   ar
     3     1     9   ar
     4     2     3   ar
     5     2    34    1
     6     3     4   ar
     7     4     5   ar
     8     4    33    1
     9     5     6   ar
    10     6     7   ar
    11     6    32    1
    12     7     8   ar
    13     7    11    1
    14     8     9   ar
    15     8    10    1
    16    11    12    1
    17    12    13    1
    18    13    14   am
    19    13    31    2
    20    14    15    1
    21    15    16   ar
    22    15    30   ar
    23    16    17   ar
    24    17    18   ar
    25    18    19    1
    26    18    29   ar
    27    19    20    1
    28    19    27    2
    29    19    28    2
    30    20    21    1
    31    20    26    1
    32    21    22    1
    33    22    23    1
    34    23    24    1
    35    24    25    1
    36    25    26    1
    37    29    30   ar
    38    34    35    1
    39    34    36    1
    40    34    37    1
