@<TRIPOS>MOLECULE
37173_ChemDiv_E699-1417
 28 31 0 0 0
SMALL
GASTEIGER
Energy = 0

@<TRIPOS>ATOM
      1 S           0.5960    0.5000    0.0000 S.O2    1  LIG1       -0.0578
      2 C          -0.4040    0.5000    0.0000 C.ar    1  LIG1        0.0891
      3 C          -0.9000    1.3750    0.0000 C.ar    1  LIG1        0.0139
      4 C          -1.9000    1.3750    0.0000 C.ar    1  LIG1       -0.0056
      5 C          -2.4000    0.5000    0.0000 C.ar    1  LIG1        0.0499
      6 N          -3.3750    0.7080    0.0000 N.am    1  LIG1       -0.2603
      7 C          -4.2420    0.2130    0.0000 C.2     1  LIG1        0.2288
      8 O          -5.1080    0.7130    0.0000 O.2     1  LIG1       -0.2745
      9 C          -4.2420   -0.7880    0.0000 C.3     1  LIG1        0.0770
     10 C          -4.9500   -1.4960    0.0000 C.3     1  LIG1        0.0091
     11 C          -4.2420   -2.2000    0.0000 C.3     1  LIG1        0.0010
     12 C          -3.5330   -1.4960    0.0000 C.3     1  LIG1        0.0091
     13 C          -3.4830    1.7040    0.0000 C.3     1  LIG1        0.0842
     14 C          -2.5710    2.1080    0.0000 C.3     1  LIG1        0.0478
     15 C          -4.3460    2.2040    0.0000 C.3     1  LIG1        0.0222
     16 C          -1.9000   -0.3630    0.0000 C.ar    1  LIG1        0.0159
     17 C          -0.9000   -0.3630    0.0000 C.ar    1  LIG1        0.0182
     18 N           1.5920    0.5000    0.0000 N.pl3   1  LIG1       -0.5358
     19 C           2.0880   -0.3630    0.0000 C.ar    1  LIG1       -0.1118
     20 C           3.0960   -0.3580    0.0000 C.ar    1  LIG1       -0.0177
     21 C           3.6040   -1.2330    0.0000 C.ar    1  LIG1        0.0234
     22 S           4.6000   -1.2290    0.0000 S.3     1  LIG1       -0.1128
     23 C           5.1040   -2.0960    0.0000 C.3     1  LIG1        0.0742
     24 C           3.0960   -2.1000    0.0000 C.ar    1  LIG1        0.0060
     25 C           2.1000   -2.1000    0.0000 C.ar    1  LIG1       -0.0014
     26 C           1.6000   -1.2330    0.0000 C.ar    1  LIG1       -0.0238
     27 O           0.5960    1.5040    0.0000 O.2     1  LIG1       -0.1842
     28 O           0.5960   -0.4960    0.0000 O.2     1  LIG1       -0.1842
@<TRIPOS>BOND
     1     1     2    1
     2     1    18    1
     3     1    27    2
     4     1    28    2
     5     2     3   ar
     6     2    17   ar
     7     3     4   ar
     8     4     5   ar
     9     4    14    1
    10     5     6    1
    11     5    16   ar
    12     6     7   am
    13     6    13    1
    14     7     8    2
    15     7     9    1
    16     9    10    1
    17     9    12    1
    18    10    11    1
    19    11    12    1
    20    13    14    1
    21    13    15    1
    22    16    17   ar
    23    18    19    1
    24    19    20   ar
    25    19    26   ar
    26    20    21   ar
    27    21    22    1
    28    21    24   ar
    29    22    23    1
    30    24    25   ar
    31    25    26   ar
