@<TRIPOS>MOLECULE
37172_ChemDiv_C430-0598
 18 19 0 0 0
SMALL
GASTEIGER
Energy = 0

@<TRIPOS>ATOM
      1 C          -1.8290   -0.6250    0.0000 C.ar    1  LIG1        0.1598
      2 C          -1.8290    0.3790    0.0000 C.ar    1  LIG1        0.0465
      3 C          -2.7790    0.6790    0.0000 C.ar    1  LIG1        0.0816
      4 N          -3.3670   -0.1290    0.0000 N.ar    1  LIG1       -0.1723
      5 N          -2.7790   -0.9330    0.0000 N.ar    1  LIG1       -0.2323
      6 C          -3.0880   -1.8830    0.0000 C.3     1  LIG1        0.1554
      7 C          -3.0880    1.6330    0.0000 C.3     1  LIG1        0.0540
      8 C          -0.9710    0.8750    0.0000 C.ar    1  LIG1       -0.0205
      9 C          -0.0960    0.3790    0.0000 C.ar    1  LIG1       -0.0120
     10 C          -0.0960   -0.6250    0.0000 C.ar    1  LIG1        0.0567
     11 N          -0.9710   -1.1290    0.0000 N.ar    1  LIG1       -0.2315
     12 C           0.7710   -1.1290    0.0000 C.3     1  LIG1        0.0518
     13 C           0.7630    0.8830    0.0000 C.3     1  LIG1        0.0331
     14 C           1.6290    0.3830    0.0000 C.3     1  LIG1        0.0464
     15 C           2.4880    0.8920    0.0000 C.2     1  LIG1        0.0507
     16 O           2.4880    1.8880    0.0000 O.co2   1  LIG1       -0.5492
     17 O           3.3630    0.3960    0.0000 O.co2   1  LIG1       -0.5492
     18 C          -0.9710    1.8750    0.0000 C.3     1  LIG1        0.0309
@<TRIPOS>BOND
     1     1     2   ar
     2     1     5   ar
     3     1    11   ar
     4     2     3   ar
     5     2     8   ar
     6     3     4   ar
     7     3     7    1
     8     4     5   ar
     9     5     6    1
    10     8     9   ar
    11     8    18    1
    12     9    10   ar
    13     9    13    1
    14    10    11   ar
    15    10    12    1
    16    13    14    1
    17    14    15    1
    18    15    16   ar
    19    15    17   ar
