@<TRIPOS>MOLECULE
37170_ChemDiv_C430-0541
 23 24 0 0 0
SMALL
GASTEIGER
Energy = 0

@<TRIPOS>ATOM
      1 C          -2.3500   -0.1460    0.0000 C.ar    1  LIG1        0.1596
      2 N          -3.3000   -0.4460    0.0000 N.ar    1  LIG1       -0.2381
      3 N          -3.8920    0.3540    0.0000 N.ar    1  LIG1       -0.1725
      4 C          -3.3000    1.1630    0.0000 C.ar    1  LIG1        0.0816
      5 C          -2.3500    0.8540    0.0000 C.ar    1  LIG1        0.0465
      6 C          -1.4880    1.3580    0.0000 C.ar    1  LIG1       -0.0205
      7 C          -0.6210    0.8580    0.0000 C.ar    1  LIG1       -0.0118
      8 C          -0.6210   -0.1460    0.0000 C.ar    1  LIG1        0.0568
      9 N          -1.4880   -0.6460    0.0000 N.ar    1  LIG1       -0.2315
     10 C           0.2420   -0.6460    0.0000 C.3     1  LIG1        0.0518
     11 C           0.2420    1.3710    0.0000 C.3     1  LIG1        0.0389
     12 C           1.1040    0.8710    0.0000 C.3     1  LIG1        0.1143
     13 C           1.9710    1.3710    0.0000 C.2     1  LIG1        0.3173
     14 O           1.9710    2.3710    0.0000 O.2     1  LIG1       -0.2501
     15 O           2.8420    0.8750    0.0000 O.3     1  LIG1       -0.4485
     16 C           3.7040    1.3830    0.0000 C.3     1  LIG1        0.2086
     17 C           4.5750    0.8830    0.0000 C.3     1  LIG1        0.0513
     18 C          -1.5000    2.3580    0.0000 C.3     1  LIG1        0.0309
     19 C          -3.6080    2.1170    0.0000 C.3     1  LIG1        0.0540
     20 C          -3.6080   -1.4000    0.0000 C.3     1  LIG1        0.0882
     21 C          -4.5790   -1.1380    0.0000 C.3     1  LIG1        0.0245
     22 C          -3.8750   -2.3670    0.0000 C.3     1  LIG1        0.0245
     23 C          -2.6500   -1.6580    0.0000 C.3     1  LIG1        0.0245
@<TRIPOS>BOND
     1     1     2   ar
     2     1     5   ar
     3     1     9   ar
     4     2     3   ar
     5     2    20    1
     6     3     4   ar
     7     4     5   ar
     8     4    19    1
     9     5     6   ar
    10     6     7   ar
    11     6    18    1
    12     7     8   ar
    13     7    11    1
    14     8     9   ar
    15     8    10    1
    16    11    12    1
    17    12    13    1
    18    13    14    2
    19    13    15    1
    20    15    16    1
    21    16    17    1
    22    20    21    1
    23    20    22    1
    24    20    23    1
