@<TRIPOS>MOLECULE
37182_ChemDiv_C999-0400
 33 36 0 0 0
SMALL
GASTEIGER
Energy = 0

@<TRIPOS>ATOM
      1 C           3.2460    1.0630    0.0000 C.ar    1  LIG1        0.1596
      2 N           3.5540    2.0080    0.0000 N.ar    1  LIG1       -0.2381
      3 N           2.7420    2.6000    0.0000 N.ar    1  LIG1       -0.1725
      4 C           1.9290    2.0080    0.0000 C.ar    1  LIG1        0.0816
      5 C           2.2460    1.0630    0.0000 C.ar    1  LIG1        0.0465
      6 C           1.7420    0.1920    0.0000 C.ar    1  LIG1       -0.0205
      7 C           2.2460   -0.6710    0.0000 C.ar    1  LIG1       -0.0119
      8 C           3.2460   -0.6710    0.0000 C.ar    1  LIG1        0.0567
      9 N           3.7420    0.1920    0.0000 N.ar    1  LIG1       -0.2315
     10 C           3.7420   -1.5420    0.0000 C.3     1  LIG1        0.0518
     11 C           1.7420   -1.5420    0.0000 C.3     1  LIG1        0.0368
     12 C           0.7420   -1.5420    0.0000 C.3     1  LIG1        0.0900
     13 C           0.2460   -2.4040    0.0000 C.2     1  LIG1        0.2261
     14 N          -0.7580   -2.4040    0.0000 N.am    1  LIG1       -0.2760
     15 C          -1.2580   -1.5420    0.0000 C.3     1  LIG1        0.1149
     16 C          -2.2630   -1.5420    0.0000 C.3     1  LIG1        0.1153
     17 N          -2.7630   -2.4040    0.0000 N.am    1  LIG1       -0.2701
     18 C          -3.7580   -2.4040    0.0000 C.2     1  LIG1        0.2839
     19 C          -4.2580   -1.5420    0.0000 C.ar    1  LIG1        0.1987
     20 O          -5.2540   -1.4330    0.0000 O.2     1  LIG1       -0.4458
     21 C          -5.4630   -0.4540    0.0000 C.ar    1  LIG1        0.1798
     22 C          -4.6000    0.0460    0.0000 C.ar    1  LIG1        0.0440
     23 C          -3.8540   -0.6250    0.0000 C.ar    1  LIG1        0.0455
     24 O          -4.2580   -3.2710    0.0000 O.2     1  LIG1       -0.2666
     25 C          -2.2630   -3.2710    0.0000 C.3     1  LIG1        0.1153
     26 C          -1.2580   -3.2710    0.0000 C.3     1  LIG1        0.1149
     27 O           0.7420   -3.2710    0.0000 O.2     1  LIG1       -0.2749
     28 C           0.7420    0.1920    0.0000 C.3     1  LIG1        0.0309
     29 C           0.9830    2.3210    0.0000 C.3     1  LIG1        0.0540
     30 C           4.5040    2.3210    0.0000 C.3     1  LIG1        0.0882
     31 C           5.4580    2.6290    0.0000 C.3     1  LIG1        0.0245
     32 C           4.8130    1.3710    0.0000 C.3     1  LIG1        0.0245
     33 C           4.1960    3.2750    0.0000 C.3     1  LIG1        0.0245
@<TRIPOS>BOND
     1     1     2   ar
     2     1     5   ar
     3     1     9   ar
     4     2     3   ar
     5     2    30    1
     6     3     4   ar
     7     4     5   ar
     8     4    29    1
     9     5     6   ar
    10     6     7   ar
    11     6    28    1
    12     7     8   ar
    13     7    11    1
    14     8     9   ar
    15     8    10    1
    16    11    12    1
    17    12    13    1
    18    13    14   am
    19    13    27    2
    20    14    15    1
    21    14    26    1
    22    15    16    1
    23    16    17    1
    24    17    18   am
    25    17    25    1
    26    18    19    1
    27    18    24    2
    28    19    20   ar
    29    19    23   ar
    30    20    21   ar
    31    21    22   ar
    32    22    23   ar
    33    25    26    1
    34    30    31    1
    35    30    32    1
    36    30    33    1
