@<TRIPOS>MOLECULE
37184_ChemDiv_C999-0416
 33 35 0 0 0
SMALL
GASTEIGER
Energy = 0

@<TRIPOS>ATOM
      1 C           2.6420    2.3630    0.0000 C.ar    1  LIG1        0.1596
      2 N           2.9500    3.3080    0.0000 N.ar    1  LIG1       -0.2381
      3 N           2.1420    3.9000    0.0000 N.ar    1  LIG1       -0.1725
      4 C           1.3290    3.3080    0.0000 C.ar    1  LIG1        0.0816
      5 C           1.6420    2.3630    0.0000 C.ar    1  LIG1        0.0465
      6 C           1.1420    1.4920    0.0000 C.ar    1  LIG1       -0.0205
      7 C           1.6420    0.6290    0.0000 C.ar    1  LIG1       -0.0119
      8 C           2.6420    0.6290    0.0000 C.ar    1  LIG1        0.0567
      9 N           3.1380    1.4920    0.0000 N.ar    1  LIG1       -0.2315
     10 C           3.1380   -0.2380    0.0000 C.3     1  LIG1        0.0518
     11 C           1.1420   -0.2380    0.0000 C.3     1  LIG1        0.0369
     12 C           0.1380   -0.2380    0.0000 C.3     1  LIG1        0.0919
     13 C          -0.3580   -1.1040    0.0000 C.2     1  LIG1        0.2460
     14 N          -1.3580   -1.1040    0.0000 N.am    1  LIG1       -0.1760
     15 C          -1.8580   -1.9670    0.0000 C.ar    1  LIG1        0.1102
     16 C          -2.8630   -1.9670    0.0000 C.ar    1  LIG1        0.0566
     17 C          -3.3630   -2.8330    0.0000 C.ar    1  LIG1        0.1401
     18 C          -2.8630   -3.7000    0.0000 C.ar    1  LIG1        0.0401
     19 C          -1.8580   -3.7000    0.0000 C.ar    1  LIG1        0.0414
     20 C          -1.3580   -2.8330    0.0000 C.ar    1  LIG1        0.1539
     21 O          -0.3580   -2.8330    0.0000 O.3     1  LIG1       -0.4741
     22 C           0.1380   -3.7000    0.0000 C.3     1  LIG1        0.2056
     23 C           1.1420   -3.7000    0.0000 C.3     1  LIG1        0.0512
     24 O          -4.3580   -2.8330    0.0000 O.3     1  LIG1       -0.4754
     25 C          -4.8580   -3.7000    0.0000 C.3     1  LIG1        0.2055
     26 C          -4.3580   -4.5670    0.0000 C.3     1  LIG1        0.0512
     27 O           0.1380   -1.9670    0.0000 O.2     1  LIG1       -0.2730
     28 C           0.1380    1.4920    0.0000 C.3     1  LIG1        0.0309
     29 C           0.3790    3.6210    0.0000 C.3     1  LIG1        0.0540
     30 C           3.9000    3.6210    0.0000 C.3     1  LIG1        0.0882
     31 C           3.5920    4.5670    0.0000 C.3     1  LIG1        0.0245
     32 C           4.8540    3.9290    0.0000 C.3     1  LIG1        0.0245
     33 C           4.2080    2.6710    0.0000 C.3     1  LIG1        0.0245
@<TRIPOS>BOND
     1     1     2   ar
     2     1     5   ar
     3     1     9   ar
     4     2     3   ar
     5     2    30    1
     6     3     4   ar
     7     4     5   ar
     8     4    29    1
     9     5     6   ar
    10     6     7   ar
    11     6    28    1
    12     7     8   ar
    13     7    11    1
    14     8     9   ar
    15     8    10    1
    16    11    12    1
    17    12    13    1
    18    13    14   am
    19    13    27    2
    20    14    15    1
    21    15    16   ar
    22    15    20   ar
    23    16    17   ar
    24    17    18   ar
    25    17    24    1
    26    18    19   ar
    27    19    20   ar
    28    20    21    1
    29    21    22    1
    30    22    23    1
    31    24    25    1
    32    25    26    1
    33    30    31    1
    34    30    32    1
    35    30    33    1
