@<TRIPOS>MOLECULE
37180_ChemDiv_C999-0376
 30 33 0 0 0
SMALL
GASTEIGER
Energy = 0

@<TRIPOS>ATOM
      1 C           2.4330    1.0580    0.0000 C.ar    1  LIG1        0.1596
      2 N           2.7420    2.0080    0.0000 N.ar    1  LIG1       -0.2381
      3 N           1.9330    2.5960    0.0000 N.ar    1  LIG1       -0.1725
      4 C           1.1210    2.0080    0.0000 C.ar    1  LIG1        0.0816
      5 C           1.4330    1.0580    0.0000 C.ar    1  LIG1        0.0465
      6 C           0.9330    0.1920    0.0000 C.ar    1  LIG1       -0.0205
      7 C           1.4330   -0.6710    0.0000 C.ar    1  LIG1       -0.0119
      8 C           2.4330   -0.6710    0.0000 C.ar    1  LIG1        0.0567
      9 N           2.9290    0.1920    0.0000 N.ar    1  LIG1       -0.2315
     10 C           2.9290   -1.5420    0.0000 C.3     1  LIG1        0.0518
     11 C           0.9330   -1.5420    0.0000 C.3     1  LIG1        0.0369
     12 C          -0.0710   -1.5420    0.0000 C.3     1  LIG1        0.0919
     13 C          -0.5670   -2.4040    0.0000 C.2     1  LIG1        0.2459
     14 N          -1.5710   -2.4040    0.0000 N.am    1  LIG1       -0.1791
     15 C          -2.0670   -1.5420    0.0000 C.ar    1  LIG1        0.0766
     16 C          -3.0710   -1.5420    0.0000 C.ar    1  LIG1        0.0568
     17 C          -3.5710   -0.6710    0.0000 C.ar    1  LIG1        0.1777
     18 C          -3.0710    0.1920    0.0000 C.ar    1  LIG1        0.1765
     19 O          -3.7380    0.9330    0.0000 O.3     1  LIG1       -0.4346
     20 C          -4.6500    0.5290    0.0000 C.3     1  LIG1        0.4294
     21 O          -4.5500   -0.4670    0.0000 O.3     1  LIG1       -0.4346
     22 C          -2.0670    0.1920    0.0000 C.ar    1  LIG1        0.0415
     23 C          -1.5710   -0.6710    0.0000 C.ar    1  LIG1        0.0199
     24 O          -0.0710   -3.2670    0.0000 O.2     1  LIG1       -0.2730
     25 C          -0.0710    0.1920    0.0000 C.3     1  LIG1        0.0309
     26 C           0.1710    2.3210    0.0000 C.3     1  LIG1        0.0540
     27 C           3.6920    2.3210    0.0000 C.3     1  LIG1        0.0882
     28 C           4.6460    2.6290    0.0000 C.3     1  LIG1        0.0245
     29 C           4.0000    1.3710    0.0000 C.3     1  LIG1        0.0245
     30 C           3.3830    3.2710    0.0000 C.3     1  LIG1        0.0245
@<TRIPOS>BOND
     1     1     2   ar
     2     1     5   ar
     3     1     9   ar
     4     2     3   ar
     5     2    27    1
     6     3     4   ar
     7     4     5   ar
     8     4    26    1
     9     5     6   ar
    10     6     7   ar
    11     6    25    1
    12     7     8   ar
    13     7    11    1
    14     8     9   ar
    15     8    10    1
    16    11    12    1
    17    12    13    1
    18    13    14   am
    19    13    24    2
    20    14    15    1
    21    15    16   ar
    22    15    23   ar
    23    16    17   ar
    24    17    18   ar
    25    17    21    1
    26    18    19    1
    27    18    22   ar
    28    19    20    1
    29    20    21    1
    30    22    23   ar
    31    27    28    1
    32    27    29    1
    33    27    30    1
