@<TRIPOS>MOLECULE
37181_ChemDiv_C361-1015
 28 32 0 0 0
SMALL
GASTEIGER
Energy = 0

@<TRIPOS>ATOM
      1 S           2.0080   -0.5000    0.0000 S.O2    1  LIG1       -0.0578
      2 N           2.8790    0.0000    0.0000 N.pl3   1  LIG1       -0.5357
      3 C           2.8790    0.9920    0.0000 C.ar    1  LIG1       -0.1091
      4 C           3.7380    1.4960    0.0000 C.ar    1  LIG1        0.0164
      5 C           3.7380    2.4880    0.0000 C.ar    1  LIG1        0.1746
      6 C           2.8790    2.9920    0.0000 C.ar    1  LIG1        0.1763
      7 O           3.0920    3.9540    0.0000 O.3     1  LIG1       -0.4346
      8 C           4.0580    4.0580    0.0000 C.3     1  LIG1        0.4294
      9 O           4.4790    3.1630    0.0000 O.3     1  LIG1       -0.4347
     10 C           2.0210    2.5000    0.0000 C.ar    1  LIG1        0.0383
     11 C           2.0080    1.4960    0.0000 C.ar    1  LIG1       -0.0205
     12 C           1.1330   -1.0040    0.0000 C.ar    1  LIG1        0.0891
     13 C           0.2750   -0.5000    0.0000 C.ar    1  LIG1        0.0139
     14 C          -0.5960   -1.0040    0.0000 C.ar    1  LIG1       -0.0055
     15 C          -0.5960   -2.0080    0.0000 C.ar    1  LIG1        0.0500
     16 N          -1.5500   -2.3250    0.0000 N.am    1  LIG1       -0.2586
     17 C          -2.0500   -3.1960    0.0000 C.2     1  LIG1        0.2288
     18 O          -1.5500   -4.0580    0.0000 O.2     1  LIG1       -0.2745
     19 C          -3.0540   -3.1960    0.0000 C.3     1  LIG1        0.0770
     20 C          -3.7710   -3.8960    0.0000 C.3     1  LIG1        0.0091
     21 C          -4.4830   -3.1960    0.0000 C.3     1  LIG1        0.0010
     22 C          -3.7710   -2.4830    0.0000 C.3     1  LIG1        0.0091
     23 C          -2.1420   -1.5040    0.0000 C.3     1  LIG1        0.1029
     24 C          -1.5500   -0.7000    0.0000 C.3     1  LIG1        0.0495
     25 C           0.2750   -2.5080    0.0000 C.ar    1  LIG1        0.0159
     26 C           1.1330   -2.0080    0.0000 C.ar    1  LIG1        0.0182
     27 O           1.5040    0.3580    0.0000 O.2     1  LIG1       -0.1842
     28 O           2.5080   -1.3710    0.0000 O.2     1  LIG1       -0.1842
@<TRIPOS>BOND
     1     1     2    1
     2     1    12    1
     3     1    27    2
     4     1    28    2
     5     2     3    1
     6     3     4   ar
     7     3    11   ar
     8     4     5   ar
     9     5     6   ar
    10     5     9    1
    11     6     7    1
    12     6    10   ar
    13     7     8    1
    14     8     9    1
    15    10    11   ar
    16    12    13   ar
    17    12    26   ar
    18    13    14   ar
    19    14    15   ar
    20    14    24    1
    21    15    16    1
    22    15    25   ar
    23    16    17   am
    24    16    23    1
    25    17    18    2
    26    17    19    1
    27    19    20    1
    28    19    22    1
    29    20    21    1
    30    21    22    1
    31    23    24    1
    32    25    26   ar
