@<TRIPOS>MOLECULE
37199_ChemDiv_C336-0061
 34 38 0 0 0
SMALL
GASTEIGER
Energy = 0

@<TRIPOS>ATOM
      1 N          -0.8540    0.6710    0.0000 N.ar    1  LIG1       -0.1476
      2 C          -1.7290    1.1880    0.0000 C.ar    1  LIG1        0.3758
      3 N          -1.5000    2.1460    0.0000 N.2     1  LIG1        0.0805
      4 C          -0.5130    2.2460    0.0000 C.3     1  LIG1        0.4188
      5 C          -0.1210    1.3380    0.0000 C.2     1  LIG1        0.3334
      6 O           0.8580    1.1290    0.0000 O.2     1  LIG1       -0.2633
      7 C          -0.0040    3.1130    0.0000 C.ar    1  LIG1        0.0642
      8 C           0.9960    3.1040    0.0000 C.ar    1  LIG1        0.0030
      9 C           1.5130    3.9630    0.0000 C.ar    1  LIG1       -0.0001
     10 C           1.0170    4.8330    0.0000 C.ar    1  LIG1       -0.0000
     11 C           0.0130    4.8420    0.0000 C.ar    1  LIG1       -0.0001
     12 C          -0.5000    3.9790    0.0000 C.ar    1  LIG1        0.0030
     13 C          -2.5960    0.6710    0.0000 C.ar    1  LIG1        0.1585
     14 C          -2.5960   -0.3380    0.0000 C.ar    1  LIG1        0.3068
     15 N          -1.7420   -0.8290    0.0000 N.ar    1  LIG1        0.1032
     16 C          -0.8670   -0.3380    0.0000 C.ar    1  LIG1        0.4035
     17 S           0.0130   -0.8420    0.0000 S.3     1  LIG1       -0.0096
     18 C           0.0000   -1.8420    0.0000 C.3     1  LIG1        0.1566
     19 C           0.8630   -2.3420    0.0000 C.2     1  LIG1        0.2573
     20 N           1.7250   -1.8420    0.0000 N.am    1  LIG1       -0.1754
     21 C           2.6000   -2.3420    0.0000 C.ar    1  LIG1        0.1080
     22 C           2.5920   -3.3420    0.0000 C.ar    1  LIG1        0.0311
     23 C           3.4670   -3.8420    0.0000 C.ar    1  LIG1        0.0592
     24 C           4.3290   -3.3420    0.0000 C.ar    1  LIG1        0.0146
     25 C           4.3170   -2.3380    0.0000 C.ar    1  LIG1        0.0391
     26 C           3.4540   -1.8420    0.0000 C.ar    1  LIG1        0.1539
     27 O           3.4500   -0.8420    0.0000 O.3     1  LIG1       -0.4701
     28 C           4.3130   -0.3380    0.0000 C.3     1  LIG1        0.2525
     29 CL          3.4540   -4.8420    0.0000 Cl      1  LIG1       -0.0822
     30 O           0.8630   -3.3420    0.0000 O.2     1  LIG1       -0.2720
     31 C          -3.4540   -0.8290    0.0000 C.ar    1  LIG1        0.0765
     32 C          -4.3330   -0.3290    0.0000 C.ar    1  LIG1        0.0063
     33 C          -4.3170    0.6710    0.0000 C.ar    1  LIG1        0.0007
     34 C          -3.4540    1.1630    0.0000 C.ar    1  LIG1        0.0141
@<TRIPOS>BOND
     1     1     2   ar
     2     1     5   am
     3     1    16   ar
     4     2     3    2
     5     2    13   ar
     6     3     4    1
     7     4     5    1
     8     4     7    1
     9     5     6    2
    10     7     8   ar
    11     7    12   ar
    12     8     9   ar
    13     9    10   ar
    14    10    11   ar
    15    11    12   ar
    16    13    14   ar
    17    13    34   ar
    18    14    15   ar
    19    14    31   ar
    20    15    16   ar
    21    16    17    1
    22    17    18    1
    23    18    19    1
    24    19    20   am
    25    19    30    2
    26    20    21    1
    27    21    22   ar
    28    21    26   ar
    29    22    23   ar
    30    23    24   ar
    31    23    29    1
    32    24    25   ar
    33    25    26   ar
    34    26    27    1
    35    27    28    1
    36    31    32   ar
    37    32    33   ar
    38    33    34   ar
