@<TRIPOS>MOLECULE
37191_ChemDiv_K279-0298
 29 33 0 0 0
SMALL
GASTEIGER
Energy = 0

@<TRIPOS>ATOM
      1 N          -1.3040    1.5040    0.0000 N.ar    1  LIG1       -0.1479
      2 C          -2.1630    2.0170    0.0000 C.ar    1  LIG1        0.3753
      3 N          -1.9630    3.0000    0.0000 N.2     1  LIG1        0.0755
      4 C          -0.9540    3.1040    0.0000 C.3     1  LIG1        0.3967
      5 C          -0.5580    2.1830    0.0000 C.2     1  LIG1        0.3287
      6 O           0.4380    2.0790    0.0000 O.2     1  LIG1       -0.2637
      7 C          -0.4580    3.9670    0.0000 C.3     1  LIG1        0.1029
      8 C          -3.0330    1.5040    0.0000 C.ar    1  LIG1        0.1585
      9 C          -3.0330    0.5080    0.0000 C.ar    1  LIG1        0.3068
     10 N          -2.1630    0.0080    0.0000 N.ar    1  LIG1        0.1032
     11 C          -1.3040    0.5080    0.0000 C.ar    1  LIG1        0.4034
     12 S          -0.4290    0.0080    0.0000 S.3     1  LIG1       -0.0130
     13 C          -0.4210   -0.9880    0.0000 C.3     1  LIG1        0.1155
     14 C           0.4500   -1.4710    0.0000 C.ar    1  LIG1        0.0768
     15 N           1.2960   -0.9710    0.0000 N.ar    1  LIG1       -0.2311
     16 C           2.1580   -1.4540    0.0000 C.ar    1  LIG1        0.1497
     17 N           2.1710   -2.4540    0.0000 N.ar    1  LIG1       -0.2569
     18 C           1.3080   -2.9670    0.0000 C.ar    1  LIG1        0.2672
     19 C           0.4500   -2.4670    0.0000 C.ar    1  LIG1        0.0767
     20 O           1.3130   -3.9630    0.0000 O.2     1  LIG1       -0.2665
     21 C           3.0380   -2.9460    0.0000 C.ar    1  LIG1        0.0957
     22 C           3.8960   -2.4380    0.0000 C.ar    1  LIG1        0.0754
     23 C           3.8920   -1.4330    0.0000 C.ar    1  LIG1        0.0160
     24 C           3.0170   -0.9500    0.0000 C.ar    1  LIG1        0.0384
     25 CL          4.7670   -2.9290    0.0000 Cl      1  LIG1       -0.0807
     26 C          -3.9000    0.0080    0.0000 C.ar    1  LIG1        0.0765
     27 C          -4.7710    0.5080    0.0000 C.ar    1  LIG1        0.0063
     28 C          -4.7710    1.5040    0.0000 C.ar    1  LIG1        0.0007
     29 C          -3.9000    2.0170    0.0000 C.ar    1  LIG1        0.0141
@<TRIPOS>BOND
     1     1     2   ar
     2     1     5   am
     3     1    11   ar
     4     2     3    2
     5     2     8   ar
     6     3     4    1
     7     4     5    1
     8     4     7    1
     9     5     6    2
    10     8     9   ar
    11     8    29   ar
    12     9    10   ar
    13     9    26   ar
    14    10    11   ar
    15    11    12    1
    16    12    13    1
    17    13    14    1
    18    14    15   ar
    19    14    19   ar
    20    15    16   ar
    21    16    17   ar
    22    16    24   ar
    23    17    18   ar
    24    17    21   ar
    25    18    19   ar
    26    18    20    2
    27    21    22   ar
    28    22    23   ar
    29    22    25    1
    30    23    24   ar
    31    26    27   ar
    32    27    28   ar
    33    28    29   ar
