@<TRIPOS>MOLECULE
37195_ChemDiv_K279-1122
 38 43 0 0 0
SMALL
GASTEIGER
Energy = 0

@<TRIPOS>ATOM
      1 N          -2.2380    2.2580    0.0000 N.ar    1  LIG1       -0.1479
      2 C          -2.2380    3.2540    0.0000 C.ar    1  LIG1        0.3753
      3 N          -1.2960    3.5540    0.0000 N.2     1  LIG1        0.0760
      4 C          -0.7250    2.7540    0.0000 C.3     1  LIG1        0.4056
      5 C          -1.2960    1.9580    0.0000 C.2     1  LIG1        0.3293
      6 O          -0.9670    0.9960    0.0000 O.2     1  LIG1       -0.2637
      7 C           0.2960    2.7420    0.0000 C.3     1  LIG1        0.1816
      8 C           0.7790    3.6170    0.0000 C.2     1  LIG1        0.2495
      9 N           1.7630    3.6290    0.0000 N.am    1  LIG1       -0.1970
     10 C           2.2880    2.7630    0.0000 C.3     1  LIG1        0.1791
     11 C           3.2830    2.7920    0.0000 C.ar    1  LIG1        0.1449
     12 O           3.9290    3.5420    0.0000 O.2     1  LIG1       -0.4529
     13 C           4.8500    3.1460    0.0000 C.ar    1  LIG1        0.1792
     14 C           4.7670    2.1540    0.0000 C.ar    1  LIG1        0.0435
     15 C           3.7960    1.9290    0.0000 C.ar    1  LIG1        0.0380
     16 O           0.2500    4.4710    0.0000 O.2     1  LIG1       -0.2731
     17 C          -3.1080    3.7670    0.0000 C.ar    1  LIG1        0.1585
     18 C          -3.9790    3.2540    0.0000 C.ar    1  LIG1        0.3068
     19 N          -3.9790    2.2580    0.0000 N.ar    1  LIG1        0.1032
     20 C          -3.1040    1.7460    0.0000 C.ar    1  LIG1        0.4034
     21 S          -3.1040    0.7540    0.0000 S.3     1  LIG1       -0.0130
     22 C          -2.2380    0.2420    0.0000 C.3     1  LIG1        0.1155
     23 C          -2.2630   -0.7540    0.0000 C.ar    1  LIG1        0.0768
     24 N          -3.1080   -1.2670    0.0000 N.ar    1  LIG1       -0.2311
     25 C          -3.1040   -2.2540    0.0000 C.ar    1  LIG1        0.1497
     26 N          -2.2380   -2.7380    0.0000 N.ar    1  LIG1       -0.2569
     27 C          -1.3880   -2.2540    0.0000 C.ar    1  LIG1        0.2672
     28 C          -1.3880   -1.2670    0.0000 C.ar    1  LIG1        0.0767
     29 O          -0.5130   -2.7670    0.0000 O.2     1  LIG1       -0.2665
     30 C          -2.2630   -3.7630    0.0000 C.ar    1  LIG1        0.0957
     31 C          -3.1080   -4.2420    0.0000 C.ar    1  LIG1        0.0754
     32 C          -3.9790   -3.7630    0.0000 C.ar    1  LIG1        0.0160
     33 C          -3.9790   -2.7380    0.0000 C.ar    1  LIG1        0.0384
     34 CL         -3.1080   -5.2670    0.0000 Cl      1  LIG1       -0.0807
     35 C          -4.8540    3.7670    0.0000 C.ar    1  LIG1        0.0765
     36 C          -4.8540    4.7540    0.0000 C.ar    1  LIG1        0.0063
     37 C          -3.9830    5.2670    0.0000 C.ar    1  LIG1        0.0007
     38 C          -3.1330    4.7540    0.0000 C.ar    1  LIG1        0.0141
@<TRIPOS>BOND
     1     1     2   ar
     2     1     5   am
     3     1    20   ar
     4     2     3    2
     5     2    17   ar
     6     3     4    1
     7     4     5    1
     8     4     7    1
     9     5     6    2
    10     7     8    1
    11     8     9   am
    12     8    16    2
    13     9    10    1
    14    10    11    1
    15    11    12   ar
    16    11    15   ar
    17    12    13   ar
    18    13    14   ar
    19    14    15   ar
    20    17    18   ar
    21    17    38   ar
    22    18    19   ar
    23    18    35   ar
    24    19    20   ar
    25    20    21    1
    26    21    22    1
    27    22    23    1
    28    23    24   ar
    29    23    28   ar
    30    24    25   ar
    31    25    26   ar
    32    25    33   ar
    33    26    27   ar
    34    26    30   ar
    35    27    28   ar
    36    27    29    2
    37    30    31   ar
    38    31    32   ar
    39    31    34    1
    40    32    33   ar
    41    35    36   ar
    42    36    37   ar
    43    37    38   ar
