@<TRIPOS>MOLECULE
37202_ChemDiv_C999-0853
 23 25 0 0 0
SMALL
GASTEIGER
Energy = 0

@<TRIPOS>ATOM
      1 C           2.3670    1.3960    0.0000 C.ar    1  LIG1        0.1598
      2 C           1.3670    1.3960    0.0000 C.ar    1  LIG1        0.0465
      3 C           1.0580    2.3460    0.0000 C.ar    1  LIG1        0.0816
      4 N           1.8710    2.9380    0.0000 N.ar    1  LIG1       -0.1723
      5 N           2.6750    2.3460    0.0000 N.ar    1  LIG1       -0.2323
      6 C           3.6290    2.6580    0.0000 C.3     1  LIG1        0.1554
      7 C           0.1080    2.6580    0.0000 C.3     1  LIG1        0.0540
      8 C           0.8670    0.5290    0.0000 C.ar    1  LIG1       -0.0205
      9 C           1.3670   -0.3380    0.0000 C.ar    1  LIG1       -0.0119
     10 C           2.3670   -0.3380    0.0000 C.ar    1  LIG1        0.0567
     11 N           2.8670    0.5290    0.0000 N.ar    1  LIG1       -0.2315
     12 C           2.8670   -1.2000    0.0000 C.3     1  LIG1        0.0518
     13 C           0.8670   -1.2000    0.0000 C.3     1  LIG1        0.0368
     14 C          -0.1290   -1.2000    0.0000 C.3     1  LIG1        0.0900
     15 C          -0.6330   -2.0670    0.0000 C.2     1  LIG1        0.2260
     16 N          -1.6330   -2.0670    0.0000 N.am    1  LIG1       -0.2795
     17 C          -2.1290   -2.9330    0.0000 C.3     1  LIG1        0.0934
     18 C          -3.1330   -2.9330    0.0000 C.3     1  LIG1        0.0216
     19 C          -3.6330   -2.0670    0.0000 C.3     1  LIG1        0.0035
     20 C          -3.1330   -1.2000    0.0000 C.3     1  LIG1        0.0216
     21 C          -2.1290   -1.2000    0.0000 C.3     1  LIG1        0.0934
     22 O          -0.1290   -2.9330    0.0000 O.2     1  LIG1       -0.2749
     23 C          -0.1290    0.5290    0.0000 C.3     1  LIG1        0.0309
@<TRIPOS>BOND
     1     1     2   ar
     2     1     5   ar
     3     1    11   ar
     4     2     3   ar
     5     2     8   ar
     6     3     4   ar
     7     3     7    1
     8     4     5   ar
     9     5     6    1
    10     8     9   ar
    11     8    23    1
    12     9    10   ar
    13     9    13    1
    14    10    11   ar
    15    10    12    1
    16    13    14    1
    17    14    15    1
    18    15    16   am
    19    15    22    2
    20    16    17    1
    21    16    21    1
    22    17    18    1
    23    18    19    1
    24    19    20    1
    25    20    21    1
