@<TRIPOS>MOLECULE
37205_ChemDiv_C361-1113
 32 36 0 0 0
SMALL
GASTEIGER
Energy = 0

@<TRIPOS>ATOM
      1 S           0.6170    0.0170    0.0000 S.O2    1  LIG1       -0.0578
      2 N           1.4880    0.5210    0.0000 N.pl3   1  LIG1       -0.5349
      3 C           1.4880    1.5170    0.0000 C.ar    1  LIG1       -0.0986
      4 C           2.3580    2.0210    0.0000 C.ar    1  LIG1        0.0257
      5 N           3.2290    1.5290    0.0000 N.pl3   1  LIG1       -0.2986
      6 C           3.2290    0.5210    0.0000 C.3     1  LIG1        0.1544
      7 C           4.0880    0.0330    0.0000 C.3     1  LIG1        0.1608
      8 N           4.9580    0.5210    0.0000 N.4     1  LIG1        0.3847
      9 C           4.9580    1.5290    0.0000 C.3     1  LIG1        0.1608
     10 C           4.0880    2.0330    0.0000 C.3     1  LIG1        0.1544
     11 C           5.8290    0.0330    0.0000 C.3     1  LIG1        0.2024
     12 C           2.3580    3.0290    0.0000 C.ar    1  LIG1        0.0127
     13 C           1.4880    3.5170    0.0000 C.ar    1  LIG1        0.0012
     14 C           0.6170    3.0130    0.0000 C.ar    1  LIG1       -0.0018
     15 C           0.6170    2.0210    0.0000 C.ar    1  LIG1       -0.0226
     16 C          -0.2380   -0.4880    0.0000 C.ar    1  LIG1        0.0891
     17 C          -1.1080    0.0170    0.0000 C.ar    1  LIG1        0.0139
     18 C          -1.9670   -0.4880    0.0000 C.ar    1  LIG1       -0.0055
     19 C          -1.9670   -1.4790    0.0000 C.ar    1  LIG1        0.0500
     20 N          -2.9130   -1.7880    0.0000 N.am    1  LIG1       -0.2586
     21 C          -3.4170   -2.6580    0.0000 C.2     1  LIG1        0.2288
     22 O          -2.9130   -3.5130    0.0000 O.2     1  LIG1       -0.2745
     23 C          -4.4130   -2.6580    0.0000 C.3     1  LIG1        0.0770
     24 C          -5.1130   -3.3580    0.0000 C.3     1  LIG1        0.0091
     25 C          -5.8330   -2.6580    0.0000 C.3     1  LIG1        0.0010
     26 C          -5.1130   -1.9380    0.0000 C.3     1  LIG1        0.0091
     27 C          -3.5080   -0.9750    0.0000 C.3     1  LIG1        0.1029
     28 C          -2.9130   -0.1670    0.0000 C.3     1  LIG1        0.0495
     29 C          -1.1080   -1.9710    0.0000 C.ar    1  LIG1        0.0159
     30 C          -0.2380   -1.4790    0.0000 C.ar    1  LIG1        0.0182
     31 O           0.1290    0.8880    0.0000 O.2     1  LIG1       -0.1842
     32 O           1.1210   -0.8380    0.0000 O.2     1  LIG1       -0.1842
@<TRIPOS>BOND
     1     1     2    1
     2     1    16    1
     3     1    31    2
     4     1    32    2
     5     2     3    1
     6     3     4   ar
     7     3    15   ar
     8     4     5    1
     9     4    12   ar
    10     5     6    1
    11     5    10    1
    12     6     7    1
    13     7     8    1
    14     8     9    1
    15     8    11    1
    16     9    10    1
    17    12    13   ar
    18    13    14   ar
    19    14    15   ar
    20    16    17   ar
    21    16    30   ar
    22    17    18   ar
    23    18    19   ar
    24    18    28    1
    25    19    20    1
    26    19    29   ar
    27    20    21   am
    28    20    27    1
    29    21    22    2
    30    21    23    1
    31    23    24    1
    32    23    26    1
    33    24    25    1
    34    25    26    1
    35    27    28    1
    36    29    30   ar
