@<TRIPOS>MOLECULE
37207_ChemDiv_C361-1851
 31 34 0 0 0
SMALL
GASTEIGER
Energy = 0

@<TRIPOS>ATOM
      1 N          -4.4960   -1.5330    0.0000 N.am    1  LIG1       -0.2586
      2 C          -3.5460   -1.2330    0.0000 C.ar    1  LIG1        0.0500
      3 C          -3.5460   -0.2330    0.0000 C.ar    1  LIG1       -0.0055
      4 C          -2.6790    0.2710    0.0000 C.ar    1  LIG1        0.0154
      5 C          -1.8130   -0.2330    0.0000 C.ar    1  LIG1        0.1054
      6 S          -0.9460    0.2710    0.0000 S.O2    1  LIG1        0.0091
      7 C          -0.0750    0.7710    0.0000 C.3     1  LIG1        0.1655
      8 C          -0.0750    1.7710    0.0000 C.3     1  LIG1        0.1110
      9 C           0.7920    2.2710    0.0000 C.2     1  LIG1        0.2277
     10 N           1.6580    1.7710    0.0000 N.am    1  LIG1       -0.2751
     11 C           1.6580    0.7710    0.0000 C.3     1  LIG1        0.1195
     12 C           2.5250    0.2880    0.0000 C.2     1  LIG1       -0.0089
     13 C           3.3920    0.7880    0.0000 C.2     1  LIG1       -0.0231
     14 C           3.3920    1.7710    0.0000 C.3     1  LIG1        0.0476
     15 C           2.5250    2.2710    0.0000 C.3     1  LIG1        0.0984
     16 C           4.2580    0.2880    0.0000 C.ar    1  LIG1       -0.0042
     17 C           4.2580   -0.7170    0.0000 C.ar    1  LIG1       -0.0003
     18 C           5.1250   -1.2170    0.0000 C.ar    1  LIG1       -0.0000
     19 C           5.9920   -0.7170    0.0000 C.ar    1  LIG1       -0.0000
     20 C           5.9920    0.2880    0.0000 C.ar    1  LIG1       -0.0000
     21 C           5.1250    0.7880    0.0000 C.ar    1  LIG1       -0.0003
     22 O           0.7920    3.2710    0.0000 O.2     1  LIG1       -0.2748
     23 O          -1.4460    1.1380    0.0000 O.2     1  LIG1       -0.1686
     24 O          -0.4460   -0.6000    0.0000 O.2     1  LIG1       -0.1686
     25 C          -1.8130   -1.2330    0.0000 C.ar    1  LIG1        0.0196
     26 C          -2.6790   -1.7330    0.0000 C.ar    1  LIG1        0.0159
     27 C          -4.4960    0.0880    0.0000 C.3     1  LIG1        0.0495
     28 C          -5.0790   -0.7330    0.0000 C.3     1  LIG1        0.1029
     29 C          -4.9960   -2.4000    0.0000 C.2     1  LIG1        0.2298
     30 O          -4.4960   -3.2670    0.0000 O.2     1  LIG1       -0.2745
     31 C          -5.9960   -2.4000    0.0000 C.3     1  LIG1        0.0952
@<TRIPOS>BOND
     1     1     2    1
     2     1    28    1
     3     1    29   am
     4     2     3   ar
     5     2    26   ar
     6     3     4   ar
     7     3    27    1
     8     4     5   ar
     9     5     6    1
    10     5    25   ar
    11     6     7    1
    12     6    23    2
    13     6    24    2
    14     7     8    1
    15     8     9    1
    16     9    10   am
    17     9    22    2
    18    10    11    1
    19    10    15    1
    20    11    12    1
    21    12    13    2
    22    13    14    1
    23    13    16    1
    24    14    15    1
    25    16    17   ar
    26    16    21   ar
    27    17    18   ar
    28    18    19   ar
    29    19    20   ar
    30    20    21   ar
    31    25    26   ar
    32    27    28    1
    33    29    30    2
    34    29    31    1
