@<TRIPOS>MOLECULE
37204_ChemDiv_C999-0899
 32 34 0 0 0
SMALL
GASTEIGER
Energy = 0

@<TRIPOS>ATOM
      1 C           3.1170    3.5630    0.0000 C.ar    1  LIG1        0.1598
      2 C           2.1170    3.5630    0.0000 C.ar    1  LIG1        0.0465
      3 C           1.8080    4.5080    0.0000 C.ar    1  LIG1        0.0816
      4 N           2.6170    5.1000    0.0000 N.ar    1  LIG1       -0.1723
      5 N           3.4250    4.5080    0.0000 N.ar    1  LIG1       -0.2323
      6 C           4.3790    4.8210    0.0000 C.3     1  LIG1        0.1554
      7 C           0.8580    4.8210    0.0000 C.3     1  LIG1        0.0540
      8 C           1.6170    2.6960    0.0000 C.ar    1  LIG1       -0.0205
      9 C           2.1170    1.8290    0.0000 C.ar    1  LIG1       -0.0119
     10 C           3.1170    1.8290    0.0000 C.ar    1  LIG1        0.0567
     11 N           3.6170    2.6960    0.0000 N.ar    1  LIG1       -0.2315
     12 C           3.6170    0.9630    0.0000 C.3     1  LIG1        0.0518
     13 C           1.6170    0.9630    0.0000 C.3     1  LIG1        0.0369
     14 C           0.6170    0.9630    0.0000 C.3     1  LIG1        0.0919
     15 C           0.1170    0.1000    0.0000 C.2     1  LIG1        0.2459
     16 N          -0.8830    0.1000    0.0000 N.am    1  LIG1       -0.1790
     17 C          -1.3830   -0.7670    0.0000 C.ar    1  LIG1        0.0798
     18 C          -2.3830   -0.7670    0.0000 C.ar    1  LIG1        0.0909
     19 C          -2.8830    0.1000    0.0000 C.2     1  LIG1        0.3426
     20 O          -2.3830    0.9630    0.0000 O.2     1  LIG1       -0.2448
     21 O          -3.8830    0.1000    0.0000 O.3     1  LIG1       -0.4413
     22 C          -4.3830   -0.7670    0.0000 C.3     1  LIG1        0.2560
     23 C          -2.8830   -1.6330    0.0000 C.ar    1  LIG1        0.0080
     24 C          -2.3830   -2.5040    0.0000 C.ar    1  LIG1        0.0067
     25 C          -1.3830   -2.5040    0.0000 C.ar    1  LIG1        0.0769
     26 C          -0.8830   -3.3670    0.0000 C.2     1  LIG1        0.3414
     27 O           0.1170   -3.3670    0.0000 O.2     1  LIG1       -0.2449
     28 O          -1.3830   -4.2290    0.0000 O.3     1  LIG1       -0.4413
     29 C          -0.8830   -5.1000    0.0000 C.3     1  LIG1        0.2560
     30 C          -0.8830   -1.6330    0.0000 C.ar    1  LIG1        0.0232
     31 O           0.6170   -0.7670    0.0000 O.2     1  LIG1       -0.2730
     32 C           0.6170    2.6960    0.0000 C.3     1  LIG1        0.0309
@<TRIPOS>BOND
     1     1     2   ar
     2     1     5   ar
     3     1    11   ar
     4     2     3   ar
     5     2     8   ar
     6     3     4   ar
     7     3     7    1
     8     4     5   ar
     9     5     6    1
    10     8     9   ar
    11     8    32    1
    12     9    10   ar
    13     9    13    1
    14    10    11   ar
    15    10    12    1
    16    13    14    1
    17    14    15    1
    18    15    16   am
    19    15    31    2
    20    16    17    1
    21    17    18   ar
    22    17    30   ar
    23    18    19    1
    24    18    23   ar
    25    19    20    2
    26    19    21    1
    27    21    22    1
    28    23    24   ar
    29    24    25   ar
    30    25    26    1
    31    25    30   ar
    32    26    27    2
    33    26    28    1
    34    28    29    1
