@<TRIPOS>MOLECULE
37208_ChemDiv_C999-0919
 25 26 0 0 0
SMALL
GASTEIGER
Energy = 0

@<TRIPOS>ATOM
      1 C           3.6170    1.3960    0.0000 C.ar    1  LIG1        0.1598
      2 C           2.6170    1.3960    0.0000 C.ar    1  LIG1        0.0465
      3 C           2.3040    2.3460    0.0000 C.ar    1  LIG1        0.0816
      4 N           3.1170    2.9380    0.0000 N.ar    1  LIG1       -0.1723
      5 N           3.9250    2.3460    0.0000 N.ar    1  LIG1       -0.2323
      6 C           4.8790    2.6580    0.0000 C.3     1  LIG1        0.1554
      7 C           1.3580    2.6580    0.0000 C.3     1  LIG1        0.0540
      8 C           2.1170    0.5290    0.0000 C.ar    1  LIG1       -0.0205
      9 C           2.6170   -0.3380    0.0000 C.ar    1  LIG1       -0.0119
     10 C           3.6170   -0.3380    0.0000 C.ar    1  LIG1        0.0567
     11 N           4.1170    0.5290    0.0000 N.ar    1  LIG1       -0.2315
     12 C           4.1170   -1.2000    0.0000 C.3     1  LIG1        0.0518
     13 C           2.1170   -1.2000    0.0000 C.3     1  LIG1        0.0368
     14 C           1.1170   -1.2000    0.0000 C.3     1  LIG1        0.0915
     15 C           0.6170   -2.0670    0.0000 C.2     1  LIG1        0.2417
     16 O           1.1170   -2.9330    0.0000 O.2     1  LIG1       -0.2733
     17 N          -0.3830   -2.0670    0.0000 N.am    1  LIG1       -0.2053
     18 C          -0.8830   -1.2000    0.0000 C.3     1  LIG1        0.1177
     19 C          -1.8830   -1.2000    0.0000 C.3     1  LIG1        0.0555
     20 C          -2.3880   -0.3380    0.0000 C.3     1  LIG1        0.1439
     21 O          -3.3830   -0.3380    0.0000 O.3     1  LIG1       -0.3562
     22 C          -3.8830    0.5290    0.0000 C.3     1  LIG1        0.1154
     23 C          -4.8830    0.5290    0.0000 C.3     1  LIG1        0.0320
     24 C          -3.3830    1.3960    0.0000 C.3     1  LIG1        0.0320
     25 C           1.1170    0.5290    0.0000 C.3     1  LIG1        0.0309
@<TRIPOS>BOND
     1     1     2   ar
     2     1     5   ar
     3     1    11   ar
     4     2     3   ar
     5     2     8   ar
     6     3     4   ar
     7     3     7    1
     8     4     5   ar
     9     5     6    1
    10     8     9   ar
    11     8    25    1
    12     9    10   ar
    13     9    13    1
    14    10    11   ar
    15    10    12    1
    16    13    14    1
    17    14    15    1
    18    15    16    2
    19    15    17   am
    20    17    18    1
    21    18    19    1
    22    19    20    1
    23    20    21    1
    24    21    22    1
    25    22    23    1
    26    22    24    1
