@<TRIPOS>MOLECULE
37209_ChemDiv_C361-2242
 36 39 0 0 0
SMALL
GASTEIGER
Energy = 0

@<TRIPOS>ATOM
      1 N           2.7630    0.7670    0.0000 N.am    1  LIG1       -0.2268
      2 C           1.8960    0.2630    0.0000 C.2     1  LIG1        0.2517
      3 C           1.0330    0.7670    0.0000 C.3     1  LIG1        0.1801
      4 N           1.0330    1.7750    0.0000 N.am    1  LIG1       -0.2628
      5 C           0.1710    2.2630    0.0000 C.2     1  LIG1        0.2282
      6 C          -0.7130    1.7750    0.0000 C.3     1  LIG1        0.1110
      7 C          -0.7130    0.7670    0.0000 C.3     1  LIG1        0.1655
      8 S          -1.5580    0.2630    0.0000 S.O2    1  LIG1        0.0091
      9 C          -2.4250   -0.2420    0.0000 C.ar    1  LIG1        0.1054
     10 C          -3.3040    0.2630    0.0000 C.ar    1  LIG1        0.0154
     11 C          -4.1710   -0.2420    0.0000 C.ar    1  LIG1       -0.0055
     12 C          -4.1710   -1.2290    0.0000 C.ar    1  LIG1        0.0500
     13 N          -5.1040   -1.5380    0.0000 N.am    1  LIG1       -0.2586
     14 C          -5.6080   -2.4000    0.0000 C.2     1  LIG1        0.2293
     15 O          -5.1040   -3.2670    0.0000 O.2     1  LIG1       -0.2745
     16 C          -6.6130   -2.4000    0.0000 C.3     1  LIG1        0.0856
     17 C          -7.1000   -3.2670    0.0000 C.3     1  LIG1        0.0101
     18 C          -5.7000   -0.7250    0.0000 C.3     1  LIG1        0.1029
     19 C          -5.1040    0.0830    0.0000 C.3     1  LIG1        0.0495
     20 C          -3.3040   -1.7330    0.0000 C.ar    1  LIG1        0.0159
     21 C          -2.4250   -1.2290    0.0000 C.ar    1  LIG1        0.0196
     22 O          -1.0750   -0.6000    0.0000 O.2     1  LIG1       -0.1686
     23 O          -2.0630    1.1250    0.0000 O.2     1  LIG1       -0.1686
     24 O           0.1710    3.2710    0.0000 O.2     1  LIG1       -0.2748
     25 C           1.8960    2.2630    0.0000 C.3     1  LIG1        0.1801
     26 C           2.7630    1.7750    0.0000 C.2     1  LIG1        0.2517
     27 O           3.6420    2.2790    0.0000 O.2     1  LIG1       -0.2726
     28 O           1.8960   -0.7250    0.0000 O.2     1  LIG1       -0.2726
     29 C           3.6420    0.2630    0.0000 C.3     1  LIG1        0.1056
     30 C           4.5080    0.7500    0.0000 C.3     1  LIG1        0.0483
     31 C           5.3710    0.2460    0.0000 C.ar    1  LIG1       -0.0205
     32 C           6.2170    0.7290    0.0000 C.ar    1  LIG1       -0.0042
     33 C           7.1000    0.2460    0.0000 C.ar    1  LIG1       -0.0003
     34 C           7.0790   -0.7630    0.0000 C.ar    1  LIG1       -0.0000
     35 C           6.2170   -1.2670    0.0000 C.ar    1  LIG1       -0.0003
     36 C           5.3540   -0.7630    0.0000 C.ar    1  LIG1       -0.0042
@<TRIPOS>BOND
     1     1     2   am
     2     1    26   am
     3     1    29    1
     4     2     3    1
     5     2    28    2
     6     3     4    1
     7     4     5   am
     8     4    25    1
     9     5     6    1
    10     5    24    2
    11     6     7    1
    12     7     8    1
    13     8     9    1
    14     8    22    2
    15     8    23    2
    16     9    10   ar
    17     9    21   ar
    18    10    11   ar
    19    11    12   ar
    20    11    19    1
    21    12    13    1
    22    12    20   ar
    23    13    14   am
    24    13    18    1
    25    14    15    2
    26    14    16    1
    27    16    17    1
    28    18    19    1
    29    20    21   ar
    30    25    26    1
    31    26    27    2
    32    29    30    1
    33    30    31    1
    34    31    32   ar
    35    31    36   ar
    36    32    33   ar
    37    33    34   ar
    38    34    35   ar
    39    35    36   ar
