@<TRIPOS>MOLECULE
37203_ChemDiv_C361-1035
 34 39 0 0 0
SMALL
GASTEIGER
Energy = 0

@<TRIPOS>ATOM
      1 S          -0.5790    0.7830    0.0000 S.O2    1  LIG1        0.0637
      2 N           0.3000    1.2630    0.0000 N.3     1  LIG1       -0.1433
      3 C           1.1580    0.7830    0.0000 C.3     1  LIG1        0.1585
      4 C           2.0330    1.2630    0.0000 C.3     1  LIG1        0.1586
      5 N           2.0330    2.2790    0.0000 N.4     1  LIG1        0.3830
      6 C           2.8920    2.7750    0.0000 C.3     1  LIG1        0.1664
      7 C           3.7670    2.2630    0.0000 C.ar    1  LIG1        0.0376
      8 C           4.6250    2.7580    0.0000 C.ar    1  LIG1        0.0416
      9 C           5.4880    2.2630    0.0000 C.ar    1  LIG1        0.1763
     10 C           5.4880    1.2630    0.0000 C.ar    1  LIG1        0.1764
     11 O           6.4460    0.9710    0.0000 O.3     1  LIG1       -0.4346
     12 C           7.0330    1.7460    0.0000 C.3     1  LIG1        0.4294
     13 O           6.4460    2.5710    0.0000 O.3     1  LIG1       -0.4346
     14 C           4.6250    0.7670    0.0000 C.ar    1  LIG1        0.0401
     15 C           3.7670    1.2630    0.0000 C.ar    1  LIG1        0.0048
     16 C           1.1580    2.7750    0.0000 C.3     1  LIG1        0.1586
     17 C           0.3000    2.2790    0.0000 C.3     1  LIG1        0.1585
     18 C          -1.4380    0.2670    0.0000 C.ar    1  LIG1        0.1220
     19 C          -2.2960    0.7830    0.0000 C.ar    1  LIG1        0.0169
     20 C          -3.1710    0.2670    0.0000 C.ar    1  LIG1       -0.0054
     21 C          -3.1710   -0.7290    0.0000 C.ar    1  LIG1        0.0500
     22 N          -4.1170   -1.0380    0.0000 N.am    1  LIG1       -0.2586
     23 C          -4.6130   -1.8960    0.0000 C.2     1  LIG1        0.2288
     24 O          -4.1170   -2.7710    0.0000 O.2     1  LIG1       -0.2745
     25 C          -5.6080   -1.8960    0.0000 C.3     1  LIG1        0.0770
     26 C          -6.3290   -2.6170    0.0000 C.3     1  LIG1        0.0091
     27 C          -7.0330   -1.8960    0.0000 C.3     1  LIG1        0.0010
     28 C          -6.3290   -1.1920    0.0000 C.3     1  LIG1        0.0091
     29 C          -4.7000   -0.2290    0.0000 C.3     1  LIG1        0.1029
     30 C          -4.1170    0.5790    0.0000 C.3     1  LIG1        0.0495
     31 C          -2.2960   -1.2250    0.0000 C.ar    1  LIG1        0.0160
     32 C          -1.4380   -0.7290    0.0000 C.ar    1  LIG1        0.0212
     33 O          -0.0790   -0.0920    0.0000 O.2     1  LIG1       -0.1528
     34 O          -1.0750    1.6420    0.0000 O.2     1  LIG1       -0.1528
@<TRIPOS>BOND
     1     1     2    1
     2     1    18    1
     3     1    33    2
     4     1    34    2
     5     2     3    1
     6     2    17    1
     7     3     4    1
     8     4     5    1
     9     5     6    1
    10     5    16    1
    11     6     7    1
    12     7     8   ar
    13     7    15   ar
    14     8     9   ar
    15     9    10   ar
    16     9    13    1
    17    10    11    1
    18    10    14   ar
    19    11    12    1
    20    12    13    1
    21    14    15   ar
    22    16    17    1
    23    18    19   ar
    24    18    32   ar
    25    19    20   ar
    26    20    21   ar
    27    20    30    1
    28    21    22    1
    29    21    31   ar
    30    22    23   am
    31    22    29    1
    32    23    24    2
    33    23    25    1
    34    25    26    1
    35    25    28    1
    36    26    27    1
    37    27    28    1
    38    29    30    1
    39    31    32   ar
