@<TRIPOS>MOLECULE
37201_ChemDiv_E699-1429
 30 34 0 0 0
SMALL
GASTEIGER
Energy = 0

@<TRIPOS>ATOM
      1 S           0.5330   -0.0080    0.0000 S.O2    1  LIG1        0.0771
      2 N           1.5170   -0.0080    0.0000 N.3     1  LIG1       -0.0748
      3 C           2.0000    0.8420    0.0000 C.3     1  LIG1        0.1195
      4 C           3.0170    0.8630    0.0000 C.ar    1  LIG1       -0.0086
      5 C           3.5380    1.7540    0.0000 C.ar    1  LIG1       -0.0248
      6 C           3.0630    2.6710    0.0000 C.3     1  LIG1        0.0261
      7 C           2.0000    2.6420    0.0000 C.3     1  LIG1        0.0065
      8 C           1.4790    1.7500    0.0000 C.3     1  LIG1        0.0242
      9 C           4.6000    1.7830    0.0000 C.ar    1  LIG1       -0.0045
     10 C           5.0710    0.8630    0.0000 C.ar    1  LIG1       -0.0003
     11 C           4.5540   -0.0250    0.0000 C.ar    1  LIG1       -0.0003
     12 C           3.5380   -0.0500    0.0000 C.ar    1  LIG1       -0.0032
     13 C          -0.4500   -0.0080    0.0000 C.ar    1  LIG1        0.1233
     14 C          -0.9420    0.8420    0.0000 C.ar    1  LIG1        0.0170
     15 C          -1.9250    0.8420    0.0000 C.ar    1  LIG1       -0.0055
     16 C          -2.4130   -0.0080    0.0000 C.ar    1  LIG1        0.0499
     17 N          -3.3750    0.1920    0.0000 N.am    1  LIG1       -0.2603
     18 C          -4.2250   -0.2960    0.0000 C.2     1  LIG1        0.2288
     19 O          -5.0750    0.1960    0.0000 O.2     1  LIG1       -0.2745
     20 C          -4.2250   -1.2750    0.0000 C.3     1  LIG1        0.0770
     21 C          -3.5290   -1.9710    0.0000 C.3     1  LIG1        0.0091
     22 C          -4.2250   -2.6670    0.0000 C.3     1  LIG1        0.0010
     23 C          -4.9210   -1.9710    0.0000 C.3     1  LIG1        0.0091
     24 C          -3.4790    1.1750    0.0000 C.3     1  LIG1        0.0842
     25 C          -2.5790    1.5710    0.0000 C.3     1  LIG1        0.0478
     26 C          -4.3290    1.6580    0.0000 C.3     1  LIG1        0.0222
     27 C          -1.9250   -0.8580    0.0000 C.ar    1  LIG1        0.0160
     28 C          -0.9420   -0.8580    0.0000 C.ar    1  LIG1        0.0212
     29 O           0.5330    0.9750    0.0000 O.2     1  LIG1       -0.1516
     30 O           0.5330   -0.9880    0.0000 O.2     1  LIG1       -0.1516
@<TRIPOS>BOND
     1     1     2    1
     2     1    13    1
     3     1    29    2
     4     1    30    2
     5     2     3    1
     6     3     4    1
     7     3     8    1
     8     4     5   ar
     9     4    12   ar
    10     5     6    1
    11     5     9   ar
    12     6     7    1
    13     7     8    1
    14     9    10   ar
    15    10    11   ar
    16    11    12   ar
    17    13    14   ar
    18    13    28   ar
    19    14    15   ar
    20    15    16   ar
    21    15    25    1
    22    16    17    1
    23    16    27   ar
    24    17    18   am
    25    17    24    1
    26    18    19    2
    27    18    20    1
    28    20    21    1
    29    20    23    1
    30    21    22    1
    31    22    23    1
    32    24    25    1
    33    24    26    1
    34    27    28   ar
