@<TRIPOS>MOLECULE
37216_ChemDiv_C430-0652
 32 35 0 0 0
SMALL
GASTEIGER
Energy = 0

@<TRIPOS>ATOM
      1 C           1.6080    0.3000    0.0000 C.ar    1  LIG1        0.1601
      2 C           1.3000    1.2630    0.0000 C.ar    1  LIG1        0.0510
      3 C           0.3040    1.2630    0.0000 C.ar    1  LIG1        0.1064
      4 N          -0.0080    0.3080    0.0000 N.ar    1  LIG1       -0.1679
      5 N           0.8040   -0.2750    0.0000 N.ar    1  LIG1       -0.2336
      6 C           0.7920   -1.2750    0.0000 C.3     1  LIG1        0.1387
      7 C          -0.0710   -1.7750    0.0000 C.3     1  LIG1        0.1132
      8 C          -0.0710   -2.7710    0.0000 C.2     1  LIG1        0.2438
      9 N          -0.9330   -3.2750    0.0000 N.am    1  LIG1       -0.1971
     10 C          -1.8000   -2.7750    0.0000 C.3     1  LIG1        0.1791
     11 C          -2.6630   -3.2750    0.0000 C.ar    1  LIG1        0.1449
     12 O          -3.5790   -2.8790    0.0000 O.2     1  LIG1       -0.4529
     13 C          -4.2460   -3.6210    0.0000 C.ar    1  LIG1        0.1792
     14 C          -3.7460   -4.4830    0.0000 C.ar    1  LIG1        0.0435
     15 C          -2.7670   -4.2750    0.0000 C.ar    1  LIG1        0.0380
     16 O           0.7920   -3.2750    0.0000 O.2     1  LIG1       -0.2733
     17 C          -0.2880    2.0670    0.0000 C.ar    1  LIG1        0.0536
     18 C          -1.2790    1.9580    0.0000 C.ar    1  LIG1        0.1432
     19 C          -1.8710    2.7670    0.0000 C.ar    1  LIG1        0.0738
     20 C          -1.4630    3.6830    0.0000 C.ar    1  LIG1        0.1418
     21 C          -0.4630    3.7920    0.0000 C.ar    1  LIG1        0.0372
     22 C           0.1210    2.9790    0.0000 C.ar    1  LIG1        0.0077
     23 O          -2.0540    4.4830    0.0000 O.3     1  LIG1       -0.4713
     24 C          -3.0420    4.3750    0.0000 C.3     1  LIG1        0.2525
     25 O          -1.6790    1.0500    0.0000 O.3     1  LIG1       -0.4713
     26 C          -2.6710    0.9460    0.0000 C.3     1  LIG1        0.2525
     27 C           1.9710    2.0080    0.0000 C.ar    1  LIG1       -0.0162
     28 C           2.9540    1.7920    0.0000 C.ar    1  LIG1        0.0106
     29 C           3.2580    0.8380    0.0000 C.ar    1  LIG1        0.0607
     30 N           2.5880    0.0880    0.0000 N.ar    1  LIG1       -0.2312
     31 C           4.2420    0.6290    0.0000 C.3     1  LIG1        0.0521
     32 C           1.6670    2.9580    0.0000 C.3     1  LIG1        0.0312
@<TRIPOS>BOND
     1     1     2   ar
     2     1     5   ar
     3     1    30   ar
     4     2     3   ar
     5     2    27   ar
     6     3     4   ar
     7     3    17    1
     8     4     5   ar
     9     5     6    1
    10     6     7    1
    11     7     8    1
    12     8     9   am
    13     8    16    2
    14     9    10    1
    15    10    11    1
    16    11    12   ar
    17    11    15   ar
    18    12    13   ar
    19    13    14   ar
    20    14    15   ar
    21    17    18   ar
    22    17    22   ar
    23    18    19   ar
    24    18    25    1
    25    19    20   ar
    26    20    21   ar
    27    20    23    1
    28    21    22   ar
    29    23    24    1
    30    25    26    1
    31    27    28   ar
    32    27    32    1
    33    28    29   ar
    34    29    30   ar
    35    29    31    1
