@<TRIPOS>MOLECULE
37210_ChemDiv_C999-0960
 33 36 0 0 0
SMALL
GASTEIGER
Energy = 0

@<TRIPOS>ATOM
      1 C           4.6170    3.5580    0.0000 C.ar    1  LIG1        0.1598
      2 C           3.6170    3.5580    0.0000 C.ar    1  LIG1        0.0465
      3 C           3.3040    4.5080    0.0000 C.ar    1  LIG1        0.0816
      4 N           4.1170    5.0960    0.0000 N.ar    1  LIG1       -0.1723
      5 N           4.9250    4.5080    0.0000 N.ar    1  LIG1       -0.2323
      6 C           5.8790    4.8170    0.0000 C.3     1  LIG1        0.1554
      7 C           2.3580    4.8170    0.0000 C.3     1  LIG1        0.0540
      8 C           3.1170    2.6960    0.0000 C.ar    1  LIG1       -0.0205
      9 C           3.6170    1.8290    0.0000 C.ar    1  LIG1       -0.0119
     10 C           4.6170    1.8290    0.0000 C.ar    1  LIG1        0.0567
     11 N           5.1170    2.6960    0.0000 N.ar    1  LIG1       -0.2315
     12 C           5.1170    0.9630    0.0000 C.3     1  LIG1        0.0518
     13 C           3.1170    0.9630    0.0000 C.3     1  LIG1        0.0368
     14 C           2.1170    0.9630    0.0000 C.3     1  LIG1        0.0915
     15 C           1.6170    0.1000    0.0000 C.2     1  LIG1        0.2419
     16 O           2.1170   -0.7670    0.0000 O.2     1  LIG1       -0.2733
     17 N           0.6170    0.1000    0.0000 N.am    1  LIG1       -0.1990
     18 C           0.1210   -0.7670    0.0000 C.3     1  LIG1        0.1775
     19 C          -0.8830   -0.7670    0.0000 C.3     1  LIG1        0.1624
     20 N          -1.3830   -1.6330    0.0000 N.4     1  LIG1        0.3786
     21 C          -2.3830   -1.6330    0.0000 C.3     1  LIG1        0.1386
     22 C          -2.8830   -2.5000    0.0000 C.3     1  LIG1        0.0632
     23 C          -2.3830   -3.3670    0.0000 C.3     1  LIG1        0.0162
     24 C          -2.8830   -4.2290    0.0000 C.3     1  LIG1        0.0268
     25 C          -3.8790   -4.2290    0.0000 C.ar    1  LIG1       -0.0222
     26 C          -4.3790   -5.0960    0.0000 C.ar    1  LIG1       -0.0043
     27 C          -5.3830   -5.0960    0.0000 C.ar    1  LIG1       -0.0003
     28 C          -5.8830   -4.2290    0.0000 C.ar    1  LIG1       -0.0000
     29 C          -5.3830   -3.3670    0.0000 C.ar    1  LIG1       -0.0003
     30 C          -4.3790   -3.3670    0.0000 C.ar    1  LIG1       -0.0043
     31 C          -1.3830   -3.3670    0.0000 C.3     1  LIG1        0.0632
     32 C          -0.8830   -2.5000    0.0000 C.3     1  LIG1        0.1386
     33 C           2.1170    2.6960    0.0000 C.3     1  LIG1        0.0309
@<TRIPOS>BOND
     1     1     2   ar
     2     1     5   ar
     3     1    11   ar
     4     2     3   ar
     5     2     8   ar
     6     3     4   ar
     7     3     7    1
     8     4     5   ar
     9     5     6    1
    10     8     9   ar
    11     8    33    1
    12     9    10   ar
    13     9    13    1
    14    10    11   ar
    15    10    12    1
    16    13    14    1
    17    14    15    1
    18    15    16    2
    19    15    17   am
    20    17    18    1
    21    18    19    1
    22    19    20    1
    23    20    21    1
    24    20    32    1
    25    21    22    1
    26    22    23    1
    27    23    24    1
    28    23    31    1
    29    24    25    1
    30    25    26   ar
    31    25    30   ar
    32    26    27   ar
    33    27    28   ar
    34    28    29   ar
    35    29    30   ar
    36    31    32    1
