@<TRIPOS>MOLECULE
37215_ChemDiv_C375-0040
 29 32 0 0 0
SMALL
GASTEIGER
Energy = 0

@<TRIPOS>ATOM
      1 S          -0.3210    2.3500    0.0000 S.O2    1  LIG1        0.0647
      2 C          -0.3210    3.3460    0.0000 C.ar    1  LIG1        0.1397
      3 C           0.5420    3.8580    0.0000 C.ar    1  LIG1        0.0998
      4 N           1.4210    3.3460    0.0000 N.ar    1  LIG1       -0.2425
      5 C           2.2880    3.8580    0.0000 C.ar    1  LIG1        0.0989
      6 C           2.2880    4.8500    0.0000 C.ar    1  LIG1        0.0207
      7 C           1.4210    5.3580    0.0000 C.ar    1  LIG1        0.0031
      8 C           0.5420    4.8500    0.0000 C.ar    1  LIG1        0.0190
      9 C          -0.3210    5.3580    0.0000 C.ar    1  LIG1        0.0016
     10 C          -1.1880    4.8500    0.0000 C.ar    1  LIG1        0.0015
     11 C          -1.1880    3.8580    0.0000 C.ar    1  LIG1        0.0215
     12 N          -0.3210    1.3420    0.0000 N.3     1  LIG1       -0.1555
     13 C          -1.1880    0.8460    0.0000 C.3     1  LIG1        0.0963
     14 C          -1.1880   -0.1630    0.0000 C.3     1  LIG1        0.0283
     15 C          -0.3210   -0.6630    0.0000 C.3     1  LIG1        0.0811
     16 C          -0.3210   -1.6710    0.0000 C.2     1  LIG1        0.2409
     17 N          -1.1880   -2.1670    0.0000 N.am    1  LIG1       -0.2072
     18 C          -1.1880   -3.1750    0.0000 C.3     1  LIG1        0.0953
     19 C          -2.0790   -3.6040    0.0000 C.3     1  LIG1        0.0217
     20 C          -2.2920   -4.5750    0.0000 C.3     1  LIG1        0.0018
     21 C          -1.6880   -5.3580    0.0000 C.3     1  LIG1        0.0001
     22 C          -0.7000   -5.3250    0.0000 C.3     1  LIG1        0.0001
     23 C          -0.0830   -4.5630    0.0000 C.3     1  LIG1        0.0018
     24 C          -0.3000   -3.6040    0.0000 C.3     1  LIG1        0.0217
     25 O           0.5420   -2.1670    0.0000 O.2     1  LIG1       -0.2734
     26 C           0.5420   -0.1630    0.0000 C.3     1  LIG1        0.0283
     27 C           0.5420    0.8460    0.0000 C.3     1  LIG1        0.0963
     28 O          -1.3290    2.3500    0.0000 O.2     1  LIG1       -0.1527
     29 O           0.6880    2.3500    0.0000 O.2     1  LIG1       -0.1527
@<TRIPOS>BOND
     1     1     2    1
     2     1    12    1
     3     1    28    2
     4     1    29    2
     5     2     3   ar
     6     2    11   ar
     7     3     4   ar
     8     3     8   ar
     9     4     5   ar
    10     5     6   ar
    11     6     7   ar
    12     7     8   ar
    13     8     9   ar
    14     9    10   ar
    15    10    11   ar
    16    12    13    1
    17    12    27    1
    18    13    14    1
    19    14    15    1
    20    15    16    1
    21    15    26    1
    22    16    17   am
    23    16    25    2
    24    17    18    1
    25    18    19    1
    26    18    24    1
    27    19    20    1
    28    20    21    1
    29    21    22    1
    30    22    23    1
    31    23    24    1
    32    26    27    1
