@<TRIPOS>MOLECULE
37211_ChemDiv_C361-2465
 36 41 0 0 0
SMALL
GASTEIGER
Energy = 0

@<TRIPOS>ATOM
      1 S          -3.3130   -1.4920    0.0000 S.O2    1  LIG1        0.0648
      2 C          -3.3130   -2.5000    0.0000 C.ar    1  LIG1        0.1419
      3 C          -2.4460   -2.9960    0.0000 C.ar    1  LIG1        0.1273
      4 N          -1.4880   -2.6830    0.0000 N.ar    1  LIG1       -0.1888
      5 S          -0.9000   -3.4960    0.0000 S.2     1  LIG1        0.1165
      6 N          -1.4880   -4.3130    0.0000 N.ar    1  LIG1       -0.1901
      7 C          -2.4460   -3.9960    0.0000 C.ar    1  LIG1        0.1102
      8 C          -3.3130   -4.4960    0.0000 C.ar    1  LIG1        0.0214
      9 C          -4.1790   -3.9960    0.0000 C.ar    1  LIG1        0.0030
     10 C          -4.1790   -2.9960    0.0000 C.ar    1  LIG1        0.0216
     11 N          -3.3130   -0.4920    0.0000 N.3     1  LIG1       -0.1555
     12 C          -4.1790    0.0080    0.0000 C.3     1  LIG1        0.0963
     13 C          -4.1790    1.0040    0.0000 C.3     1  LIG1        0.0283
     14 C          -3.3130    1.5130    0.0000 C.3     1  LIG1        0.0796
     15 C          -3.3130    2.5130    0.0000 C.2     1  LIG1        0.2256
     16 N          -2.4460    3.0130    0.0000 N.am    1  LIG1       -0.2681
     17 C          -1.5710    2.5130    0.0000 C.3     1  LIG1        0.1565
     18 C          -0.7040    3.0130    0.0000 C.3     1  LIG1        0.1610
     19 N          -0.7040    4.0170    0.0000 N.4     1  LIG1        0.3834
     20 C           0.1630    4.4960    0.0000 C.3     1  LIG1        0.1664
     21 C           1.0380    4.0040    0.0000 C.ar    1  LIG1        0.0376
     22 C           1.9040    4.4960    0.0000 C.ar    1  LIG1        0.0416
     23 C           2.7670    4.0040    0.0000 C.ar    1  LIG1        0.1763
     24 C           2.7670    3.0130    0.0000 C.ar    1  LIG1        0.1764
     25 O           3.7170    2.7080    0.0000 O.3     1  LIG1       -0.4346
     26 C           4.3080    3.5000    0.0000 C.3     1  LIG1        0.4294
     27 O           3.7170    4.3000    0.0000 O.3     1  LIG1       -0.4346
     28 C           1.9040    2.5040    0.0000 C.ar    1  LIG1        0.0401
     29 C           1.0380    3.0130    0.0000 C.ar    1  LIG1        0.0048
     30 C          -1.5710    4.4960    0.0000 C.3     1  LIG1        0.1610
     31 C          -2.4460    4.0170    0.0000 C.3     1  LIG1        0.1565
     32 O          -4.1790    3.0130    0.0000 O.2     1  LIG1       -0.2749
     33 C          -2.4460    1.0040    0.0000 C.3     1  LIG1        0.0283
     34 C          -2.4460    0.0080    0.0000 C.3     1  LIG1        0.0963
     35 O          -2.3130   -1.4920    0.0000 O.2     1  LIG1       -0.1527
     36 O          -4.3130   -1.4920    0.0000 O.2     1  LIG1       -0.1527
@<TRIPOS>BOND
     1     1     2    1
     2     1    11    1
     3     1    35    2
     4     1    36    2
     5     2     3   ar
     6     2    10   ar
     7     3     4   ar
     8     3     7   ar
     9     4     5   ar
    10     5     6   ar
    11     6     7   ar
    12     7     8   ar
    13     8     9   ar
    14     9    10   ar
    15    11    12    1
    16    11    34    1
    17    12    13    1
    18    13    14    1
    19    14    15    1
    20    14    33    1
    21    15    16   am
    22    15    32    2
    23    16    17    1
    24    16    31    1
    25    17    18    1
    26    18    19    1
    27    19    20    1
    28    19    30    1
    29    20    21    1
    30    21    22   ar
    31    21    29   ar
    32    22    23   ar
    33    23    24   ar
    34    23    27    1
    35    24    25    1
    36    24    28   ar
    37    25    26    1
    38    26    27    1
    39    28    29   ar
    40    30    31    1
    41    33    34    1
