@<TRIPOS>MOLECULE
37213_ChemDiv_C361-2476
 33 37 0 0 0
SMALL
GASTEIGER
Energy = 0

@<TRIPOS>ATOM
      1 S          -2.4580   -1.9920    0.0000 S.O2    1  LIG1        0.0648
      2 C          -2.4580   -2.9920    0.0000 C.ar    1  LIG1        0.1419
      3 C          -1.5920   -3.4960    0.0000 C.ar    1  LIG1        0.1273
      4 N          -0.6460   -3.1880    0.0000 N.ar    1  LIG1       -0.1888
      5 S          -0.0500   -3.9920    0.0000 S.2     1  LIG1        0.1165
      6 N          -0.6460   -4.8080    0.0000 N.ar    1  LIG1       -0.1901
      7 C          -1.5920   -4.4960    0.0000 C.ar    1  LIG1        0.1102
      8 C          -2.4580   -4.9920    0.0000 C.ar    1  LIG1        0.0214
      9 C          -3.3290   -4.4960    0.0000 C.ar    1  LIG1        0.0030
     10 C          -3.3290   -3.4960    0.0000 C.ar    1  LIG1        0.0216
     11 N          -2.4580   -0.9920    0.0000 N.3     1  LIG1       -0.1555
     12 C          -1.5920   -0.4960    0.0000 C.3     1  LIG1        0.0963
     13 C          -1.5920    0.5080    0.0000 C.3     1  LIG1        0.0283
     14 C          -2.4580    1.0130    0.0000 C.3     1  LIG1        0.0796
     15 C          -2.4580    2.0130    0.0000 C.2     1  LIG1        0.2253
     16 N          -1.5920    2.5170    0.0000 N.am    1  LIG1       -0.2760
     17 C          -1.5920    3.5000    0.0000 C.3     1  LIG1        0.1149
     18 C          -0.7330    4.0000    0.0000 C.3     1  LIG1        0.1153
     19 N           0.1330    3.5000    0.0000 N.am    1  LIG1       -0.2701
     20 C           1.0040    4.0000    0.0000 C.2     1  LIG1        0.2839
     21 C           1.8710    3.5000    0.0000 C.ar    1  LIG1        0.1987
     22 O           2.7920    3.9000    0.0000 O.2     1  LIG1       -0.4458
     23 C           3.4580    3.1630    0.0000 C.ar    1  LIG1        0.1798
     24 C           2.9500    2.2960    0.0000 C.ar    1  LIG1        0.0440
     25 C           1.9790    2.5080    0.0000 C.ar    1  LIG1        0.0455
     26 O           1.0040    4.9920    0.0000 O.2     1  LIG1       -0.2666
     27 C           0.1460    2.5170    0.0000 C.3     1  LIG1        0.1153
     28 C          -0.7250    2.0130    0.0000 C.3     1  LIG1        0.1149
     29 O          -3.3290    2.5170    0.0000 O.2     1  LIG1       -0.2749
     30 C          -3.3290    0.5080    0.0000 C.3     1  LIG1        0.0283
     31 C          -3.3290   -0.4960    0.0000 C.3     1  LIG1        0.0963
     32 O          -3.4630   -1.9920    0.0000 O.2     1  LIG1       -0.1527
     33 O          -1.4580   -1.9920    0.0000 O.2     1  LIG1       -0.1527
@<TRIPOS>BOND
     1     1     2    1
     2     1    11    1
     3     1    32    2
     4     1    33    2
     5     2     3   ar
     6     2    10   ar
     7     3     4   ar
     8     3     7   ar
     9     4     5   ar
    10     5     6   ar
    11     6     7   ar
    12     7     8   ar
    13     8     9   ar
    14     9    10   ar
    15    11    12    1
    16    11    31    1
    17    12    13    1
    18    13    14    1
    19    14    15    1
    20    14    30    1
    21    15    16   am
    22    15    29    2
    23    16    17    1
    24    16    28    1
    25    17    18    1
    26    18    19    1
    27    19    20   am
    28    19    27    1
    29    20    21    1
    30    20    26    2
    31    21    22   ar
    32    21    25   ar
    33    22    23   ar
    34    23    24   ar
    35    24    25   ar
    36    27    28    1
    37    30    31    1
