@<TRIPOS>MOLECULE
37217_ChemDiv_C336-0068
 38 43 0 0 0
SMALL
GASTEIGER
Energy = 0

@<TRIPOS>ATOM
      1 N          -1.4710    0.2210    0.0000 N.ar    1  LIG1       -0.1479
      2 C          -2.3380    0.7170    0.0000 C.ar    1  LIG1        0.3753
      3 N          -2.1250    1.6960    0.0000 N.2     1  LIG1        0.0755
      4 C          -1.1380    1.8040    0.0000 C.3     1  LIG1        0.3970
      5 C          -0.7290    0.8960    0.0000 C.2     1  LIG1        0.3288
      6 O           0.2630    0.7130    0.0000 O.2     1  LIG1       -0.2637
      7 C          -0.6380    2.6790    0.0000 C.3     1  LIG1        0.1047
      8 C           0.3580    2.6960    0.0000 C.3     1  LIG1        0.0946
      9 C           0.8580    3.5580    0.0000 C.2     1  LIG1        0.2420
     10 N           1.8540    3.5710    0.0000 N.am    1  LIG1       -0.1972
     11 C           2.3540    4.4250    0.0000 C.3     1  LIG1        0.1791
     12 C           3.3540    4.4250    0.0000 C.ar    1  LIG1        0.1449
     13 O           4.0330    3.6830    0.0000 O.2     1  LIG1       -0.4529
     14 C           4.9250    4.0830    0.0000 C.ar    1  LIG1        0.1792
     15 C           4.8330    5.0790    0.0000 C.ar    1  LIG1        0.0435
     16 C           3.8500    5.2880    0.0000 C.ar    1  LIG1        0.0380
     17 O           0.3580    4.4170    0.0000 O.2     1  LIG1       -0.2733
     18 C          -3.1960    0.2210    0.0000 C.ar    1  LIG1        0.1585
     19 C          -3.1960   -0.7790    0.0000 C.ar    1  LIG1        0.3068
     20 N          -2.3380   -1.2790    0.0000 N.ar    1  LIG1        0.1032
     21 C          -1.4710   -0.7790    0.0000 C.ar    1  LIG1        0.4033
     22 S          -0.6000   -1.2830    0.0000 S.3     1  LIG1       -0.0146
     23 C          -0.6080   -2.2920    0.0000 C.3     1  LIG1        0.0991
     24 C           0.2540   -2.7880    0.0000 C.ar    1  LIG1        0.0253
     25 C           1.1250   -2.2920    0.0000 C.ar    1  LIG1        0.1368
     26 C           1.9920   -2.7880    0.0000 C.ar    1  LIG1        0.0434
     27 C           1.9920   -3.7920    0.0000 C.ar    1  LIG1        0.0308
     28 C           1.1170   -4.2920    0.0000 C.ar    1  LIG1        0.1398
     29 C           0.2540   -3.7920    0.0000 C.ar    1  LIG1        0.0292
     30 F           1.1080   -5.2880    0.0000 F       1  LIG1       -0.2042
     31 C           2.8540   -2.2920    0.0000 C.3     1  LIG1        0.1756
     32 O           2.8540   -1.2830    0.0000 O.3     1  LIG1       -0.3108
     33 C           1.9880   -0.7830    0.0000 C.3     1  LIG1        0.3612
     34 O           1.1250   -1.2830    0.0000 O.3     1  LIG1       -0.4485
     35 C          -4.0580   -1.2790    0.0000 C.ar    1  LIG1        0.0765
     36 C          -4.9290   -0.7790    0.0000 C.ar    1  LIG1        0.0063
     37 C          -4.9290    0.2210    0.0000 C.ar    1  LIG1        0.0007
     38 C          -4.0580    0.7170    0.0000 C.ar    1  LIG1        0.0141
@<TRIPOS>BOND
     1     1     2   ar
     2     1     5   am
     3     1    21   ar
     4     2     3    2
     5     2    18   ar
     6     3     4    1
     7     4     5    1
     8     4     7    1
     9     5     6    2
    10     7     8    1
    11     8     9    1
    12     9    10   am
    13     9    17    2
    14    10    11    1
    15    11    12    1
    16    12    13   ar
    17    12    16   ar
    18    13    14   ar
    19    14    15   ar
    20    15    16   ar
    21    18    19   ar
    22    18    38   ar
    23    19    20   ar
    24    19    35   ar
    25    20    21   ar
    26    21    22    1
    27    22    23    1
    28    23    24    1
    29    24    25   ar
    30    24    29   ar
    31    25    26   ar
    32    25    34    1
    33    26    27   ar
    34    26    31    1
    35    27    28   ar
    36    28    29   ar
    37    28    30    1
    38    31    32    1
    39    32    33    1
    40    33    34    1
    41    35    36   ar
    42    36    37   ar
    43    37    38   ar
