@<TRIPOS>MOLECULE
37214_ChemDiv_C430-0628
 26 28 0 0 0
SMALL
GASTEIGER
Energy = 0

@<TRIPOS>ATOM
      1 C           1.0080   -0.3040    0.0000 C.ar    1  LIG1        0.1601
      2 C           0.6960    0.6580    0.0000 C.ar    1  LIG1        0.0510
      3 C          -0.3000    0.6580    0.0000 C.ar    1  LIG1        0.1064
      4 N          -0.6080   -0.2920    0.0000 N.ar    1  LIG1       -0.1679
      5 N           0.1960   -0.8790    0.0000 N.ar    1  LIG1       -0.2337
      6 C           0.1960   -1.8750    0.0000 C.3     1  LIG1        0.1350
      7 C          -0.6670   -2.3750    0.0000 C.3     1  LIG1        0.0681
      8 C          -0.6710   -3.3750    0.0000 C.2     1  LIG1        0.0524
      9 O           0.1960   -3.8790    0.0000 O.co2   1  LIG1       -0.5491
     10 O          -1.5330   -3.8790    0.0000 O.co2   1  LIG1       -0.5491
     11 C          -0.8920    1.4630    0.0000 C.ar    1  LIG1        0.0536
     12 C          -1.8750    1.3540    0.0000 C.ar    1  LIG1        0.1432
     13 C          -2.4670    2.1630    0.0000 C.ar    1  LIG1        0.0738
     14 C          -2.0580    3.0790    0.0000 C.ar    1  LIG1        0.1418
     15 C          -1.0630    3.1880    0.0000 C.ar    1  LIG1        0.0372
     16 C          -0.4830    2.3750    0.0000 C.ar    1  LIG1        0.0077
     17 O          -2.6460    3.8830    0.0000 O.3     1  LIG1       -0.4713
     18 C          -3.6460    3.7750    0.0000 C.3     1  LIG1        0.2525
     19 O          -2.2830    0.4500    0.0000 O.3     1  LIG1       -0.4713
     20 C          -3.2710    0.3420    0.0000 C.3     1  LIG1        0.2525
     21 C           1.3710    1.4080    0.0000 C.ar    1  LIG1       -0.0162
     22 C           2.3540    1.1920    0.0000 C.ar    1  LIG1        0.0106
     23 C           2.6630    0.2380    0.0000 C.ar    1  LIG1        0.0607
     24 N           1.9830   -0.5170    0.0000 N.ar    1  LIG1       -0.2312
     25 C           3.6420    0.0250    0.0000 C.3     1  LIG1        0.0521
     26 C           1.0580    2.3540    0.0000 C.3     1  LIG1        0.0312
@<TRIPOS>BOND
     1     1     2   ar
     2     1     5   ar
     3     1    24   ar
     4     2     3   ar
     5     2    21   ar
     6     3     4   ar
     7     3    11    1
     8     4     5   ar
     9     5     6    1
    10     6     7    1
    11     7     8    1
    12     8     9   ar
    13     8    10   ar
    14    11    12   ar
    15    11    16   ar
    16    12    13   ar
    17    12    19    1
    18    13    14   ar
    19    14    15   ar
    20    14    17    1
    21    15    16   ar
    22    17    18    1
    23    19    20    1
    24    21    22   ar
    25    21    26    1
    26    22    23   ar
    27    23    24   ar
    28    23    25    1
