@<TRIPOS>MOLECULE
37212_ChemDiv_C430-0608
 12 13 0 0 0
SMALL
GASTEIGER
Energy = 0

@<TRIPOS>ATOM
      1 C           0.0000   -0.4960    0.0000 C.ar    1  LIG1        0.0290
      2 C           0.8630   -0.9960    0.0000 C.ar    1  LIG1        0.1383
      3 N           1.7290   -0.4920    0.0000 N.ar    1  LIG1       -0.2324
      4 C           1.7290    0.5170    0.0000 C.ar    1  LIG1        0.0999
      5 C           0.8580    1.0080    0.0000 C.ar    1  LIG1        0.0212
      6 C           0.0000    0.5000    0.0000 C.ar    1  LIG1        0.0101
      7 C          -0.8670    1.0000    0.0000 C.ar    1  LIG1        0.0347
      8 BR         -0.8790    2.0000    0.0000 Br      1  LIG1       -0.0490
      9 C          -1.7330    0.5000    0.0000 C.ar    1  LIG1        0.0067
     10 C          -1.7330   -0.4960    0.0000 C.ar    1  LIG1        0.0006
     11 C          -0.8670   -0.9960    0.0000 C.ar    1  LIG1        0.0024
     12 CL          0.8630   -1.9960    0.0000 Cl      1  LIG1       -0.0613
@<TRIPOS>BOND
     1     1     2   ar
     2     1     6   ar
     3     1    11   ar
     4     2     3   ar
     5     2    12    1
     6     3     4   ar
     7     4     5   ar
     8     5     6   ar
     9     6     7   ar
    10     7     8    1
    11     7     9   ar
    12     9    10   ar
    13    10    11   ar
