@<TRIPOS>MOLECULE
37225_ChemDiv_C336-0170
 34 38 0 0 0
SMALL
GASTEIGER
Energy = 0

@<TRIPOS>ATOM
      1 N          -2.5080   -0.3250    0.0000 N.ar    1  LIG1       -0.1479
      2 C          -3.3670    0.1790    0.0000 C.ar    1  LIG1        0.3753
      3 N          -3.1420    1.1460    0.0000 N.2     1  LIG1        0.0755
      4 C          -2.1750    1.2420    0.0000 C.3     1  LIG1        0.3970
      5 C          -1.7960    0.3330    0.0000 C.2     1  LIG1        0.3288
      6 O          -0.8290    0.1250    0.0000 O.2     1  LIG1       -0.2637
      7 C          -1.6750    2.1080    0.0000 C.3     1  LIG1        0.1046
      8 C          -0.7000    2.1040    0.0000 C.3     1  LIG1        0.0931
      9 C          -0.1920    2.9460    0.0000 C.2     1  LIG1        0.2260
     10 N           0.8250    2.9290    0.0000 N.am    1  LIG1       -0.2760
     11 C           1.3420    3.8080    0.0000 C.3     1  LIG1        0.1148
     12 C           2.3670    3.8000    0.0000 C.3     1  LIG1        0.1123
     13 N           2.8670    2.9130    0.0000 N.pl3   1  LIG1       -0.3041
     14 C           2.3380    2.0330    0.0000 C.3     1  LIG1        0.1123
     15 C           1.3250    2.0380    0.0000 C.3     1  LIG1        0.1148
     16 C           3.8830    2.8960    0.0000 C.ar    1  LIG1        0.0479
     17 C           4.4000    3.7710    0.0000 C.ar    1  LIG1        0.0145
     18 C           5.4170    3.7540    0.0000 C.ar    1  LIG1        0.0013
     19 C           5.9250    2.8630    0.0000 C.ar    1  LIG1        0.0001
     20 C           5.4000    1.9880    0.0000 C.ar    1  LIG1        0.0013
     21 C           4.3830    2.0000    0.0000 C.ar    1  LIG1        0.0145
     22 O          -0.6750    3.8250    0.0000 O.2     1  LIG1       -0.2749
     23 C          -4.2250   -0.3250    0.0000 C.ar    1  LIG1        0.1585
     24 C          -4.2250   -1.3330    0.0000 C.ar    1  LIG1        0.3068
     25 N          -3.3790   -1.8250    0.0000 N.ar    1  LIG1        0.1032
     26 C          -2.5210   -1.3330    0.0000 C.ar    1  LIG1        0.4040
     27 S          -1.6750   -1.8420    0.0000 S.3     1  LIG1       -0.0029
     28 C          -1.6750   -2.8420    0.0000 C.3     1  LIG1        0.1745
     29 C          -0.8210   -3.3420    0.0000 C.1     1  LIG1        0.0857
     30 N           0.0330   -3.8210    0.0000 N.1     1  LIG1       -0.1949
     31 C          -5.0670   -1.8250    0.0000 C.ar    1  LIG1        0.0765
     32 C          -5.9290   -1.3250    0.0000 C.ar    1  LIG1        0.0063
     33 C          -5.9130   -0.3250    0.0000 C.ar    1  LIG1        0.0007
     34 C          -5.0580    0.1630    0.0000 C.ar    1  LIG1        0.0141
@<TRIPOS>BOND
     1     1     2   ar
     2     1     5   am
     3     1    26   ar
     4     2     3    2
     5     2    23   ar
     6     3     4    1
     7     4     5    1
     8     4     7    1
     9     5     6    2
    10     7     8    1
    11     8     9    1
    12     9    10   am
    13     9    22    2
    14    10    11    1
    15    10    15    1
    16    11    12    1
    17    12    13    1
    18    13    14    1
    19    13    16    1
    20    14    15    1
    21    16    17   ar
    22    16    21   ar
    23    17    18   ar
    24    18    19   ar
    25    19    20   ar
    26    20    21   ar
    27    23    24   ar
    28    23    34   ar
    29    24    25   ar
    30    24    31   ar
    31    25    26   ar
    32    26    27    1
    33    27    28    1
    34    28    29    1
    35    29    30    3
    36    31    32   ar
    37    32    33   ar
    38    33    34   ar
