@<TRIPOS>MOLECULE
37223_ChemDiv_C336-0140
 36 39 0 0 0
SMALL
GASTEIGER
Energy = 0

@<TRIPOS>ATOM
      1 N          -1.2790    0.2790    0.0000 N.ar    1  LIG1       -0.1479
      2 C          -2.1540    0.7920    0.0000 C.ar    1  LIG1        0.3753
      3 N          -1.9290    1.7630    0.0000 N.2     1  LIG1        0.0760
      4 C          -0.9330    1.8580    0.0000 C.3     1  LIG1        0.4056
      5 C          -0.5380    0.9420    0.0000 C.2     1  LIG1        0.3293
      6 O           0.4420    0.7330    0.0000 O.2     1  LIG1       -0.2637
      7 C          -0.4330    2.7290    0.0000 C.3     1  LIG1        0.1815
      8 C           0.5750    2.7130    0.0000 C.2     1  LIG1        0.2491
      9 O           1.0670    1.8420    0.0000 O.2     1  LIG1       -0.2731
     10 N           1.0960    3.5750    0.0000 N.am    1  LIG1       -0.2052
     11 C           2.0880    3.5580    0.0000 C.3     1  LIG1        0.1151
     12 C           2.6000    4.4170    0.0000 C.3     1  LIG1        0.0234
     13 C           3.6000    4.4040    0.0000 C.3     1  LIG1        0.0018
     14 C           4.1040    5.2540    0.0000 C.3     1  LIG1        0.0001
     15 C          -3.0210    0.2790    0.0000 C.ar    1  LIG1        0.1585
     16 C          -3.0210   -0.7330    0.0000 C.ar    1  LIG1        0.3068
     17 N          -2.1580   -1.2330    0.0000 N.ar    1  LIG1        0.1032
     18 C          -1.2920   -0.7330    0.0000 C.ar    1  LIG1        0.4035
     19 S          -0.4170   -1.2500    0.0000 S.3     1  LIG1       -0.0096
     20 C          -0.4170   -2.2460    0.0000 C.3     1  LIG1        0.1566
     21 C           0.4460   -2.7460    0.0000 C.2     1  LIG1        0.2572
     22 N           1.3170   -2.2460    0.0000 N.am    1  LIG1       -0.1784
     23 C           2.1790   -2.7540    0.0000 C.ar    1  LIG1        0.0744
     24 C           2.1670   -3.7500    0.0000 C.ar    1  LIG1        0.0310
     25 C           3.0250   -4.2500    0.0000 C.ar    1  LIG1        0.0928
     26 C           3.8920   -3.7580    0.0000 C.ar    1  LIG1        0.1492
     27 C           3.8920   -2.7580    0.0000 C.ar    1  LIG1        0.0391
     28 C           3.0290   -2.2630    0.0000 C.ar    1  LIG1        0.0198
     29 O           4.7540   -4.2540    0.0000 O.3     1  LIG1       -0.4706
     30 C           4.7500   -5.2540    0.0000 C.3     1  LIG1        0.2525
     31 CL          3.0170   -5.2460    0.0000 Cl      1  LIG1       -0.0790
     32 O           0.4460   -3.7500    0.0000 O.2     1  LIG1       -0.2720
     33 C          -3.8830   -1.2290    0.0000 C.ar    1  LIG1        0.0765
     34 C          -4.7580   -0.7170    0.0000 C.ar    1  LIG1        0.0063
     35 C          -4.7540    0.2790    0.0000 C.ar    1  LIG1        0.0007
     36 C          -3.8790    0.7710    0.0000 C.ar    1  LIG1        0.0141
@<TRIPOS>BOND
     1     1     2   ar
     2     1     5   am
     3     1    18   ar
     4     2     3    2
     5     2    15   ar
     6     3     4    1
     7     4     5    1
     8     4     7    1
     9     5     6    2
    10     7     8    1
    11     8     9    2
    12     8    10   am
    13    10    11    1
    14    11    12    1
    15    12    13    1
    16    13    14    1
    17    15    16   ar
    18    15    36   ar
    19    16    17   ar
    20    16    33   ar
    21    17    18   ar
    22    18    19    1
    23    19    20    1
    24    20    21    1
    25    21    22   am
    26    21    32    2
    27    22    23    1
    28    23    24   ar
    29    23    28   ar
    30    24    25   ar
    31    25    26   ar
    32    25    31    1
    33    26    27   ar
    34    26    29    1
    35    27    28   ar
    36    29    30    1
    37    33    34   ar
    38    34    35   ar
    39    35    36   ar
