@<TRIPOS>MOLECULE
37224_ChemDiv_C466-0050
 26 29 0 0 0
SMALL
GASTEIGER
Energy = 0

@<TRIPOS>ATOM
      1 N           2.2130    0.7880    0.0000 N.am    1  LIG1       -0.2078
      2 C           2.8960    1.5130    0.0000 C.2     1  LIG1        0.2849
      3 C           2.3960    2.3920    0.0000 C.3     1  LIG1        0.1674
      4 N           1.4080    2.1790    0.0000 N.4     1  LIG1        0.3933
      5 C           1.3000    1.1750    0.0000 C.3     1  LIG1        0.1989
      6 C           0.4330    0.6830    0.0000 C.ar    1  LIG1        0.0498
      7 C           0.4330   -0.3250    0.0000 C.ar    1  LIG1        0.0062
      8 C          -0.4330   -0.8290    0.0000 C.ar    1  LIG1        0.0368
      9 C          -1.3080   -0.3250    0.0000 C.ar    1  LIG1        0.1385
     10 C          -1.3080    0.6830    0.0000 C.ar    1  LIG1        0.0368
     11 C          -0.4330    1.1880    0.0000 C.ar    1  LIG1        0.0062
     12 O          -2.1630   -0.8250    0.0000 O.3     1  LIG1       -0.4755
     13 C          -3.0330   -0.3250    0.0000 C.3     1  LIG1        0.2055
     14 C          -3.8880   -0.8290    0.0000 C.3     1  LIG1        0.0512
     15 C           0.9210    3.0580    0.0000 C.3     1  LIG1        0.1417
     16 C           1.6040    3.7960    0.0000 C.3     1  LIG1        0.0693
     17 C           2.5040    3.3830    0.0000 C.3     1  LIG1        0.0727
     18 O           3.8830    1.4040    0.0000 O.2     1  LIG1       -0.2682
     19 C           2.4210   -0.1880    0.0000 C.ar    1  LIG1        0.0595
     20 C           1.6790   -0.8580    0.0000 C.ar    1  LIG1        0.0182
     21 C           1.8710   -1.8290    0.0000 C.ar    1  LIG1        0.0382
     22 C           2.8210   -2.1460    0.0000 C.ar    1  LIG1        0.1388
     23 C           3.5710   -1.4830    0.0000 C.ar    1  LIG1        0.0382
     24 C           3.3540   -0.5080    0.0000 C.ar    1  LIG1        0.0182
     25 O           3.0290   -3.1250    0.0000 O.3     1  LIG1       -0.4714
     26 C           2.2830   -3.7920    0.0000 C.3     1  LIG1        0.2525
@<TRIPOS>BOND
     1     1     2   am
     2     1     5    1
     3     1    19    1
     4     2     3    1
     5     2    18    2
     6     3     4    1
     7     3    17    1
     8     4     5    1
     9     4    15    1
    10     5     6    1
    11     6     7   ar
    12     6    11   ar
    13     7     8   ar
    14     8     9   ar
    15     9    10   ar
    16     9    12    1
    17    10    11   ar
    18    12    13    1
    19    13    14    1
    20    15    16    1
    21    16    17    1
    22    19    20   ar
    23    19    24   ar
    24    20    21   ar
    25    21    22   ar
    26    22    23   ar
    27    22    25    1
    28    23    24   ar
    29    25    26    1
