@<TRIPOS>MOLECULE
37228_ChemDiv_C466-0139
 29 32 0 0 0
SMALL
GASTEIGER
Energy = 0

@<TRIPOS>ATOM
      1 N           1.4750    0.4540    0.0000 N.am    1  LIG1       -0.2077
      2 C           0.5630    0.8460    0.0000 C.3     1  LIG1        0.1991
      3 N           0.6670    1.8500    0.0000 N.4     1  LIG1        0.3933
      4 C           1.6540    2.0580    0.0000 C.3     1  LIG1        0.1674
      5 C           2.1540    1.1790    0.0000 C.2     1  LIG1        0.2849
      6 O           3.1420    1.0710    0.0000 O.2     1  LIG1       -0.2682
      7 C           1.7630    3.0540    0.0000 C.3     1  LIG1        0.0727
      8 C           0.8580    3.4630    0.0000 C.3     1  LIG1        0.0693
      9 C           0.1790    2.7290    0.0000 C.3     1  LIG1        0.1417
     10 C          -0.3080    0.3500    0.0000 C.ar    1  LIG1        0.0558
     11 C          -1.1750    0.8540    0.0000 C.ar    1  LIG1        0.0434
     12 C          -2.0500    0.3630    0.0000 C.ar    1  LIG1        0.1754
     13 C          -2.0500   -0.6580    0.0000 C.ar    1  LIG1        0.2060
     14 C          -1.1750   -1.1630    0.0000 C.ar    1  LIG1        0.1754
     15 C          -0.3080   -0.6580    0.0000 C.ar    1  LIG1        0.0434
     16 O          -1.1750   -2.1500    0.0000 O.3     1  LIG1       -0.4683
     17 C          -2.0460   -2.6500    0.0000 C.3     1  LIG1        0.2526
     18 O          -2.9080   -1.1580    0.0000 O.3     1  LIG1       -0.4654
     19 C          -3.7790   -0.6580    0.0000 C.3     1  LIG1        0.2528
     20 O          -2.9080    0.8460    0.0000 O.3     1  LIG1       -0.4683
     21 C          -3.7710    0.3500    0.0000 C.3     1  LIG1        0.2526
     22 C           1.6790   -0.5210    0.0000 C.ar    1  LIG1        0.0602
     23 C           2.6170   -0.8420    0.0000 C.ar    1  LIG1        0.0273
     24 C           2.8290   -1.8170    0.0000 C.ar    1  LIG1        0.0694
     25 C           2.0790   -2.4790    0.0000 C.ar    1  LIG1        0.0683
     26 C           1.1330   -2.1750    0.0000 C.ar    1  LIG1        0.0135
     27 C           0.9380   -1.1920    0.0000 C.ar    1  LIG1        0.0160
     28 CL          2.2880   -3.4580    0.0000 Cl      1  LIG1       -0.0814
     29 CL          3.7750   -2.1210    0.0000 Cl      1  LIG1       -0.0813
@<TRIPOS>BOND
     1     1     2    1
     2     1     5   am
     3     1    22    1
     4     2     3    1
     5     2    10    1
     6     3     4    1
     7     3     9    1
     8     4     5    1
     9     4     7    1
    10     5     6    2
    11     7     8    1
    12     8     9    1
    13    10    11   ar
    14    10    15   ar
    15    11    12   ar
    16    12    13   ar
    17    12    20    1
    18    13    14   ar
    19    13    18    1
    20    14    15   ar
    21    14    16    1
    22    16    17    1
    23    18    19    1
    24    20    21    1
    25    22    23   ar
    26    22    27   ar
    27    23    24   ar
    28    24    25   ar
    29    24    29    1
    30    25    26   ar
    31    25    28    1
    32    26    27   ar
