@<TRIPOS>MOLECULE
37238_ChemDiv_C999-1307
 30 32 0 0 0
SMALL
GASTEIGER
Energy = 0

@<TRIPOS>ATOM
      1 C           2.2750   -0.4210    0.0000 C.ar    1  LIG1        0.1601
      2 C           2.4830   -1.3960    0.0000 C.ar    1  LIG1        0.0510
      3 C           1.6170   -1.8960    0.0000 C.ar    1  LIG1        0.1064
      4 N           0.8710   -1.2290    0.0000 N.ar    1  LIG1       -0.1679
      5 N           1.2830   -0.3170    0.0000 N.ar    1  LIG1       -0.2336
      6 C           0.7790    0.5540    0.0000 C.3     1  LIG1        0.1387
      7 C           1.2830    1.4170    0.0000 C.3     1  LIG1        0.1131
      8 C           0.7790    2.2880    0.0000 C.2     1  LIG1        0.2434
      9 O           1.2830    3.1500    0.0000 O.2     1  LIG1       -0.2733
     10 N          -0.2170    2.2880    0.0000 N.am    1  LIG1       -0.2053
     11 C          -0.7170    3.1500    0.0000 C.3     1  LIG1        0.1177
     12 C          -1.7210    3.1500    0.0000 C.3     1  LIG1        0.0555
     13 C          -2.2170    4.0130    0.0000 C.3     1  LIG1        0.1440
     14 O          -3.2210    4.0130    0.0000 O.3     1  LIG1       -0.3537
     15 C          -3.7210    4.8790    0.0000 C.3     1  LIG1        0.1422
     16 C          -4.7210    4.8790    0.0000 C.3     1  LIG1        0.0346
     17 C           1.5130   -2.8920    0.0000 C.ar    1  LIG1        0.0534
     18 C           2.3210   -3.4790    0.0000 C.ar    1  LIG1        0.1401
     19 O           3.2330   -3.0710    0.0000 O.3     1  LIG1       -0.4714
     20 C           4.0460   -3.6580    0.0000 C.3     1  LIG1        0.2525
     21 C           2.2170   -4.4750    0.0000 C.ar    1  LIG1        0.0370
     22 C           1.3040   -4.8790    0.0000 C.ar    1  LIG1        0.0031
     23 C           0.4960   -4.2920    0.0000 C.ar    1  LIG1        0.0003
     24 C           0.6000   -3.3000    0.0000 C.ar    1  LIG1        0.0046
     25 C           3.4380   -1.7040    0.0000 C.ar    1  LIG1       -0.0162
     26 C           4.1750   -1.0380    0.0000 C.ar    1  LIG1        0.0106
     27 C           3.9710   -0.0580    0.0000 C.ar    1  LIG1        0.0607
     28 N           3.0170    0.2500    0.0000 N.ar    1  LIG1       -0.2312
     29 C           4.7170    0.6080    0.0000 C.3     1  LIG1        0.0521
     30 C           3.6420   -2.6880    0.0000 C.3     1  LIG1        0.0312
@<TRIPOS>BOND
     1     1     2   ar
     2     1     5   ar
     3     1    28   ar
     4     2     3   ar
     5     2    25   ar
     6     3     4   ar
     7     3    17    1
     8     4     5   ar
     9     5     6    1
    10     6     7    1
    11     7     8    1
    12     8     9    2
    13     8    10   am
    14    10    11    1
    15    11    12    1
    16    12    13    1
    17    13    14    1
    18    14    15    1
    19    15    16    1
    20    17    18   ar
    21    17    24   ar
    22    18    19    1
    23    18    21   ar
    24    19    20    1
    25    21    22   ar
    26    22    23   ar
    27    23    24   ar
    28    25    26   ar
    29    25    30    1
    30    26    27   ar
    31    27    28   ar
    32    27    29    1
