@<TRIPOS>MOLECULE
37237_ChemDiv_C378-0040
 29 32 0 0 0
SMALL
GASTEIGER
Energy = 0

@<TRIPOS>ATOM
      1 C          -0.0130    1.0080    0.0000 C.ar    1  LIG1        0.2033
      2 C           0.8580    1.5130    0.0000 C.ar    1  LIG1        0.0395
      3 C           1.7210    1.0080    0.0000 C.ar    1  LIG1        0.0093
      4 C           1.7210    0.0130    0.0000 C.ar    1  LIG1        0.0761
      5 C           0.8580   -0.4920    0.0000 C.ar    1  LIG1        0.3458
      6 O          -0.0130    0.0130    0.0000 O.2     1  LIG1       -0.4163
      7 O           0.8580   -1.4880    0.0000 O.2     1  LIG1       -0.2445
      8 C           2.5920   -0.4920    0.0000 C.ar    1  LIG1        0.0065
      9 C           3.4630    0.0130    0.0000 C.ar    1  LIG1        0.0002
     10 C           3.4630    1.0080    0.0000 C.ar    1  LIG1        0.0000
     11 C           2.5920    1.5130    0.0000 C.ar    1  LIG1        0.0003
     12 C           0.8580    2.5080    0.0000 C.ar    1  LIG1        0.0031
     13 C          -0.0130    3.0130    0.0000 C.ar    1  LIG1        0.0001
     14 C          -0.0130    4.0040    0.0000 C.ar    1  LIG1        0.0000
     15 C           0.8580    4.5080    0.0000 C.ar    1  LIG1        0.0000
     16 C           1.7210    4.0040    0.0000 C.ar    1  LIG1        0.0000
     17 C           1.7210    3.0130    0.0000 C.ar    1  LIG1        0.0001
     18 C          -0.8710    1.5130    0.0000 C.2     1  LIG1        0.2996
     19 O          -0.8710    2.5080    0.0000 O.2     1  LIG1       -0.2650
     20 N          -1.7420    1.0080    0.0000 N.am    1  LIG1       -0.1987
     21 C          -1.7420    0.0130    0.0000 C.3     1  LIG1        0.1202
     22 C          -2.6040   -0.4920    0.0000 C.3     1  LIG1        0.0498
     23 C          -2.6040   -1.4960    0.0000 C.ar    1  LIG1       -0.0204
     24 C          -1.7420   -2.0000    0.0000 C.ar    1  LIG1       -0.0033
     25 C          -1.7420   -2.9960    0.0000 C.ar    1  LIG1        0.0111
     26 C          -2.6040   -3.4920    0.0000 C.ar    1  LIG1        0.0577
     27 CL         -2.5960   -4.5080    0.0000 Cl      1  LIG1       -0.0822
     28 C          -3.4670   -2.9960    0.0000 C.ar    1  LIG1        0.0111
     29 C          -3.4670   -2.0000    0.0000 C.ar    1  LIG1       -0.0033
@<TRIPOS>BOND
     1     1     2   ar
     2     1     6   ar
     3     1    18    1
     4     2     3   ar
     5     2    12    1
     6     3     4   ar
     7     3    11   ar
     8     4     5   ar
     9     4     8   ar
    10     5     6   ar
    11     5     7    2
    12     8     9   ar
    13     9    10   ar
    14    10    11   ar
    15    12    13   ar
    16    12    17   ar
    17    13    14   ar
    18    14    15   ar
    19    15    16   ar
    20    16    17   ar
    21    18    19    2
    22    18    20   am
    23    20    21    1
    24    21    22    1
    25    22    23    1
    26    23    24   ar
    27    23    29   ar
    28    24    25   ar
    29    25    26   ar
    30    26    27    1
    31    26    28   ar
    32    28    29   ar
