@<TRIPOS>MOLECULE
37239_ChemDiv_C378-0101
 23 25 0 0 0
SMALL
GASTEIGER
Energy = 0

@<TRIPOS>ATOM
      1 C           0.4290   -0.5000    0.0000 C.ar    1  LIG1        0.2033
      2 C           1.3000    0.0000    0.0000 C.ar    1  LIG1        0.0395
      3 C           2.1580   -0.5000    0.0000 C.ar    1  LIG1        0.0093
      4 C           2.1580   -1.4960    0.0000 C.ar    1  LIG1        0.0761
      5 C           1.3000   -2.0000    0.0000 C.ar    1  LIG1        0.3458
      6 O           0.4290   -1.4960    0.0000 O.2     1  LIG1       -0.4163
      7 O           1.3000   -2.9960    0.0000 O.2     1  LIG1       -0.2445
      8 C           3.0290   -2.0000    0.0000 C.ar    1  LIG1        0.0065
      9 C           3.9000   -1.4960    0.0000 C.ar    1  LIG1        0.0002
     10 C           3.9000   -0.5000    0.0000 C.ar    1  LIG1        0.0000
     11 C           3.0290    0.0000    0.0000 C.ar    1  LIG1        0.0003
     12 C           1.3000    1.0000    0.0000 C.ar    1  LIG1        0.0031
     13 C           0.4290    1.5000    0.0000 C.ar    1  LIG1        0.0001
     14 C           0.4290    2.4960    0.0000 C.ar    1  LIG1        0.0000
     15 C           1.3000    3.0000    0.0000 C.ar    1  LIG1        0.0000
     16 C           2.1580    2.4960    0.0000 C.ar    1  LIG1        0.0000
     17 C           2.1580    1.5000    0.0000 C.ar    1  LIG1        0.0001
     18 C          -0.4330    0.0000    0.0000 C.2     1  LIG1        0.2996
     19 O          -0.4330    1.0000    0.0000 O.2     1  LIG1       -0.2650
     20 N          -1.3040   -0.5000    0.0000 N.am    1  LIG1       -0.1991
     21 C          -2.1630    0.0000    0.0000 C.3     1  LIG1        0.1156
     22 C          -3.0330   -0.5000    0.0000 C.3     1  LIG1        0.0234
     23 C          -3.9040   -0.0080    0.0000 C.3     1  LIG1        0.0019
@<TRIPOS>BOND
     1     1     2   ar
     2     1     6   ar
     3     1    18    1
     4     2     3   ar
     5     2    12    1
     6     3     4   ar
     7     3    11   ar
     8     4     5   ar
     9     4     8   ar
    10     5     6   ar
    11     5     7    2
    12     8     9   ar
    13     9    10   ar
    14    10    11   ar
    15    12    13   ar
    16    12    17   ar
    17    13    14   ar
    18    14    15   ar
    19    15    16   ar
    20    16    17   ar
    21    18    19    2
    22    18    20   am
    23    20    21    1
    24    21    22    1
    25    22    23    1
