@<TRIPOS>MOLECULE
37235_ChemDiv_C375-0186
 34 38 0 0 0
SMALL
GASTEIGER
Energy = 0

@<TRIPOS>ATOM
      1 S           1.3130    2.2540    0.0000 S.O2    1  LIG1        0.0647
      2 C           1.3130    3.2580    0.0000 C.ar    1  LIG1        0.1397
      3 C           2.1750    3.7580    0.0000 C.ar    1  LIG1        0.0998
      4 N           3.0380    3.2580    0.0000 N.ar    1  LIG1       -0.2425
      5 C           3.9000    3.7580    0.0000 C.ar    1  LIG1        0.0989
      6 C           3.9000    4.7460    0.0000 C.ar    1  LIG1        0.0207
      7 C           3.0380    5.2500    0.0000 C.ar    1  LIG1        0.0031
      8 C           2.1750    4.7460    0.0000 C.ar    1  LIG1        0.0190
      9 C           1.3130    5.2500    0.0000 C.ar    1  LIG1        0.0016
     10 C           0.4460    4.7460    0.0000 C.ar    1  LIG1        0.0015
     11 C           0.4460    3.7580    0.0000 C.ar    1  LIG1        0.0215
     12 N           1.3130    1.2630    0.0000 N.3     1  LIG1       -0.1555
     13 C           0.4460    0.7630    0.0000 C.3     1  LIG1        0.0963
     14 C           0.4460   -0.2420    0.0000 C.3     1  LIG1        0.0283
     15 C           1.3130   -0.7330    0.0000 C.3     1  LIG1        0.0796
     16 C           1.3130   -1.7380    0.0000 C.2     1  LIG1        0.2253
     17 N           0.4460   -2.2250    0.0000 N.am    1  LIG1       -0.2760
     18 C          -0.4290   -1.7250    0.0000 C.3     1  LIG1        0.1148
     19 C          -1.2920   -2.2250    0.0000 C.3     1  LIG1        0.1124
     20 N          -1.2920   -3.2290    0.0000 N.pl3   1  LIG1       -0.3023
     21 C          -2.1540   -3.7330    0.0000 C.ar    1  LIG1        0.0758
     22 C          -3.0290   -3.2290    0.0000 C.ar    1  LIG1        0.1533
     23 F          -3.0170   -2.2250    0.0000 F       1  LIG1       -0.2029
     24 C          -3.9040   -3.7330    0.0000 C.ar    1  LIG1        0.0309
     25 C          -3.8920   -4.7330    0.0000 C.ar    1  LIG1        0.0024
     26 C          -3.0290   -5.2500    0.0000 C.ar    1  LIG1        0.0014
     27 C          -2.1540   -4.7330    0.0000 C.ar    1  LIG1        0.0168
     28 C          -0.4170   -3.7330    0.0000 C.3     1  LIG1        0.1124
     29 C           0.4460   -3.2290    0.0000 C.3     1  LIG1        0.1148
     30 O           2.1750   -2.2250    0.0000 O.2     1  LIG1       -0.2749
     31 C           2.1750   -0.2420    0.0000 C.3     1  LIG1        0.0283
     32 C           2.1750    0.7630    0.0000 C.3     1  LIG1        0.0963
     33 O           0.3080    2.2540    0.0000 O.2     1  LIG1       -0.1527
     34 O           2.3040    2.2540    0.0000 O.2     1  LIG1       -0.1527
@<TRIPOS>BOND
     1     1     2    1
     2     1    12    1
     3     1    33    2
     4     1    34    2
     5     2     3   ar
     6     2    11   ar
     7     3     4   ar
     8     3     8   ar
     9     4     5   ar
    10     5     6   ar
    11     6     7   ar
    12     7     8   ar
    13     8     9   ar
    14     9    10   ar
    15    10    11   ar
    16    12    13    1
    17    12    32    1
    18    13    14    1
    19    14    15    1
    20    15    16    1
    21    15    31    1
    22    16    17   am
    23    16    30    2
    24    17    18    1
    25    17    29    1
    26    18    19    1
    27    19    20    1
    28    20    21    1
    29    20    28    1
    30    21    22   ar
    31    21    27   ar
    32    22    23    1
    33    22    24   ar
    34    24    25   ar
    35    25    26   ar
    36    26    27   ar
    37    28    29    1
    38    31    32    1
