@<TRIPOS>MOLECULE
37233_ChemDiv_C375-0065
 30 34 0 0 0
SMALL
GASTEIGER
Energy = 0

@<TRIPOS>ATOM
      1 S          -0.0790    2.2000    0.0000 S.O2    1  LIG1        0.0647
      2 C          -0.0790    3.1960    0.0000 C.ar    1  LIG1        0.1397
      3 C           0.7790    3.7040    0.0000 C.ar    1  LIG1        0.0998
      4 N           1.6500    3.1960    0.0000 N.ar    1  LIG1       -0.2425
      5 C           2.5210    3.7040    0.0000 C.ar    1  LIG1        0.0989
      6 C           2.5210    4.7000    0.0000 C.ar    1  LIG1        0.0207
      7 C           1.6500    5.1960    0.0000 C.ar    1  LIG1        0.0031
      8 C           0.7790    4.7000    0.0000 C.ar    1  LIG1        0.0190
      9 C          -0.0790    5.1960    0.0000 C.ar    1  LIG1        0.0016
     10 C          -0.9460    4.7000    0.0000 C.ar    1  LIG1        0.0015
     11 C          -0.9460    3.7040    0.0000 C.ar    1  LIG1        0.0215
     12 N          -0.0790    1.2000    0.0000 N.3     1  LIG1       -0.1555
     13 C          -0.9460    0.7040    0.0000 C.3     1  LIG1        0.0963
     14 C          -0.9460   -0.2920    0.0000 C.3     1  LIG1        0.0283
     15 C          -0.0790   -0.7920    0.0000 C.3     1  LIG1        0.0799
     16 C          -0.0790   -1.7880    0.0000 C.2     1  LIG1        0.2289
     17 N          -0.9460   -2.3000    0.0000 N.am    1  LIG1       -0.2586
     18 C          -1.0500   -3.2830    0.0000 C.ar    1  LIG1        0.0499
     19 C          -2.0380   -3.4920    0.0000 C.ar    1  LIG1       -0.0068
     20 C          -2.5250   -2.6130    0.0000 C.3     1  LIG1        0.0495
     21 C          -1.8630   -1.8830    0.0000 C.3     1  LIG1        0.1029
     22 C          -2.3500   -4.4420    0.0000 C.ar    1  LIG1       -0.0030
     23 C          -1.6880   -5.1960    0.0000 C.ar    1  LIG1       -0.0002
     24 C          -0.7040   -4.9880    0.0000 C.ar    1  LIG1        0.0013
     25 C          -0.3790   -4.0370    0.0000 C.ar    1  LIG1        0.0146
     26 O           0.7790   -2.3000    0.0000 O.2     1  LIG1       -0.2745
     27 C           0.7790   -0.2920    0.0000 C.3     1  LIG1        0.0283
     28 C           0.7790    0.7040    0.0000 C.3     1  LIG1        0.0963
     29 O           0.9210    2.2000    0.0000 O.2     1  LIG1       -0.1527
     30 O          -1.0750    2.2000    0.0000 O.2     1  LIG1       -0.1527
@<TRIPOS>BOND
     1     1     2    1
     2     1    12    1
     3     1    29    2
     4     1    30    2
     5     2     3   ar
     6     2    11   ar
     7     3     4   ar
     8     3     8   ar
     9     4     5   ar
    10     5     6   ar
    11     6     7   ar
    12     7     8   ar
    13     8     9   ar
    14     9    10   ar
    15    10    11   ar
    16    12    13    1
    17    12    28    1
    18    13    14    1
    19    14    15    1
    20    15    16    1
    21    15    27    1
    22    16    17   am
    23    16    26    2
    24    17    18    1
    25    17    21    1
    26    18    19   ar
    27    18    25   ar
    28    19    20    1
    29    19    22   ar
    30    20    21    1
    31    22    23   ar
    32    23    24   ar
    33    24    25   ar
    34    27    28    1
