@<TRIPOS>MOLECULE
37230_ChemDiv_C466-0200
 28 31 0 0 0
SMALL
GASTEIGER
Energy = 0

@<TRIPOS>ATOM
      1 N           0.7750    0.1380    0.0000 N.am    1  LIG1       -0.2048
      2 C          -0.1500    0.5290    0.0000 C.3     1  LIG1        0.1991
      3 N          -0.0420    1.5380    0.0000 N.4     1  LIG1        0.3933
      4 C           0.9460    1.7500    0.0000 C.3     1  LIG1        0.1674
      5 C           1.4420    0.8670    0.0000 C.2     1  LIG1        0.2849
      6 O           2.4380    0.7710    0.0000 O.2     1  LIG1       -0.2682
      7 C           1.0500    2.7420    0.0000 C.3     1  LIG1        0.0727
      8 C           0.1380    3.1540    0.0000 C.3     1  LIG1        0.0693
      9 C          -0.5290    2.4040    0.0000 C.3     1  LIG1        0.1417
     10 C          -1.0170    0.0380    0.0000 C.ar    1  LIG1        0.0528
     11 C          -1.8630    0.5250    0.0000 C.ar    1  LIG1        0.0431
     12 C          -2.7380    0.0330    0.0000 C.ar    1  LIG1        0.1723
     13 C          -2.7380   -0.9580    0.0000 C.ar    1  LIG1        0.1724
     14 C          -1.8880   -1.4710    0.0000 C.ar    1  LIG1        0.0400
     15 C          -1.0170   -0.9710    0.0000 C.ar    1  LIG1        0.0064
     16 O          -3.6130   -1.4630    0.0000 O.3     1  LIG1       -0.4684
     17 C          -3.6170   -2.4670    0.0000 C.3     1  LIG1        0.2526
     18 O          -3.6080    0.5290    0.0000 O.3     1  LIG1       -0.4684
     19 C          -3.6000    1.5380    0.0000 C.3     1  LIG1        0.2526
     20 C           0.9790   -0.8330    0.0000 C.ar    1  LIG1        0.0939
     21 C           0.2330   -1.5080    0.0000 C.ar    1  LIG1        0.0295
     22 C           0.4420   -2.4830    0.0000 C.ar    1  LIG1        0.0591
     23 C           1.3880   -2.7960    0.0000 C.ar    1  LIG1        0.0146
     24 C           2.1290   -2.1250    0.0000 C.ar    1  LIG1        0.0391
     25 C           1.9170   -1.1420    0.0000 C.ar    1  LIG1        0.1525
     26 O           2.6630   -0.4790    0.0000 O.3     1  LIG1       -0.4702
     27 C           3.6130   -0.7830    0.0000 C.3     1  LIG1        0.2525
     28 CL         -0.3000   -3.1500    0.0000 Cl      1  LIG1       -0.0822
@<TRIPOS>BOND
     1     1     2    1
     2     1     5   am
     3     1    20    1
     4     2     3    1
     5     2    10    1
     6     3     4    1
     7     3     9    1
     8     4     5    1
     9     4     7    1
    10     5     6    2
    11     7     8    1
    12     8     9    1
    13    10    11   ar
    14    10    15   ar
    15    11    12   ar
    16    12    13   ar
    17    12    18    1
    18    13    14   ar
    19    13    16    1
    20    14    15   ar
    21    16    17    1
    22    18    19    1
    23    20    21   ar
    24    20    25   ar
    25    21    22   ar
    26    22    23   ar
    27    22    28    1
    28    23    24   ar
    29    24    25   ar
    30    25    26    1
    31    26    27    1
