@<TRIPOS>MOLECULE
37232_ChemDiv_C466-0201
 29 32 0 0 0
SMALL
GASTEIGER
Energy = 0

@<TRIPOS>ATOM
      1 N           1.6380    0.1420    0.0000 N.am    1  LIG1       -0.2048
      2 C           2.3080    0.8710    0.0000 C.2     1  LIG1        0.2849
      3 C           1.8080    1.7540    0.0000 C.3     1  LIG1        0.1674
      4 N           0.8210    1.5380    0.0000 N.4     1  LIG1        0.3933
      5 C           0.7130    0.5330    0.0000 C.3     1  LIG1        0.1990
      6 C          -0.1580    0.0420    0.0000 C.ar    1  LIG1        0.0497
      7 C          -0.1580   -0.9420    0.0000 C.ar    1  LIG1        0.0044
      8 C          -1.0080   -1.4460    0.0000 C.ar    1  LIG1        0.0145
      9 C          -1.8790   -0.9710    0.0000 C.ar    1  LIG1        0.0478
     10 N          -2.7540   -1.4710    0.0000 N.pl3   1  LIG1       -0.3075
     11 C          -2.7460   -2.4790    0.0000 C.3     1  LIG1        0.0908
     12 C          -3.6130   -2.9920    0.0000 C.3     1  LIG1        0.0232
     13 C          -3.6210   -0.9880    0.0000 C.3     1  LIG1        0.0908
     14 C          -4.4830   -1.5040    0.0000 C.3     1  LIG1        0.0232
     15 C          -1.8830    0.0500    0.0000 C.ar    1  LIG1        0.0145
     16 C          -1.0420    0.5500    0.0000 C.ar    1  LIG1        0.0044
     17 C           0.3330    2.4080    0.0000 C.3     1  LIG1        0.1417
     18 C           0.9960    3.1540    0.0000 C.3     1  LIG1        0.0693
     19 C           1.9080    2.7460    0.0000 C.3     1  LIG1        0.0727
     20 O           3.2960    0.7710    0.0000 O.2     1  LIG1       -0.2682
     21 C           1.8380   -0.8330    0.0000 C.ar    1  LIG1        0.0939
     22 C           1.0960   -1.5040    0.0000 C.ar    1  LIG1        0.0295
     23 C           1.3000   -2.4790    0.0000 C.ar    1  LIG1        0.0591
     24 C           2.2500   -2.7960    0.0000 C.ar    1  LIG1        0.0146
     25 C           2.9920   -2.1250    0.0000 C.ar    1  LIG1        0.0391
     26 C           2.7790   -1.1420    0.0000 C.ar    1  LIG1        0.1525
     27 O           3.5250   -0.4790    0.0000 O.3     1  LIG1       -0.4702
     28 C           4.4790   -0.7830    0.0000 C.3     1  LIG1        0.2525
     29 CL          0.5630   -3.1500    0.0000 Cl      1  LIG1       -0.0822
@<TRIPOS>BOND
     1     1     2   am
     2     1     5    1
     3     1    21    1
     4     2     3    1
     5     2    20    2
     6     3     4    1
     7     3    19    1
     8     4     5    1
     9     4    17    1
    10     5     6    1
    11     6     7   ar
    12     6    16   ar
    13     7     8   ar
    14     8     9   ar
    15     9    10    1
    16     9    15   ar
    17    10    11    1
    18    10    13    1
    19    11    12    1
    20    13    14    1
    21    15    16   ar
    22    17    18    1
    23    18    19    1
    24    21    22   ar
    25    21    26   ar
    26    22    23   ar
    27    23    24   ar
    28    23    29    1
    29    24    25   ar
    30    25    26   ar
    31    26    27    1
    32    27    28    1
