@<TRIPOS>MOLECULE
37231_ChemDiv_C336-0189
 40 44 0 0 0
SMALL
GASTEIGER
Energy = 0

@<TRIPOS>ATOM
      1 N          -2.5080   -0.0790    0.0000 N.ar    1  LIG1       -0.1479
      2 C          -3.3790    0.4330    0.0000 C.ar    1  LIG1        0.3753
      3 N          -3.1540    1.3920    0.0000 N.2     1  LIG1        0.0755
      4 C          -2.1830    1.4920    0.0000 C.3     1  LIG1        0.3970
      5 C          -1.7920    0.5830    0.0000 C.2     1  LIG1        0.3288
      6 O          -0.8380    0.3710    0.0000 O.2     1  LIG1       -0.2637
      7 C          -1.6750    2.3540    0.0000 C.3     1  LIG1        0.1046
      8 C          -0.7000    2.3460    0.0000 C.3     1  LIG1        0.0931
      9 C          -0.1920    3.2040    0.0000 C.2     1  LIG1        0.2260
     10 N           0.8290    3.1790    0.0000 N.am    1  LIG1       -0.2760
     11 C           1.3290    2.2960    0.0000 C.3     1  LIG1        0.1148
     12 C           2.3420    2.2790    0.0000 C.3     1  LIG1        0.1123
     13 N           2.8670    3.1580    0.0000 N.pl3   1  LIG1       -0.3041
     14 C           2.3710    4.0500    0.0000 C.3     1  LIG1        0.1123
     15 C           1.3420    4.0500    0.0000 C.3     1  LIG1        0.1148
     16 C           3.8830    3.1420    0.0000 C.ar    1  LIG1        0.0479
     17 C           4.4000    4.0170    0.0000 C.ar    1  LIG1        0.0145
     18 C           5.4170    4.0040    0.0000 C.ar    1  LIG1        0.0013
     19 C           5.9250    3.1130    0.0000 C.ar    1  LIG1        0.0001
     20 C           5.4000    2.2330    0.0000 C.ar    1  LIG1        0.0013
     21 C           4.3880    2.2500    0.0000 C.ar    1  LIG1        0.0145
     22 O          -0.6710    4.0790    0.0000 O.2     1  LIG1       -0.2749
     23 C          -4.2290   -0.0790    0.0000 C.ar    1  LIG1        0.1585
     24 C          -4.2290   -1.0920    0.0000 C.ar    1  LIG1        0.3068
     25 N          -3.3830   -1.5790    0.0000 N.ar    1  LIG1        0.1032
     26 C          -2.5170   -1.0920    0.0000 C.ar    1  LIG1        0.4035
     27 S          -1.6710   -1.5960    0.0000 S.3     1  LIG1       -0.0096
     28 C          -1.6710   -2.5960    0.0000 C.3     1  LIG1        0.1562
     29 C          -0.8210   -3.0920    0.0000 C.2     1  LIG1        0.2530
     30 O          -0.8290   -4.0790    0.0000 O.2     1  LIG1       -0.2724
     31 N           0.0250   -2.5960    0.0000 N.am    1  LIG1       -0.2046
     32 C           0.9000   -3.0920    0.0000 C.3     1  LIG1        0.1178
     33 C           1.7630   -2.5960    0.0000 C.3     1  LIG1        0.0555
     34 C           2.6290   -3.0880    0.0000 C.3     1  LIG1        0.1441
     35 O           3.4920   -2.5880    0.0000 O.3     1  LIG1       -0.3510
     36 C           4.3580   -3.0790    0.0000 C.3     1  LIG1        0.1741
     37 C          -5.0630   -1.5790    0.0000 C.ar    1  LIG1        0.0765
     38 C          -5.9290   -1.0790    0.0000 C.ar    1  LIG1        0.0063
     39 C          -5.9250   -0.0790    0.0000 C.ar    1  LIG1        0.0007
     40 C          -5.0630    0.4080    0.0000 C.ar    1  LIG1        0.0141
@<TRIPOS>BOND
     1     1     2   ar
     2     1     5   am
     3     1    26   ar
     4     2     3    2
     5     2    23   ar
     6     3     4    1
     7     4     5    1
     8     4     7    1
     9     5     6    2
    10     7     8    1
    11     8     9    1
    12     9    10   am
    13     9    22    2
    14    10    11    1
    15    10    15    1
    16    11    12    1
    17    12    13    1
    18    13    14    1
    19    13    16    1
    20    14    15    1
    21    16    17   ar
    22    16    21   ar
    23    17    18   ar
    24    18    19   ar
    25    19    20   ar
    26    20    21   ar
    27    23    24   ar
    28    23    40   ar
    29    24    25   ar
    30    24    37   ar
    31    25    26   ar
    32    26    27    1
    33    27    28    1
    34    28    29    1
    35    29    30    2
    36    29    31   am
    37    31    32    1
    38    32    33    1
    39    33    34    1
    40    34    35    1
    41    35    36    1
    42    37    38   ar
    43    38    39   ar
    44    39    40   ar
