@<TRIPOS>MOLECULE
37242_ChemDiv_C430-1004
 19 20 0 0 0
SMALL
GASTEIGER
Energy = 0

@<TRIPOS>ATOM
      1 C           0.0880   -1.3040    0.0000 C.ar    1  LIG1        0.1292
      2 C          -0.9130   -1.3040    0.0000 C.ar    1  LIG1        0.1288
      3 N          -1.2210   -2.2580    0.0000 N.ar    1  LIG1       -0.0771
      4 O          -0.4130   -2.8420    0.0000 O.2     1  LIG1       -0.3575
      5 C           0.4000   -2.2580    0.0000 C.ar    1  LIG1        0.1610
      6 C           1.3460   -2.5580    0.0000 C.3     1  LIG1        0.0756
      7 C          -1.5000   -0.4830    0.0000 C.ar    1  LIG1        0.0213
      8 C          -2.4880   -0.6000    0.0000 C.ar    1  LIG1        0.0047
      9 C          -3.0750    0.2000    0.0000 C.ar    1  LIG1        0.0370
     10 C          -2.6670    1.1250    0.0000 C.ar    1  LIG1        0.1387
     11 C          -1.6750    1.2250    0.0000 C.ar    1  LIG1        0.0370
     12 C          -1.0920    0.4250    0.0000 C.ar    1  LIG1        0.0047
     13 O          -3.2580    1.9380    0.0000 O.3     1  LIG1       -0.4714
     14 C          -2.8540    2.8460    0.0000 C.3     1  LIG1        0.2525
     15 C           0.6790   -0.4830    0.0000 C.2     1  LIG1        0.3456
     16 O           0.2710    0.4250    0.0000 O.2     1  LIG1       -0.2447
     17 O           1.6750   -0.5920    0.0000 O.3     1  LIG1       -0.4453
     18 C           2.2540    0.2210    0.0000 C.3     1  LIG1        0.2089
     19 C           3.2540    0.1210    0.0000 C.3     1  LIG1        0.0513
@<TRIPOS>BOND
     1     1     2   ar
     2     1     5   ar
     3     1    15    1
     4     2     3   ar
     5     2     7    1
     6     3     4   ar
     7     4     5   ar
     8     5     6    1
     9     7     8   ar
    10     7    12   ar
    11     8     9   ar
    12     9    10   ar
    13    10    11   ar
    14    10    13    1
    15    11    12   ar
    16    13    14    1
    17    15    16    2
    18    15    17    1
    19    17    18    1
    20    18    19    1
