@<TRIPOS>MOLECULE
37245_ChemDiv_C378-0242
 34 37 0 0 0
SMALL
GASTEIGER
Energy = 0

@<TRIPOS>ATOM
      1 C           1.2790    1.7670    0.0000 C.ar    1  LIG1        0.2033
      2 C           2.1500    2.2670    0.0000 C.ar    1  LIG1        0.0395
      3 C           3.0080    1.7670    0.0000 C.ar    1  LIG1        0.0093
      4 C           3.0080    0.7710    0.0000 C.ar    1  LIG1        0.0761
      5 C           2.1500    0.2670    0.0000 C.ar    1  LIG1        0.3458
      6 O           1.2790    0.7710    0.0000 O.2     1  LIG1       -0.4163
      7 O           2.1500   -0.7290    0.0000 O.2     1  LIG1       -0.2445
      8 C           3.8790    0.2670    0.0000 C.ar    1  LIG1        0.0065
      9 C           4.7500    0.7710    0.0000 C.ar    1  LIG1        0.0002
     10 C           4.7500    1.7670    0.0000 C.ar    1  LIG1        0.0000
     11 C           3.8790    2.2670    0.0000 C.ar    1  LIG1        0.0003
     12 C           2.1500    3.2630    0.0000 C.ar    1  LIG1        0.0031
     13 C           1.2790    3.7670    0.0000 C.ar    1  LIG1        0.0001
     14 C           1.2790    4.7580    0.0000 C.ar    1  LIG1        0.0000
     15 C           2.1500    5.2580    0.0000 C.ar    1  LIG1        0.0000
     16 C           3.0080    4.7580    0.0000 C.ar    1  LIG1        0.0000
     17 C           3.0080    3.7670    0.0000 C.ar    1  LIG1        0.0001
     18 C           0.4170    2.2670    0.0000 C.2     1  LIG1        0.2996
     19 O           0.4170    3.2630    0.0000 O.2     1  LIG1       -0.2650
     20 N          -0.4500    1.7670    0.0000 N.am    1  LIG1       -0.1987
     21 C          -0.4500    0.7710    0.0000 C.3     1  LIG1        0.1202
     22 C          -1.3130    0.2580    0.0000 C.3     1  LIG1        0.0499
     23 C          -1.3000   -0.7460    0.0000 C.ar    1  LIG1       -0.0172
     24 C          -2.1630   -1.2500    0.0000 C.ar    1  LIG1        0.0358
     25 C          -2.1540   -2.2540    0.0000 C.ar    1  LIG1        0.1719
     26 C          -1.2750   -2.7460    0.0000 C.ar    1  LIG1        0.1722
     27 C          -0.4130   -2.2330    0.0000 C.ar    1  LIG1        0.0397
     28 C          -0.4330   -1.2290    0.0000 C.ar    1  LIG1       -0.0009
     29 O          -1.2630   -3.7420    0.0000 O.3     1  LIG1       -0.4724
     30 C          -2.1250   -4.2670    0.0000 C.3     1  LIG1        0.2057
     31 C          -2.1130   -5.2580    0.0000 C.3     1  LIG1        0.0512
     32 O          -3.0130   -2.7580    0.0000 O.3     1  LIG1       -0.4724
     33 C          -3.8830   -2.2630    0.0000 C.3     1  LIG1        0.2057
     34 C          -4.7500   -2.7750    0.0000 C.3     1  LIG1        0.0512
@<TRIPOS>BOND
     1     1     2   ar
     2     1     6   ar
     3     1    18    1
     4     2     3   ar
     5     2    12    1
     6     3     4   ar
     7     3    11   ar
     8     4     5   ar
     9     4     8   ar
    10     5     6   ar
    11     5     7    2
    12     8     9   ar
    13     9    10   ar
    14    10    11   ar
    15    12    13   ar
    16    12    17   ar
    17    13    14   ar
    18    14    15   ar
    19    15    16   ar
    20    16    17   ar
    21    18    19    2
    22    18    20   am
    23    20    21    1
    24    21    22    1
    25    22    23    1
    26    23    24   ar
    27    23    28   ar
    28    24    25   ar
    29    25    26   ar
    30    25    32    1
    31    26    27   ar
    32    26    29    1
    33    27    28   ar
    34    29    30    1
    35    30    31    1
    36    32    33    1
    37    33    34    1
