@<TRIPOS>MOLECULE
37241_ChemDiv_C378-0159
 31 34 0 0 0
SMALL
GASTEIGER
Energy = 0

@<TRIPOS>ATOM
      1 C           2.1630   -0.5000    0.0000 C.ar    1  LIG1        0.2033
      2 C           3.0330    0.0000    0.0000 C.ar    1  LIG1        0.0395
      3 C           3.8960   -0.5000    0.0000 C.ar    1  LIG1        0.0093
      4 C           3.8960   -1.4960    0.0000 C.ar    1  LIG1        0.0761
      5 C           3.0330   -2.0000    0.0000 C.ar    1  LIG1        0.3458
      6 O           2.1630   -1.4960    0.0000 O.2     1  LIG1       -0.4163
      7 O           3.0330   -2.9960    0.0000 O.2     1  LIG1       -0.2445
      8 C           4.7670   -2.0000    0.0000 C.ar    1  LIG1        0.0065
      9 C           5.6380   -1.4960    0.0000 C.ar    1  LIG1        0.0002
     10 C           5.6380   -0.5000    0.0000 C.ar    1  LIG1        0.0000
     11 C           4.7670    0.0000    0.0000 C.ar    1  LIG1        0.0003
     12 C           3.0330    1.0000    0.0000 C.ar    1  LIG1        0.0031
     13 C           3.8960    1.5000    0.0000 C.ar    1  LIG1        0.0001
     14 C           3.8960    2.4960    0.0000 C.ar    1  LIG1        0.0000
     15 C           3.0330    3.0000    0.0000 C.ar    1  LIG1        0.0000
     16 C           2.1630    2.4960    0.0000 C.ar    1  LIG1        0.0000
     17 C           2.1630    1.5000    0.0000 C.ar    1  LIG1        0.0001
     18 C           1.3040    0.0000    0.0000 C.2     1  LIG1        0.2996
     19 N           0.4330   -0.5000    0.0000 N.am    1  LIG1       -0.2007
     20 C          -0.4380   -0.0080    0.0000 C.3     1  LIG1        0.0991
     21 C          -1.3000   -0.5210    0.0000 C.3     1  LIG1        0.0433
     22 C          -2.1670   -0.0250    0.0000 C.3     1  LIG1        0.0985
     23 N          -2.1790    0.9710    0.0000 N.am    1  LIG1       -0.2459
     24 C          -3.0500    1.4630    0.0000 C.2     1  LIG1        0.4049
     25 O          -3.0580    2.4580    0.0000 O.2     1  LIG1       -0.2262
     26 O          -3.9080    0.9500    0.0000 O.3     1  LIG1       -0.4345
     27 C          -4.7790    1.4420    0.0000 C.3     1  LIG1        0.2102
     28 C          -5.6420    0.9290    0.0000 C.3     1  LIG1        0.0513
     29 C          -1.3170    1.4830    0.0000 C.3     1  LIG1        0.0985
     30 C          -0.4460    0.9880    0.0000 C.3     1  LIG1        0.0433
     31 O           1.3040    1.0000    0.0000 O.2     1  LIG1       -0.2650
@<TRIPOS>BOND
     1     1     2   ar
     2     1     6   ar
     3     1    18    1
     4     2     3   ar
     5     2    12    1
     6     3     4   ar
     7     3    11   ar
     8     4     5   ar
     9     4     8   ar
    10     5     6   ar
    11     5     7    2
    12     8     9   ar
    13     9    10   ar
    14    10    11   ar
    15    12    13   ar
    16    12    17   ar
    17    13    14   ar
    18    14    15   ar
    19    15    16   ar
    20    16    17   ar
    21    18    19   am
    22    18    31    2
    23    19    20    1
    24    20    21    1
    25    20    30    1
    26    21    22    1
    27    22    23    1
    28    23    24   am
    29    23    29    1
    30    24    25    2
    31    24    26    1
    32    26    27    1
    33    27    28    1
    34    29    30    1
