@<TRIPOS>MOLECULE
37240_ChemDiv_C430-0679
 20 22 0 0 0
SMALL
GASTEIGER
Energy = 0

@<TRIPOS>ATOM
      1 C          -0.7080    1.7500    0.0000 C.ar    1  LIG1        0.2363
      2 N          -0.7040    0.7460    0.0000 N.ar    1  LIG1       -0.2791
      3 C           0.1630    0.2460    0.0000 C.ar    1  LIG1        0.0417
      4 C           1.0290    0.7460    0.0000 C.ar    1  LIG1        0.0039
      5 C           1.0290    1.7500    0.0000 C.ar    1  LIG1        0.0596
      6 N           0.1630    2.2500    0.0000 N.ar    1  LIG1       -0.2158
      7 C           1.8920    2.2540    0.0000 C.3     1  LIG1        0.0519
      8 C           1.9040    0.2460    0.0000 C.3     1  LIG1        0.0346
      9 C           1.9040   -0.7540    0.0000 C.3     1  LIG1        0.0465
     10 C           2.7670   -1.2540    0.0000 C.2     1  LIG1        0.0507
     11 O           3.6330   -0.7540    0.0000 O.co2   1  LIG1       -0.5492
     12 O           2.7670   -2.2500    0.0000 O.co2   1  LIG1       -0.5492
     13 C           0.1630   -0.7540    0.0000 C.3     1  LIG1        0.0502
     14 C          -1.6580    0.4290    0.0000 C.ar    1  LIG1        0.0841
     15 C          -2.2500    1.2330    0.0000 C.ar    1  LIG1        0.1005
     16 N          -1.6580    2.0540    0.0000 N.ar    1  LIG1       -0.2097
     17 C          -3.2380    1.1290    0.0000 C.ar    1  LIG1        0.0207
     18 C          -3.6380    0.2170    0.0000 C.ar    1  LIG1        0.0016
     19 C          -3.0380   -0.5880    0.0000 C.ar    1  LIG1        0.0016
     20 C          -2.0540   -0.4790    0.0000 C.ar    1  LIG1        0.0191
@<TRIPOS>BOND
     1     1     2   ar
     2     1     6   ar
     3     1    16   ar
     4     2     3   ar
     5     2    14   ar
     6     3     4   ar
     7     3    13    1
     8     4     5   ar
     9     4     8    1
    10     5     6   ar
    11     5     7    1
    12     8     9    1
    13     9    10    1
    14    10    11   ar
    15    10    12   ar
    16    14    15   ar
    17    14    20   ar
    18    15    16   ar
    19    15    17   ar
    20    17    18   ar
    21    18    19   ar
    22    19    20   ar
