@<TRIPOS>MOLECULE
37243_ChemDiv_C378-0192
 32 35 0 0 0
SMALL
GASTEIGER
Energy = 0

@<TRIPOS>ATOM
      1 C           0.0790    1.5290    0.0000 C.ar    1  LIG1        0.2033
      2 C           0.9460    2.0290    0.0000 C.ar    1  LIG1        0.0395
      3 C           1.8040    1.5290    0.0000 C.ar    1  LIG1        0.0093
      4 C           1.8040    0.5380    0.0000 C.ar    1  LIG1        0.0761
      5 C           0.9460    0.0380    0.0000 C.ar    1  LIG1        0.3458
      6 O           0.0790    0.5380    0.0000 O.2     1  LIG1       -0.4163
      7 O           0.9460   -0.9580    0.0000 O.2     1  LIG1       -0.2445
      8 C           2.6710    0.0380    0.0000 C.ar    1  LIG1        0.0065
      9 C           3.5380    0.5380    0.0000 C.ar    1  LIG1        0.0002
     10 C           3.5380    1.5290    0.0000 C.ar    1  LIG1        0.0000
     11 C           2.6710    2.0290    0.0000 C.ar    1  LIG1        0.0003
     12 C           0.9460    3.0210    0.0000 C.ar    1  LIG1        0.0031
     13 C           1.8040    3.5250    0.0000 C.ar    1  LIG1        0.0001
     14 C           1.8040    4.5130    0.0000 C.ar    1  LIG1        0.0000
     15 C           0.9460    5.0130    0.0000 C.ar    1  LIG1        0.0000
     16 C           0.0790    4.5130    0.0000 C.ar    1  LIG1        0.0000
     17 C           0.0790    3.5250    0.0000 C.ar    1  LIG1        0.0001
     18 C          -0.7790    2.0290    0.0000 C.2     1  LIG1        0.2996
     19 O          -0.7790    3.0210    0.0000 O.2     1  LIG1       -0.2650
     20 N          -1.6460    1.5290    0.0000 N.am    1  LIG1       -0.1987
     21 C          -1.6460    0.5380    0.0000 C.3     1  LIG1        0.1202
     22 C          -2.5210    0.0380    0.0000 C.3     1  LIG1        0.0498
     23 C          -2.5130   -0.9880    0.0000 C.ar    1  LIG1       -0.0203
     24 C          -3.3790   -1.4880    0.0000 C.ar    1  LIG1       -0.0028
     25 C          -3.3790   -2.4880    0.0000 C.ar    1  LIG1        0.0197
     26 C          -2.5130   -2.9790    0.0000 C.ar    1  LIG1        0.1250
     27 S          -2.5210   -4.0080    0.0000 S.O2    1  LIG1        0.0935
     28 O          -1.5080   -4.0080    0.0000 O.2     1  LIG1       -0.1503
     29 O          -3.5420   -3.9920    0.0000 O.2     1  LIG1       -0.1503
     30 N          -2.5290   -5.0130    0.0000 N.3     1  LIG1        0.0392
     31 C          -1.6460   -2.4790    0.0000 C.ar    1  LIG1        0.0197
     32 C          -1.6460   -1.4880    0.0000 C.ar    1  LIG1       -0.0028
@<TRIPOS>BOND
     1     1     2   ar
     2     1     6   ar
     3     1    18    1
     4     2     3   ar
     5     2    12    1
     6     3     4   ar
     7     3    11   ar
     8     4     5   ar
     9     4     8   ar
    10     5     6   ar
    11     5     7    2
    12     8     9   ar
    13     9    10   ar
    14    10    11   ar
    15    12    13   ar
    16    12    17   ar
    17    13    14   ar
    18    14    15   ar
    19    15    16   ar
    20    16    17   ar
    21    18    19    2
    22    18    20   am
    23    20    21    1
    24    21    22    1
    25    22    23    1
    26    23    24   ar
    27    23    32   ar
    28    24    25   ar
    29    25    26   ar
    30    26    27    1
    31    26    31   ar
    32    27    28    2
    33    27    29    2
    34    27    30    1
    35    31    32   ar
