@<TRIPOS>MOLECULE
37249_ChemDiv_C466-0209
 26 29 0 0 0
SMALL
GASTEIGER
Energy = 0

@<TRIPOS>ATOM
      1 N           1.2080    0.1420    0.0000 N.am    1  LIG1       -0.2048
      2 C           1.8790    0.8670    0.0000 C.2     1  LIG1        0.2849
      3 C           1.3790    1.7500    0.0000 C.3     1  LIG1        0.1674
      4 N           0.3920    1.5380    0.0000 N.4     1  LIG1        0.3933
      5 C           0.2830    0.5330    0.0000 C.3     1  LIG1        0.1990
      6 C          -0.5830    0.0380    0.0000 C.ar    1  LIG1        0.0496
      7 C          -1.4540    0.5330    0.0000 C.ar    1  LIG1        0.0036
      8 C          -2.3130    0.0500    0.0000 C.ar    1  LIG1        0.0061
      9 C          -2.3130   -0.9580    0.0000 C.ar    1  LIG1        0.0252
     10 S          -3.1830   -1.4630    0.0000 S.3     1  LIG1       -0.1127
     11 C          -4.0500   -0.9580    0.0000 C.3     1  LIG1        0.0742
     12 C          -1.4540   -1.4630    0.0000 C.ar    1  LIG1        0.0061
     13 C          -0.5830   -0.9580    0.0000 C.ar    1  LIG1        0.0036
     14 C          -0.0960    2.4080    0.0000 C.3     1  LIG1        0.1417
     15 C           0.5670    3.1540    0.0000 C.3     1  LIG1        0.0693
     16 C           1.4790    2.7420    0.0000 C.3     1  LIG1        0.0727
     17 O           2.8670    0.7710    0.0000 O.2     1  LIG1       -0.2682
     18 C           1.4080   -0.8380    0.0000 C.ar    1  LIG1        0.0939
     19 C           0.6630   -1.5040    0.0000 C.ar    1  LIG1        0.0295
     20 C           0.8750   -2.4830    0.0000 C.ar    1  LIG1        0.0591
     21 C           1.8210   -2.7960    0.0000 C.ar    1  LIG1        0.0146
     22 C           2.5630   -2.1250    0.0000 C.ar    1  LIG1        0.0391
     23 C           2.3500   -1.1420    0.0000 C.ar    1  LIG1        0.1525
     24 O           3.0960   -0.4790    0.0000 O.3     1  LIG1       -0.4702
     25 C           4.0460   -0.7830    0.0000 C.3     1  LIG1        0.2525
     26 CL          0.1290   -3.1500    0.0000 Cl      1  LIG1       -0.0822
@<TRIPOS>BOND
     1     1     2   am
     2     1     5    1
     3     1    18    1
     4     2     3    1
     5     2    17    2
     6     3     4    1
     7     3    16    1
     8     4     5    1
     9     4    14    1
    10     5     6    1
    11     6     7   ar
    12     6    13   ar
    13     7     8   ar
    14     8     9   ar
    15     9    10    1
    16     9    12   ar
    17    10    11    1
    18    12    13   ar
    19    14    15    1
    20    15    16    1
    21    18    19   ar
    22    18    23   ar
    23    19    20   ar
    24    20    21   ar
    25    20    26    1
    26    21    22   ar
    27    22    23   ar
    28    23    24    1
    29    24    25    1
