@<TRIPOS>MOLECULE
37247_ChemDiv_C378-0260
 30 32 0 0 0
SMALL
GASTEIGER
Energy = 0

@<TRIPOS>ATOM
      1 C           1.2920    0.9960    0.0000 C.ar    1  LIG1        0.2033
      2 C           2.1630    1.4960    0.0000 C.ar    1  LIG1        0.0395
      3 C           3.0210    0.9960    0.0000 C.ar    1  LIG1        0.0093
      4 C           3.0210   -0.0040    0.0000 C.ar    1  LIG1        0.0761
      5 C           2.1630   -0.5040    0.0000 C.ar    1  LIG1        0.3458
      6 O           1.2920   -0.0040    0.0000 O.2     1  LIG1       -0.4163
      7 O           2.1630   -1.5040    0.0000 O.2     1  LIG1       -0.2445
      8 C           3.8960   -0.5040    0.0000 C.ar    1  LIG1        0.0065
      9 C           4.7670   -0.0040    0.0000 C.ar    1  LIG1        0.0002
     10 C           4.7670    0.9960    0.0000 C.ar    1  LIG1        0.0000
     11 C           3.8960    1.4960    0.0000 C.ar    1  LIG1        0.0003
     12 C           2.1630    2.4960    0.0000 C.ar    1  LIG1        0.0031
     13 C           1.2920    2.9960    0.0000 C.ar    1  LIG1        0.0001
     14 C           1.2920    3.9960    0.0000 C.ar    1  LIG1        0.0000
     15 C           2.1630    4.4960    0.0000 C.ar    1  LIG1        0.0000
     16 C           3.0210    3.9960    0.0000 C.ar    1  LIG1        0.0000
     17 C           3.0210    2.9960    0.0000 C.ar    1  LIG1        0.0001
     18 C           0.4290    1.4960    0.0000 C.2     1  LIG1        0.2996
     19 O           0.4290    2.4960    0.0000 O.2     1  LIG1       -0.2650
     20 N          -0.4420    0.9960    0.0000 N.am    1  LIG1       -0.1988
     21 C          -0.4420   -0.0040    0.0000 C.3     1  LIG1        0.1217
     22 C          -1.3040   -0.5040    0.0000 C.3     1  LIG1        0.0861
     23 C          -1.3040   -1.5040    0.0000 C.3     1  LIG1        0.1404
     24 N          -2.1750   -1.9960    0.0000 N.4     1  LIG1        0.3773
     25 C          -3.0380   -1.5040    0.0000 C.3     1  LIG1        0.1385
     26 C          -3.9000   -2.0080    0.0000 C.3     1  LIG1        0.0627
     27 C          -4.7710   -1.5040    0.0000 C.3     1  LIG1        0.0063
     28 C          -2.1750   -2.9920    0.0000 C.3     1  LIG1        0.1385
     29 C          -1.3130   -3.4960    0.0000 C.3     1  LIG1        0.0627
     30 C          -1.3130   -4.4960    0.0000 C.3     1  LIG1        0.0063
@<TRIPOS>BOND
     1     1     2   ar
     2     1     6   ar
     3     1    18    1
     4     2     3   ar
     5     2    12    1
     6     3     4   ar
     7     3    11   ar
     8     4     5   ar
     9     4     8   ar
    10     5     6   ar
    11     5     7    2
    12     8     9   ar
    13     9    10   ar
    14    10    11   ar
    15    12    13   ar
    16    12    17   ar
    17    13    14   ar
    18    14    15   ar
    19    15    16   ar
    20    16    17   ar
    21    18    19    2
    22    18    20   am
    23    20    21    1
    24    21    22    1
    25    22    23    1
    26    23    24    1
    27    24    25    1
    28    24    28    1
    29    25    26    1
    30    26    27    1
    31    28    29    1
    32    29    30    1
