@<TRIPOS>MOLECULE
37248_ChemDiv_C430-5095
 28 32 0 0 0
SMALL
GASTEIGER
Energy = 0

@<TRIPOS>ATOM
      1 N          -0.1250    2.0080    0.0000 N.am    1  LIG1       -0.2354
      2 C          -0.7080    2.8170    0.0000 C.2     1  LIG1        0.2539
      3 C          -1.6420    2.5080    0.0000 C.ar    1  LIG1        0.0532
      4 C          -1.6420    1.5250    0.0000 C.ar    1  LIG1        0.0210
      5 C          -0.7080    1.2290    0.0000 C.3     1  LIG1        0.1966
      6 N          -0.4130    0.2880    0.0000 N.pl3   1  LIG1       -0.2145
      7 C          -1.0710   -0.4380    0.0000 C.ar    1  LIG1        0.0707
      8 C          -0.7670   -1.3630    0.0000 C.ar    1  LIG1        0.0562
      9 C          -1.4170   -2.0880    0.0000 C.ar    1  LIG1        0.1737
     10 C          -2.3880   -1.8830    0.0000 C.ar    1  LIG1        0.1725
     11 O          -3.0380   -2.6130    0.0000 O.3     1  LIG1       -0.4684
     12 C          -2.7330   -3.5460    0.0000 C.3     1  LIG1        0.2526
     13 C          -1.7750   -3.7540    0.0000 C.3     1  LIG1        0.2526
     14 O          -1.1080   -3.0210    0.0000 O.3     1  LIG1       -0.4683
     15 C          -2.6830   -0.9540    0.0000 C.ar    1  LIG1        0.0414
     16 C          -2.0250   -0.2250    0.0000 C.ar    1  LIG1        0.0195
     17 C          -2.4920    1.0330    0.0000 C.ar    1  LIG1       -0.0008
     18 C          -3.3500    1.5250    0.0000 C.ar    1  LIG1       -0.0002
     19 C          -3.3500    2.5080    0.0000 C.ar    1  LIG1        0.0001
     20 C          -2.4920    3.0080    0.0000 C.ar    1  LIG1        0.0043
     21 O          -0.4040    3.7580    0.0000 O.2     1  LIG1       -0.2695
     22 C           1.3750    2.0080    0.0000 C.ar    1  LIG1        0.0519
     23 C           1.8710    2.8580    0.0000 C.ar    1  LIG1       -0.0081
     24 C           1.3750    3.7130    0.0000 C.3     1  LIG1        0.0323
     25 C           2.8540    2.8580    0.0000 C.ar    1  LIG1       -0.0030
     26 C           3.3460    2.0000    0.0000 C.ar    1  LIG1       -0.0002
     27 C           2.8460    1.1460    0.0000 C.ar    1  LIG1        0.0013
     28 C           1.8710    1.1540    0.0000 C.ar    1  LIG1        0.0147
@<TRIPOS>BOND
     1     1     2   am
     2     1     5    1
     3     1    22    1
     4     2     3    1
     5     2    21    2
     6     3     4   ar
     7     3    20   ar
     8     4     5    1
     9     4    17   ar
    10     5     6    1
    11     6     7    1
    12     7     8   ar
    13     7    16   ar
    14     8     9   ar
    15     9    10   ar
    16     9    14    1
    17    10    11    1
    18    10    15   ar
    19    11    12    1
    20    12    13    1
    21    13    14    1
    22    15    16   ar
    23    17    18   ar
    24    18    19   ar
    25    19    20   ar
    26    22    23   ar
    27    22    28   ar
    28    23    24    1
    29    23    25   ar
    30    25    26   ar
    31    26    27   ar
    32    27    28   ar
