@<TRIPOS>MOLECULE
37246_ChemDiv_C430-1098
 12 13 0 0 0
SMALL
GASTEIGER
Energy = 0

@<TRIPOS>ATOM
      1 N          -1.0460   -1.3960    0.0000 N.ar    1  LIG1       -0.1479
      2 C          -0.9460   -0.3960    0.0000 C.ar    1  LIG1        0.1044
      3 C          -1.8500    0.0130    0.0000 C.ar    1  LIG1        0.0434
      4 C          -2.5210   -0.7290    0.0000 C.ar    1  LIG1        0.1238
      5 N          -2.0210   -1.6040    0.0000 N.ar    1  LIG1       -0.1464
      6 C          -0.0750    0.1040    0.0000 C.ar    1  LIG1        0.0195
      7 C           0.7880   -0.3960    0.0000 C.ar    1  LIG1        0.0029
      8 C           1.6540    0.1040    0.0000 C.ar    1  LIG1        0.0181
      9 C           1.6540    1.1040    0.0000 C.ar    1  LIG1        0.0891
     10 N           2.5170    1.6080    0.0000 N.pl3   1  LIG1       -0.1281
     11 C           0.7880    1.6040    0.0000 C.ar    1  LIG1        0.0181
     12 C          -0.0750    1.1040    0.0000 C.ar    1  LIG1        0.0029
@<TRIPOS>BOND
     1     1     2   ar
     2     1     5   ar
     3     2     3   ar
     4     2     6    1
     5     3     4   ar
     6     4     5   ar
     7     6     7   ar
     8     6    12   ar
     9     7     8   ar
    10     8     9   ar
    11     9    10    1
    12     9    11   ar
    13    11    12   ar
