@<TRIPOS>MOLECULE
37257_ChemDiv_C466-0421
 28 31 0 0 0
SMALL
GASTEIGER
Energy = 0

@<TRIPOS>ATOM
      1 N           1.7960    0.4420    0.0000 N.am    1  LIG1       -0.2078
      2 C           0.8750    0.8420    0.0000 C.3     1  LIG1        0.1991
      3 N           0.9830    1.8500    0.0000 N.4     1  LIG1        0.3933
      4 C           1.9710    2.0540    0.0000 C.3     1  LIG1        0.1674
      5 C           2.4670    1.1750    0.0000 C.2     1  LIG1        0.2849
      6 O           3.4580    1.0710    0.0000 O.2     1  LIG1       -0.2682
      7 C           2.0710    3.0500    0.0000 C.3     1  LIG1        0.0727
      8 C           1.1670    3.4630    0.0000 C.3     1  LIG1        0.0693
      9 C           0.4960    2.7170    0.0000 C.3     1  LIG1        0.1417
     10 C           0.0080    0.3500    0.0000 C.ar    1  LIG1        0.0558
     11 C          -0.8630    0.8540    0.0000 C.ar    1  LIG1        0.0434
     12 C          -1.7330    0.3580    0.0000 C.ar    1  LIG1        0.1754
     13 C          -1.7330   -0.6630    0.0000 C.ar    1  LIG1        0.2060
     14 C          -0.8630   -1.1630    0.0000 C.ar    1  LIG1        0.1754
     15 C           0.0080   -0.6630    0.0000 C.ar    1  LIG1        0.0434
     16 O          -0.8630   -2.1540    0.0000 O.3     1  LIG1       -0.4683
     17 C          -1.7290   -2.6540    0.0000 C.3     1  LIG1        0.2526
     18 O          -2.5920   -1.1580    0.0000 O.3     1  LIG1       -0.4654
     19 C          -3.4630   -0.6630    0.0000 C.3     1  LIG1        0.2528
     20 O          -2.5920    0.8420    0.0000 O.3     1  LIG1       -0.4683
     21 C          -3.4540    0.3500    0.0000 C.3     1  LIG1        0.2526
     22 C           2.0000   -0.5250    0.0000 C.ar    1  LIG1        0.0594
     23 C           2.9420   -0.8290    0.0000 C.ar    1  LIG1        0.0174
     24 C           3.1460   -1.8130    0.0000 C.ar    1  LIG1        0.0309
     25 C           2.4130   -2.4830    0.0000 C.ar    1  LIG1        0.1402
     26 C           1.4670   -2.1710    0.0000 C.ar    1  LIG1        0.0309
     27 C           1.2580   -1.1960    0.0000 C.ar    1  LIG1        0.0174
     28 F           2.6210   -3.4580    0.0000 F       1  LIG1       -0.2042
@<TRIPOS>BOND
     1     1     2    1
     2     1     5   am
     3     1    22    1
     4     2     3    1
     5     2    10    1
     6     3     4    1
     7     3     9    1
     8     4     5    1
     9     4     7    1
    10     5     6    2
    11     7     8    1
    12     8     9    1
    13    10    11   ar
    14    10    15   ar
    15    11    12   ar
    16    12    13   ar
    17    12    20    1
    18    13    14   ar
    19    13    18    1
    20    14    15   ar
    21    14    16    1
    22    16    17    1
    23    18    19    1
    24    20    21    1
    25    22    23   ar
    26    22    27   ar
    27    23    24   ar
    28    24    25   ar
    29    25    26   ar
    30    25    28    1
    31    26    27   ar
