@<TRIPOS>MOLECULE
37251_ChemDiv_C466-0379
 22 25 0 0 0
SMALL
GASTEIGER
Energy = 0

@<TRIPOS>ATOM
      1 N           0.9330    0.4420    0.0000 N.am    1  LIG1       -0.2078
      2 C           1.6000    1.1750    0.0000 C.2     1  LIG1        0.2849
      3 C           1.1040    2.0580    0.0000 C.3     1  LIG1        0.1674
      4 N           0.1170    1.8500    0.0000 N.4     1  LIG1        0.3933
      5 C           0.0080    0.8420    0.0000 C.3     1  LIG1        0.1989
      6 C          -0.8630    0.3500    0.0000 C.ar    1  LIG1        0.0496
      7 C          -1.7130    0.8580    0.0000 C.ar    1  LIG1        0.0031
      8 C          -2.5880    0.3670    0.0000 C.ar    1  LIG1       -0.0001
      9 C          -2.6000   -0.6330    0.0000 C.ar    1  LIG1       -0.0000
     10 C          -1.7290   -1.1330    0.0000 C.ar    1  LIG1       -0.0001
     11 C          -0.8460   -0.6330    0.0000 C.ar    1  LIG1        0.0031
     12 C          -0.3710    2.7170    0.0000 C.3     1  LIG1        0.1417
     13 C           0.2960    3.4670    0.0000 C.3     1  LIG1        0.0693
     14 C           1.2040    3.0540    0.0000 C.3     1  LIG1        0.0727
     15 O           2.5960    1.0710    0.0000 O.2     1  LIG1       -0.2682
     16 C           1.1330   -0.5250    0.0000 C.ar    1  LIG1        0.0594
     17 C           0.3920   -1.1960    0.0000 C.ar    1  LIG1        0.0174
     18 C           0.6000   -2.1710    0.0000 C.ar    1  LIG1        0.0309
     19 C           1.5460   -2.4830    0.0000 C.ar    1  LIG1        0.1402
     20 C           2.2790   -1.8170    0.0000 C.ar    1  LIG1        0.0309
     21 C           2.0750   -0.8290    0.0000 C.ar    1  LIG1        0.0174
     22 F           1.7540   -3.4630    0.0000 F       1  LIG1       -0.2042
@<TRIPOS>BOND
     1     1     2   am
     2     1     5    1
     3     1    16    1
     4     2     3    1
     5     2    15    2
     6     3     4    1
     7     3    14    1
     8     4     5    1
     9     4    12    1
    10     5     6    1
    11     6     7   ar
    12     6    11   ar
    13     7     8   ar
    14     8     9   ar
    15     9    10   ar
    16    10    11   ar
    17    12    13    1
    18    13    14    1
    19    16    17   ar
    20    16    21   ar
    21    17    18   ar
    22    18    19   ar
    23    19    20   ar
    24    19    22    1
    25    20    21   ar
