@<TRIPOS>MOLECULE
37259_ChemDiv_C466-0445
 24 27 0 0 0
SMALL
GASTEIGER
Energy = 0

@<TRIPOS>ATOM
      1 N           1.7960    0.4460    0.0000 N.am    1  LIG1       -0.2078
      2 C           2.4580    1.1710    0.0000 C.2     1  LIG1        0.2849
      3 C           1.9710    2.0500    0.0000 C.3     1  LIG1        0.1674
      4 N           0.9790    1.8460    0.0000 N.4     1  LIG1        0.3933
      5 C           0.8750    0.8380    0.0000 C.3     1  LIG1        0.1989
      6 C           0.0040    0.3420    0.0000 C.ar    1  LIG1        0.0496
      7 C          -0.8670    0.8380    0.0000 C.ar    1  LIG1        0.0036
      8 C          -1.7210    0.3540    0.0000 C.ar    1  LIG1        0.0061
      9 C          -1.7210   -0.6540    0.0000 C.ar    1  LIG1        0.0252
     10 S          -2.5920   -1.1540    0.0000 S.3     1  LIG1       -0.1127
     11 C          -3.4630   -0.6540    0.0000 C.3     1  LIG1        0.0742
     12 C          -0.8670   -1.1540    0.0000 C.ar    1  LIG1        0.0061
     13 C           0.0040   -0.6540    0.0000 C.ar    1  LIG1        0.0036
     14 C           0.4880    2.7130    0.0000 C.3     1  LIG1        0.1417
     15 C           1.1580    3.4630    0.0000 C.3     1  LIG1        0.0693
     16 C           2.0630    3.0460    0.0000 C.3     1  LIG1        0.0727
     17 O           3.4580    1.0790    0.0000 O.2     1  LIG1       -0.2682
     18 C           2.0000   -0.5290    0.0000 C.ar    1  LIG1        0.0593
     19 C           1.2540   -1.2000    0.0000 C.ar    1  LIG1        0.0160
     20 C           1.4630   -2.1790    0.0000 C.ar    1  LIG1        0.0127
     21 C           2.4130   -2.4790    0.0000 C.ar    1  LIG1        0.0578
     22 C           3.1580   -1.8130    0.0000 C.ar    1  LIG1        0.0127
     23 C           2.9460   -0.8380    0.0000 C.ar    1  LIG1        0.0160
     24 CL          2.6250   -3.4580    0.0000 Cl      1  LIG1       -0.0822
@<TRIPOS>BOND
     1     1     2   am
     2     1     5    1
     3     1    18    1
     4     2     3    1
     5     2    17    2
     6     3     4    1
     7     3    16    1
     8     4     5    1
     9     4    14    1
    10     5     6    1
    11     6     7   ar
    12     6    13   ar
    13     7     8   ar
    14     8     9   ar
    15     9    10    1
    16     9    12   ar
    17    10    11    1
    18    12    13   ar
    19    14    15    1
    20    15    16    1
    21    18    19   ar
    22    18    23   ar
    23    19    20   ar
    24    20    21   ar
    25    21    22   ar
    26    21    24    1
    27    22    23   ar
