@<TRIPOS>MOLECULE
37263_ChemDiv_C466-0453
 24 27 0 0 0
SMALL
GASTEIGER
Energy = 0

@<TRIPOS>ATOM
      1 N           1.7920    0.4460    0.0000 N.am    1  LIG1       -0.2078
      2 C           2.4540    1.1710    0.0000 C.2     1  LIG1        0.2849
      3 C           1.9670    2.0540    0.0000 C.3     1  LIG1        0.1674
      4 N           0.9750    1.8420    0.0000 N.4     1  LIG1        0.3933
      5 C           0.8710    0.8380    0.0000 C.3     1  LIG1        0.1989
      6 C           0.0000    0.3460    0.0000 C.ar    1  LIG1        0.0496
      7 C           0.0000   -0.6540    0.0000 C.ar    1  LIG1        0.0028
      8 C          -0.8710   -1.1540    0.0000 C.ar    1  LIG1       -0.0043
      9 C          -1.7380   -0.6540    0.0000 C.ar    1  LIG1       -0.0222
     10 C          -1.7380    0.3460    0.0000 C.ar    1  LIG1       -0.0043
     11 C          -0.8830    0.8380    0.0000 C.ar    1  LIG1        0.0028
     12 C          -2.5960   -1.1670    0.0000 C.3     1  LIG1        0.0264
     13 C          -3.4580   -0.6670    0.0000 C.3     1  LIG1        0.0050
     14 C           0.4830    2.7130    0.0000 C.3     1  LIG1        0.1417
     15 C           1.1540    3.4580    0.0000 C.3     1  LIG1        0.0693
     16 C           2.0580    3.0500    0.0000 C.3     1  LIG1        0.0727
     17 O           3.4540    1.0790    0.0000 O.2     1  LIG1       -0.2682
     18 C           1.9960   -0.5290    0.0000 C.ar    1  LIG1        0.0593
     19 C           1.2500   -1.2000    0.0000 C.ar    1  LIG1        0.0160
     20 C           1.4580   -2.1790    0.0000 C.ar    1  LIG1        0.0127
     21 C           2.4080   -2.4790    0.0000 C.ar    1  LIG1        0.0578
     22 C           3.1540   -1.8130    0.0000 C.ar    1  LIG1        0.0127
     23 C           2.9420   -0.8380    0.0000 C.ar    1  LIG1        0.0160
     24 CL          2.6210   -3.4540    0.0000 Cl      1  LIG1       -0.0822
@<TRIPOS>BOND
     1     1     2   am
     2     1     5    1
     3     1    18    1
     4     2     3    1
     5     2    17    2
     6     3     4    1
     7     3    16    1
     8     4     5    1
     9     4    14    1
    10     5     6    1
    11     6     7   ar
    12     6    11   ar
    13     7     8   ar
    14     8     9   ar
    15     9    10   ar
    16     9    12    1
    17    10    11   ar
    18    12    13    1
    19    14    15    1
    20    15    16    1
    21    18    19   ar
    22    18    23   ar
    23    19    20   ar
    24    20    21   ar
    25    21    22   ar
    26    21    24    1
    27    22    23   ar
