@<TRIPOS>MOLECULE
37266_ChemDiv_E686-0001
 28 31 0 0 0
SMALL
GASTEIGER
Energy = 0

@<TRIPOS>ATOM
      1 C           2.1210   -1.0540    0.0000 C.2     1  LIG1        0.0694
      2 C           2.9330   -1.6420    0.0000 C.3     1  LIG1        0.1589
      3 O           3.7420   -1.0540    0.0000 O.3     1  LIG1       -0.4486
      4 C           3.4330   -0.1040    0.0000 C.2     1  LIG1        0.3372
      5 C           2.4330   -0.1040    0.0000 C.2     1  LIG1        0.0574
      6 C           1.8460    0.7080    0.0000 C.3     1  LIG1        0.0378
      7 O           4.0210    0.7080    0.0000 O.2     1  LIG1       -0.2453
      8 C           2.0670   -2.1380    0.0000 C.3     1  LIG1        0.0446
      9 C           2.0670   -3.1420    0.0000 C.3     1  LIG1        0.0039
     10 C           2.9330   -3.6380    0.0000 C.3     1  LIG1        0.0003
     11 C           3.8000   -3.1420    0.0000 C.3     1  LIG1        0.0039
     12 C           3.8000   -2.1380    0.0000 C.3     1  LIG1        0.0446
     13 C           1.1710   -1.3630    0.0000 C.2     1  LIG1        0.2483
     14 N           0.3080   -0.8630    0.0000 N.am    1  LIG1       -0.2727
     15 C           0.3080    0.1330    0.0000 C.3     1  LIG1        0.1151
     16 C          -0.5540    0.6330    0.0000 C.3     1  LIG1        0.1123
     17 N          -1.4210    0.1330    0.0000 N.pl3   1  LIG1       -0.3040
     18 C          -2.2880    0.6330    0.0000 C.ar    1  LIG1        0.0510
     19 C          -2.2880    1.6380    0.0000 C.ar    1  LIG1        0.0514
     20 C          -3.1580    2.1380    0.0000 C.ar    1  LIG1        0.1400
     21 O          -3.1580    3.1380    0.0000 O.3     1  LIG1       -0.4714
     22 C          -4.0250    3.6420    0.0000 C.3     1  LIG1        0.2525
     23 C          -4.0250    1.6380    0.0000 C.ar    1  LIG1        0.0370
     24 C          -4.0250    0.6330    0.0000 C.ar    1  LIG1        0.0044
     25 C          -3.1580    0.1330    0.0000 C.ar    1  LIG1        0.0147
     26 C          -1.4210   -0.8630    0.0000 C.3     1  LIG1        0.1123
     27 C          -0.5540   -1.3630    0.0000 C.3     1  LIG1        0.1151
     28 O           0.9630   -2.3380    0.0000 O.2     1  LIG1       -0.2701
@<TRIPOS>BOND
     1     1     2    1
     2     1     5    2
     3     1    13    1
     4     2     3    1
     5     2     8    1
     6     2    12    1
     7     3     4    1
     8     4     5    1
     9     4     7    2
    10     5     6    1
    11     8     9    1
    12     9    10    1
    13    10    11    1
    14    11    12    1
    15    13    14   am
    16    13    28    2
    17    14    15    1
    18    14    27    1
    19    15    16    1
    20    16    17    1
    21    17    18    1
    22    17    26    1
    23    18    19   ar
    24    18    25   ar
    25    19    20   ar
    26    20    21    1
    27    20    23   ar
    28    21    22    1
    29    23    24   ar
    30    24    25   ar
    31    26    27    1
