@<TRIPOS>MOLECULE
37265_ChemDiv_C517-5385
 27 30 0 0 0
SMALL
GASTEIGER
Energy = 0

@<TRIPOS>ATOM
      1 S           0.3960   -0.3920    0.0000 S.O2    1  LIG1        0.0635
      2 N          -0.6040   -0.3920    0.0000 N.3     1  LIG1       -0.1520
      3 C          -1.1080   -1.2630    0.0000 C.3     1  LIG1        0.1173
      4 C          -2.1080   -1.2630    0.0000 C.3     1  LIG1        0.1130
      5 N          -2.6170   -0.3920    0.0000 N.am    1  LIG1       -0.2706
      6 C          -3.6250   -0.3920    0.0000 C.2     1  LIG1        0.2838
      7 C          -4.1210    0.4790    0.0000 C.ar    1  LIG1        0.1987
      8 O          -5.1210    0.6000    0.0000 O.2     1  LIG1       -0.4458
      9 C          -5.3250    1.5790    0.0000 C.ar    1  LIG1        0.1798
     10 C          -4.4540    2.0830    0.0000 C.ar    1  LIG1        0.0440
     11 C          -3.7130    1.4040    0.0000 C.ar    1  LIG1        0.0455
     12 O          -4.1210   -1.2500    0.0000 O.2     1  LIG1       -0.2666
     13 C          -2.1210    0.4790    0.0000 C.3     1  LIG1        0.1130
     14 C          -1.1080    0.4790    0.0000 C.3     1  LIG1        0.1173
     15 C           1.4080   -0.3920    0.0000 C.ar    1  LIG1        0.1253
     16 C           1.9000   -1.2500    0.0000 C.ar    1  LIG1        0.0590
     17 C           2.8920   -1.2500    0.0000 C.ar    1  LIG1        0.1673
     18 O           3.5580   -1.9830    0.0000 O.2     1  LIG1       -0.4067
     19 C           4.4630   -1.5830    0.0000 C.ar    1  LIG1        0.4220
     20 N           4.3630   -0.5960    0.0000 N.ar    1  LIG1       -0.2601
     21 C           3.3830   -0.3790    0.0000 C.ar    1  LIG1        0.1001
     22 C           2.8920    0.4710    0.0000 C.ar    1  LIG1        0.0218
     23 C           1.9000    0.4710    0.0000 C.ar    1  LIG1        0.0216
     24 C           5.0960    0.0830    0.0000 C.3     1  LIG1        0.1369
     25 O           5.3210   -2.0790    0.0000 O.2     1  LIG1       -0.2226
     26 O           0.3830    0.6080    0.0000 O.2     1  LIG1       -0.1528
     27 O           0.3960   -1.4000    0.0000 O.2     1  LIG1       -0.1528
@<TRIPOS>BOND
     1     1     2    1
     2     1    15    1
     3     1    26    2
     4     1    27    2
     5     2     3    1
     6     2    14    1
     7     3     4    1
     8     4     5    1
     9     5     6   am
    10     5    13    1
    11     6     7    1
    12     6    12    2
    13     7     8   ar
    14     7    11   ar
    15     8     9   ar
    16     9    10   ar
    17    10    11   ar
    18    13    14    1
    19    15    16   ar
    20    15    23   ar
    21    16    17   ar
    22    17    18   ar
    23    17    21   ar
    24    18    19   ar
    25    19    20   ar
    26    19    25    2
    27    20    21   ar
    28    20    24    1
    29    21    22   ar
    30    22    23   ar
