@<TRIPOS>MOLECULE
37269_ChemDiv_C562-1394
 35 38 0 0 0
SMALL
GASTEIGER
Energy = 0

@<TRIPOS>ATOM
      1 S           0.4330    1.4330    0.0000 S.O2    1  LIG1        0.0773
      2 N          -0.0670    0.5580    0.0000 N.3     1  LIG1       -0.0695
      3 C           0.4330   -0.3000    0.0000 C.3     1  LIG1        0.1794
      4 C          -0.0580   -1.1540    0.0000 C.2     1  LIG1        0.2595
      5 O           0.4460   -2.0210    0.0000 O.2     1  LIG1       -0.2718
      6 N          -1.0460   -1.1540    0.0000 N.am    1  LIG1       -0.2038
      7 C          -1.5670   -2.0040    0.0000 C.3     1  LIG1        0.1199
      8 C          -2.2750   -2.0420    0.0000 C.3     1  LIG1        0.0498
      9 C          -2.7330   -2.8420    0.0000 C.ar    1  LIG1       -0.0204
     10 C          -2.2040   -3.7380    0.0000 C.ar    1  LIG1       -0.0033
     11 C          -2.7380   -4.6380    0.0000 C.ar    1  LIG1        0.0111
     12 C          -3.7790   -4.6500    0.0000 C.ar    1  LIG1        0.0577
     13 CL         -4.3750   -5.7330    0.0000 Cl      1  LIG1       -0.0822
     14 C          -4.2960   -3.7460    0.0000 C.ar    1  LIG1        0.0111
     15 C          -3.7710   -2.8420    0.0000 C.ar    1  LIG1       -0.0033
     16 C           1.4290   -0.2920    0.0000 C.3     1  LIG1        0.0551
     17 C           1.9290   -1.1500    0.0000 C.ar    1  LIG1       -0.0202
     18 C           2.9170   -1.1330    0.0000 C.ar    1  LIG1       -0.0042
     19 C           3.4170   -1.9920    0.0000 C.ar    1  LIG1       -0.0003
     20 C           2.9250   -2.8540    0.0000 C.ar    1  LIG1       -0.0000
     21 C           1.9290   -2.8630    0.0000 C.ar    1  LIG1       -0.0003
     22 C           1.4380   -2.0040    0.0000 C.ar    1  LIG1       -0.0042
     23 C           0.9330    2.3040    0.0000 C.ar    1  LIG1        0.1267
     24 C           1.9290    2.3130    0.0000 C.ar    1  LIG1        0.0591
     25 C           2.4330    3.1670    0.0000 C.ar    1  LIG1        0.1673
     26 O           3.4080    3.3710    0.0000 O.2     1  LIG1       -0.4067
     27 C           3.5130    4.3630    0.0000 C.ar    1  LIG1        0.4220
     28 N           2.6000    4.7710    0.0000 N.ar    1  LIG1       -0.2601
     29 C           1.9330    4.0250    0.0000 C.ar    1  LIG1        0.1001
     30 C           0.9330    4.0330    0.0000 C.ar    1  LIG1        0.0218
     31 C           0.4330    3.1670    0.0000 C.ar    1  LIG1        0.0216
     32 C           2.4000    5.7330    0.0000 C.3     1  LIG1        0.1369
     33 O           4.3710    4.8540    0.0000 O.2     1  LIG1       -0.2226
     34 O          -0.4380    1.9330    0.0000 O.2     1  LIG1       -0.1516
     35 O           1.3130    0.9380    0.0000 O.2     1  LIG1       -0.1516
@<TRIPOS>BOND
     1     1     2    1
     2     1    23    1
     3     1    34    2
     4     1    35    2
     5     2     3    1
     6     3     4    1
     7     3    16    1
     8     4     5    2
     9     4     6   am
    10     6     7    1
    11     7     8    1
    12     8     9    1
    13     9    10   ar
    14     9    15   ar
    15    10    11   ar
    16    11    12   ar
    17    12    13    1
    18    12    14   ar
    19    14    15   ar
    20    16    17    1
    21    17    18   ar
    22    17    22   ar
    23    18    19   ar
    24    19    20   ar
    25    20    21   ar
    26    21    22   ar
    27    23    24   ar
    28    23    31   ar
    29    24    25   ar
    30    25    26   ar
    31    25    29   ar
    32    26    27   ar
    33    27    28   ar
    34    27    33    2
    35    28    29   ar
    36    28    32    1
    37    29    30   ar
    38    30    31   ar
