@<TRIPOS>MOLECULE
37267_ChemDiv_C562-1178
 34 37 0 0 0
SMALL
GASTEIGER
Energy = 0

@<TRIPOS>ATOM
      1 S           1.1670   -0.4250    0.0000 S.O2    1  LIG1        0.0773
      2 N           0.6580   -1.3080    0.0000 N.3     1  LIG1       -0.0700
      3 C           1.1670   -2.1790    0.0000 C.3     1  LIG1        0.1736
      4 C           0.6750   -3.0500    0.0000 C.2     1  LIG1        0.2436
      5 N          -0.3380   -3.0500    0.0000 N.am    1  LIG1       -0.2739
      6 C          -0.8750   -2.2330    0.0000 C.3     1  LIG1        0.1196
      7 C          -1.8000   -2.2080    0.0000 C.2     1  LIG1       -0.0089
      8 C          -2.3000   -3.0790    0.0000 C.2     1  LIG1       -0.0231
      9 C          -1.8330   -3.9080    0.0000 C.3     1  LIG1        0.0476
     10 C          -0.8380   -3.9210    0.0000 C.3     1  LIG1        0.0984
     11 C          -3.2000   -3.0710    0.0000 C.ar    1  LIG1       -0.0042
     12 C          -3.6880   -2.1710    0.0000 C.ar    1  LIG1       -0.0003
     13 C          -4.6710   -2.2210    0.0000 C.ar    1  LIG1       -0.0000
     14 C          -5.1710   -3.0920    0.0000 C.ar    1  LIG1       -0.0000
     15 C          -4.7000   -3.9290    0.0000 C.ar    1  LIG1       -0.0000
     16 C          -3.7080   -3.9420    0.0000 C.ar    1  LIG1       -0.0003
     17 O           1.1750   -3.9210    0.0000 O.2     1  LIG1       -0.2733
     18 C           2.1790   -2.1710    0.0000 C.3     1  LIG1        0.0287
     19 C           2.6880   -3.0380    0.0000 C.3     1  LIG1        0.0019
     20 C           2.1880   -3.9130    0.0000 C.3     1  LIG1        0.0001
     21 C           3.6920   -3.0290    0.0000 C.3     1  LIG1        0.0001
     22 C           1.6790    0.4630    0.0000 C.ar    1  LIG1        0.1267
     23 C           2.6880    0.4710    0.0000 C.ar    1  LIG1        0.0591
     24 C           3.1960    1.3420    0.0000 C.ar    1  LIG1        0.1673
     25 O           4.1880    1.5500    0.0000 O.2     1  LIG1       -0.4067
     26 C           4.2920    2.5540    0.0000 C.ar    1  LIG1        0.4220
     27 N           3.3710    2.9710    0.0000 N.ar    1  LIG1       -0.2601
     28 C           2.6960    2.2170    0.0000 C.ar    1  LIG1        0.1001
     29 C           1.6790    2.2170    0.0000 C.ar    1  LIG1        0.0218
     30 C           1.1670    1.3420    0.0000 C.ar    1  LIG1        0.0216
     31 C           3.1630    3.9460    0.0000 C.3     1  LIG1        0.1369
     32 O           5.1670    3.0540    0.0000 O.2     1  LIG1       -0.2226
     33 O           2.0580   -0.9330    0.0000 O.2     1  LIG1       -0.1516
     34 O           0.2830    0.0880    0.0000 O.2     1  LIG1       -0.1516
@<TRIPOS>BOND
     1     1     2    1
     2     1    22    1
     3     1    33    2
     4     1    34    2
     5     2     3    1
     6     3     4    1
     7     3    18    1
     8     4     5   am
     9     4    17    2
    10     5     6    1
    11     5    10    1
    12     6     7    1
    13     7     8    2
    14     8     9    1
    15     8    11    1
    16     9    10    1
    17    11    12   ar
    18    11    16   ar
    19    12    13   ar
    20    13    14   ar
    21    14    15   ar
    22    15    16   ar
    23    18    19    1
    24    19    20    1
    25    19    21    1
    26    22    23   ar
    27    22    30   ar
    28    23    24   ar
    29    24    25   ar
    30    24    28   ar
    31    25    26   ar
    32    26    27   ar
    33    26    32    2
    34    27    28   ar
    35    27    31    1
    36    28    29   ar
    37    29    30   ar
