@<TRIPOS>MOLECULE
37276_ChemDiv_C533-1334
 26 28 0 0 0
SMALL
GASTEIGER
Energy = 0

@<TRIPOS>ATOM
      1 C           1.2130   -1.7290    0.0000 C.2     1  LIG1        0.0713
      2 C           0.5130   -1.0290    0.0000 C.2     1  LIG1        0.2699
      3 N           0.7670   -0.0750    0.0000 N.am    1  LIG1       -0.1507
      4 C           0.0540    0.6330    0.0000 C.ar    1  LIG1        0.1858
      5 N           0.1040    1.6380    0.0000 N.ar    1  LIG1       -0.2263
      6 C          -0.8380    2.0000    0.0000 C.ar    1  LIG1        0.0787
      7 C          -1.1130    2.9630    0.0000 C.3     1  LIG1        0.1557
      8 C          -2.0880    3.2170    0.0000 C.2     1  LIG1        0.3231
      9 O          -2.3630    4.1750    0.0000 O.2     1  LIG1       -0.2497
     10 O          -2.7880    2.5040    0.0000 O.3     1  LIG1       -0.4482
     11 C          -2.5210    1.5460    0.0000 C.3     1  LIG1        0.2086
     12 C          -3.2210    0.8330    0.0000 C.3     1  LIG1        0.0513
     13 C          -1.4460    1.2170    0.0000 C.ar    1  LIG1        0.0534
     14 S          -0.8960    0.3750    0.0000 S.2     1  LIG1       -0.0495
     15 O          -0.4580   -1.2960    0.0000 O.2     1  LIG1       -0.2682
     16 C           2.2000   -1.5670    0.0000 C.3     1  LIG1        0.1590
     17 O           2.6540   -2.4630    0.0000 O.3     1  LIG1       -0.4486
     18 C           1.9380   -3.1710    0.0000 C.2     1  LIG1        0.3372
     19 C           1.0630   -2.7040    0.0000 C.2     1  LIG1        0.0574
     20 C           0.1580   -3.1710    0.0000 C.3     1  LIG1        0.0378
     21 O           2.0630   -4.1750    0.0000 O.2     1  LIG1       -0.2453
     22 C           1.3920   -0.9750    0.0000 C.3     1  LIG1        0.0446
     23 C           1.4960    0.0170    0.0000 C.3     1  LIG1        0.0039
     24 C           2.4080    0.4210    0.0000 C.3     1  LIG1        0.0003
     25 C           3.2170   -0.1710    0.0000 C.3     1  LIG1        0.0039
     26 C           3.1130   -1.1670    0.0000 C.3     1  LIG1        0.0446
@<TRIPOS>BOND
     1     1     2    1
     2     1    16    1
     3     1    19    2
     4     2     3   am
     5     2    15    2
     6     3     4    1
     7     4     5   ar
     8     4    14   ar
     9     5     6   ar
    10     6     7    1
    11     6    13   ar
    12     7     8    1
    13     8     9    2
    14     8    10    1
    15    10    11    1
    16    11    12    1
    17    13    14   ar
    18    16    17    1
    19    16    22    1
    20    16    26    1
    21    17    18    1
    22    18    19    1
    23    18    21    2
    24    19    20    1
    25    22    23    1
    26    23    24    1
    27    24    25    1
    28    25    26    1
