@<TRIPOS>MOLECULE
37271_ChemDiv_C602-0084
 25 26 0 0 0
SMALL
GASTEIGER
Energy = 0

@<TRIPOS>ATOM
      1 S          -2.4960    1.2540    0.0000 S.O2    1  LIG1        0.0635
      2 C          -1.4960    1.2540    0.0000 C.ar    1  LIG1        0.1253
      3 C          -0.9880    0.3960    0.0000 C.ar    1  LIG1        0.0590
      4 C           0.0040    0.3960    0.0000 C.ar    1  LIG1        0.1674
      5 O           0.6670   -0.3460    0.0000 O.2     1  LIG1       -0.4067
      6 C           1.5790    0.0540    0.0000 C.ar    1  LIG1        0.4224
      7 N           1.4790    1.0420    0.0000 N.ar    1  LIG1       -0.2509
      8 C           0.5080    1.2500    0.0000 C.ar    1  LIG1        0.1006
      9 C           0.0040    2.1210    0.0000 C.ar    1  LIG1        0.0218
     10 C          -0.9960    2.1210    0.0000 C.ar    1  LIG1        0.0216
     11 C           2.2170    1.7040    0.0000 C.3     1  LIG1        0.2214
     12 C           3.1540    1.3960    0.0000 C.2     1  LIG1        0.3405
     13 O           3.9000    2.0580    0.0000 O.2     1  LIG1       -0.2479
     14 O           3.3630    0.4250    0.0000 O.3     1  LIG1       -0.4472
     15 C           4.3080    0.1210    0.0000 C.3     1  LIG1        0.2086
     16 C           4.5170   -0.8500    0.0000 C.3     1  LIG1        0.0513
     17 O           2.4330   -0.4460    0.0000 O.2     1  LIG1       -0.2226
     18 N          -3.5080    1.2540    0.0000 N.3     1  LIG1       -0.1529
     19 C          -4.0210    0.3750    0.0000 C.3     1  LIG1        0.1120
     20 C          -3.5130   -0.4960    0.0000 C.3     1  LIG1        0.1245
     21 C          -4.0210   -1.3710    0.0000 C.1     1  LIG1        0.0747
     22 N          -4.5210   -2.2500    0.0000 N.1     1  LIG1       -0.1958
     23 C          -4.0210    2.1290    0.0000 C.3     1  LIG1        0.1149
     24 O          -2.4960    0.2420    0.0000 O.2     1  LIG1       -0.1528
     25 O          -2.5000    2.2540    0.0000 O.2     1  LIG1       -0.1528
@<TRIPOS>BOND
     1     1     2    1
     2     1    18    1
     3     1    24    2
     4     1    25    2
     5     2     3   ar
     6     2    10   ar
     7     3     4   ar
     8     4     5   ar
     9     4     8   ar
    10     5     6   ar
    11     6     7   ar
    12     6    17    2
    13     7     8   ar
    14     7    11    1
    15     8     9   ar
    16     9    10   ar
    17    11    12    1
    18    12    13    2
    19    12    14    1
    20    14    15    1
    21    15    16    1
    22    18    19    1
    23    18    23    1
    24    19    20    1
    25    20    21    1
    26    21    22    3
