@<TRIPOS>MOLECULE
37274_ChemDiv_E686-0044
 26 28 0 0 0
SMALL
GASTEIGER
Energy = 0

@<TRIPOS>ATOM
      1 C           1.2540   -1.0540    0.0000 C.2     1  LIG1        0.0709
      2 C           2.0670   -1.6420    0.0000 C.3     1  LIG1        0.1590
      3 O           2.8750   -1.0540    0.0000 O.3     1  LIG1       -0.4486
      4 C           2.5670   -0.1040    0.0000 C.2     1  LIG1        0.3372
      5 C           1.5670   -0.1040    0.0000 C.2     1  LIG1        0.0574
      6 C           0.9790    0.7080    0.0000 C.3     1  LIG1        0.0378
      7 O           3.1540    0.7080    0.0000 O.2     1  LIG1       -0.2453
      8 C           1.2000   -2.1380    0.0000 C.3     1  LIG1        0.0446
      9 C           1.2000   -3.1420    0.0000 C.3     1  LIG1        0.0039
     10 C           2.0670   -3.6380    0.0000 C.3     1  LIG1        0.0003
     11 C           2.9330   -3.1420    0.0000 C.3     1  LIG1        0.0039
     12 C           2.9330   -2.1380    0.0000 C.3     1  LIG1        0.0446
     13 C           0.3040   -1.3630    0.0000 C.2     1  LIG1        0.2642
     14 N          -0.5580   -0.8630    0.0000 N.am    1  LIG1       -0.1969
     15 C          -0.5630    0.1330    0.0000 C.3     1  LIG1        0.1449
     16 C          -1.4210    0.6330    0.0000 C.ar    1  LIG1        0.0365
     17 C          -1.4210    1.6380    0.0000 C.ar    1  LIG1        0.1700
     18 C          -2.2920    2.1380    0.0000 C.ar    1  LIG1        0.1721
     19 O          -2.2920    3.1380    0.0000 O.3     1  LIG1       -0.4684
     20 C          -1.4210    3.6420    0.0000 C.3     1  LIG1        0.2526
     21 C          -3.1580    1.6380    0.0000 C.ar    1  LIG1        0.0400
     22 C          -3.1580    0.6330    0.0000 C.ar    1  LIG1        0.0030
     23 C          -2.2920    0.1330    0.0000 C.ar    1  LIG1        0.0007
     24 O          -0.5630    2.1380    0.0000 O.3     1  LIG1       -0.4686
     25 C           0.3040    1.6380    0.0000 C.3     1  LIG1        0.2526
     26 O           0.0960   -2.3380    0.0000 O.2     1  LIG1       -0.2686
@<TRIPOS>BOND
     1     1     2    1
     2     1     5    2
     3     1    13    1
     4     2     3    1
     5     2     8    1
     6     2    12    1
     7     3     4    1
     8     4     5    1
     9     4     7    2
    10     5     6    1
    11     8     9    1
    12     9    10    1
    13    10    11    1
    14    11    12    1
    15    13    14   am
    16    13    26    2
    17    14    15    1
    18    15    16    1
    19    16    17   ar
    20    16    23   ar
    21    17    18   ar
    22    17    24    1
    23    18    19    1
    24    18    21   ar
    25    19    20    1
    26    21    22   ar
    27    22    23   ar
    28    24    25    1
