@<TRIPOS>MOLECULE
37273_ChemDiv_C602-0090
 26 28 0 0 0
SMALL
GASTEIGER
Energy = 0

@<TRIPOS>ATOM
      1 S          -1.4790    0.5540    0.0000 S.O2    1  LIG1        0.0634
      2 N          -2.4920    0.5540    0.0000 N.3     1  LIG1       -0.1555
      3 C          -3.0040    1.4250    0.0000 C.3     1  LIG1        0.0958
      4 C          -4.0130    1.4250    0.0000 C.3     1  LIG1        0.0192
      5 C          -4.5170    0.5540    0.0000 C.3     1  LIG1        0.0029
      6 C          -4.0130   -0.3290    0.0000 C.3     1  LIG1        0.0192
      7 C          -3.0040   -0.3290    0.0000 C.3     1  LIG1        0.0958
      8 C          -5.5290    0.5540    0.0000 C.3     1  LIG1        0.0001
      9 C          -0.4790    0.5540    0.0000 C.ar    1  LIG1        0.1253
     10 C           0.0290   -0.3040    0.0000 C.ar    1  LIG1        0.0590
     11 C           1.0210   -0.3040    0.0000 C.ar    1  LIG1        0.1674
     12 O           1.6790   -1.0500    0.0000 O.2     1  LIG1       -0.4067
     13 C           2.5920   -0.6460    0.0000 C.ar    1  LIG1        0.4224
     14 N           2.4920    0.3420    0.0000 N.ar    1  LIG1       -0.2509
     15 C           1.5210    0.5500    0.0000 C.ar    1  LIG1        0.1006
     16 C           1.0210    1.4170    0.0000 C.ar    1  LIG1        0.0218
     17 C           0.0210    1.4170    0.0000 C.ar    1  LIG1        0.0216
     18 C           3.2250    1.0000    0.0000 C.3     1  LIG1        0.2214
     19 C           4.1630    0.6960    0.0000 C.2     1  LIG1        0.3405
     20 O           4.9080    1.3540    0.0000 O.2     1  LIG1       -0.2479
     21 O           4.3710   -0.2750    0.0000 O.3     1  LIG1       -0.4472
     22 C           5.3170   -0.5790    0.0000 C.3     1  LIG1        0.2086
     23 C           5.5250   -1.5460    0.0000 C.3     1  LIG1        0.0513
     24 O           3.4460   -1.1460    0.0000 O.2     1  LIG1       -0.2226
     25 O          -1.4830    1.5500    0.0000 O.2     1  LIG1       -0.1528
     26 O          -1.4790   -0.4580    0.0000 O.2     1  LIG1       -0.1528
@<TRIPOS>BOND
     1     1     2    1
     2     1     9    1
     3     1    25    2
     4     1    26    2
     5     2     3    1
     6     2     7    1
     7     3     4    1
     8     4     5    1
     9     5     6    1
    10     5     8    1
    11     6     7    1
    12     9    10   ar
    13     9    17   ar
    14    10    11   ar
    15    11    12   ar
    16    11    15   ar
    17    12    13   ar
    18    13    14   ar
    19    13    24    2
    20    14    15   ar
    21    14    18    1
    22    15    16   ar
    23    16    17   ar
    24    18    19    1
    25    19    20    2
    26    19    21    1
    27    21    22    1
    28    22    23    1
