@<TRIPOS>MOLECULE
37272_ChemDiv_C533-1190
 31 35 0 0 0
SMALL
GASTEIGER
Energy = 0

@<TRIPOS>ATOM
      1 C           1.9880    0.7380    0.0000 C.2     1  LIG1        0.0694
      2 C           2.9920    0.8960    0.0000 C.3     1  LIG1        0.1589
      3 O           3.4420    0.0040    0.0000 O.3     1  LIG1       -0.4486
      4 C           2.7250   -0.7040    0.0000 C.2     1  LIG1        0.3372
      5 C           1.8330   -0.2500    0.0000 C.2     1  LIG1        0.0574
      6 C           0.9330   -0.7040    0.0000 C.3     1  LIG1        0.0378
      7 O           2.8580   -1.7040    0.0000 O.2     1  LIG1       -0.2453
      8 C           3.9040    1.3000    0.0000 C.3     1  LIG1        0.0446
      9 C           4.0080    2.2960    0.0000 C.3     1  LIG1        0.0039
     10 C           3.1920    2.8960    0.0000 C.3     1  LIG1        0.0003
     11 C           2.2710    2.4790    0.0000 C.3     1  LIG1        0.0039
     12 C           2.1710    1.4880    0.0000 C.3     1  LIG1        0.0446
     13 C           3.3080    3.8960    0.0000 C.3     1  LIG1        0.0000
     14 C           1.2880    1.4330    0.0000 C.2     1  LIG1        0.2485
     15 N           0.3210    1.1630    0.0000 N.am    1  LIG1       -0.2647
     16 C          -0.3880    1.8580    0.0000 C.3     1  LIG1        0.1567
     17 C          -1.3380    1.6040    0.0000 C.3     1  LIG1        0.1610
     18 N          -1.6000    0.6460    0.0000 N.4     1  LIG1        0.3834
     19 C          -2.5670    0.3630    0.0000 C.3     1  LIG1        0.1664
     20 C          -2.7960   -0.6170    0.0000 C.ar    1  LIG1        0.0376
     21 C          -2.0880   -1.3040    0.0000 C.ar    1  LIG1        0.0416
     22 C          -2.3330   -2.2710    0.0000 C.ar    1  LIG1        0.1763
     23 C          -3.3130   -2.5500    0.0000 C.ar    1  LIG1        0.1764
     24 O          -3.3460   -3.5500    0.0000 O.3     1  LIG1       -0.4346
     25 C          -2.4170   -3.8920    0.0000 C.3     1  LIG1        0.4294
     26 O          -1.7830   -3.1080    0.0000 O.3     1  LIG1       -0.4346
     27 C          -4.0130   -1.8540    0.0000 C.ar    1  LIG1        0.0401
     28 C          -3.7750   -0.8880    0.0000 C.ar    1  LIG1        0.0048
     29 C          -0.8880   -0.0540    0.0000 C.3     1  LIG1        0.1610
     30 C           0.0710    0.2130    0.0000 C.3     1  LIG1        0.1567
     31 O           1.5380    2.3790    0.0000 O.2     1  LIG1       -0.2701
@<TRIPOS>BOND
     1     1     2    1
     2     1     5    2
     3     1    14    1
     4     2     3    1
     5     2     8    1
     6     2    12    1
     7     3     4    1
     8     4     5    1
     9     4     7    2
    10     5     6    1
    11     8     9    1
    12     9    10    1
    13    10    11    1
    14    10    13    1
    15    11    12    1
    16    14    15   am
    17    14    31    2
    18    15    16    1
    19    15    30    1
    20    16    17    1
    21    17    18    1
    22    18    19    1
    23    18    29    1
    24    19    20    1
    25    20    21   ar
    26    20    28   ar
    27    21    22   ar
    28    22    23   ar
    29    22    26    1
    30    23    24    1
    31    23    27   ar
    32    24    25    1
    33    25    26    1
    34    27    28   ar
    35    29    30    1
