@<TRIPOS>MOLECULE
37275_ChemDiv_C602-0131
 32 34 0 0 0
SMALL
GASTEIGER
Energy = 0

@<TRIPOS>ATOM
      1 S          -1.2290    0.8830    0.0000 S.O2    1  LIG1        0.0639
      2 N          -2.2420    0.8830    0.0000 N.3     1  LIG1       -0.1450
      3 C          -2.7420    0.0000    0.0000 C.3     1  LIG1        0.1586
      4 C          -2.2580   -0.8750    0.0000 C.3     1  LIG1        0.1587
      5 N          -2.7790   -1.7580    0.0000 N.4     1  LIG1        0.3878
      6 C          -2.2670   -2.6420    0.0000 C.3     1  LIG1        0.2026
      7 C          -3.7630   -1.7500    0.0000 C.3     1  LIG1        0.2026
      8 C          -2.7290    1.7460    0.0000 C.3     1  LIG1        0.1223
      9 C          -3.7420    1.7460    0.0000 C.ar    1  LIG1       -0.0045
     10 C          -4.2420    2.6380    0.0000 C.ar    1  LIG1       -0.0029
     11 C          -5.2540    2.6460    0.0000 C.ar    1  LIG1       -0.0003
     12 C          -5.7750    1.7960    0.0000 C.ar    1  LIG1       -0.0000
     13 C          -5.2750    0.9080    0.0000 C.ar    1  LIG1       -0.0003
     14 C          -4.2500    0.9040    0.0000 C.ar    1  LIG1       -0.0029
     15 C          -0.2330    0.8830    0.0000 C.ar    1  LIG1        0.1253
     16 C           0.2750    0.0250    0.0000 C.ar    1  LIG1        0.0590
     17 C           1.2670    0.0250    0.0000 C.ar    1  LIG1        0.1674
     18 O           1.9250   -0.7170    0.0000 O.2     1  LIG1       -0.4067
     19 C           2.8380   -0.3170    0.0000 C.ar    1  LIG1        0.4224
     20 N           2.7380    0.6710    0.0000 N.ar    1  LIG1       -0.2509
     21 C           1.7670    0.8790    0.0000 C.ar    1  LIG1        0.1006
     22 C           1.2670    1.7460    0.0000 C.ar    1  LIG1        0.0218
     23 C           0.2670    1.7460    0.0000 C.ar    1  LIG1        0.0216
     24 C           3.4710    1.3290    0.0000 C.3     1  LIG1        0.2214
     25 C           4.4080    1.0250    0.0000 C.2     1  LIG1        0.3405
     26 O           5.1540    1.6830    0.0000 O.2     1  LIG1       -0.2479
     27 O           4.6170    0.0540    0.0000 O.3     1  LIG1       -0.4472
     28 C           5.5630   -0.2500    0.0000 C.3     1  LIG1        0.2086
     29 C           5.7710   -1.2170    0.0000 C.3     1  LIG1        0.0513
     30 O           3.6920   -0.8130    0.0000 O.2     1  LIG1       -0.2226
     31 O          -1.2330    1.8830    0.0000 O.2     1  LIG1       -0.1528
     32 O          -1.2290   -0.1290    0.0000 O.2     1  LIG1       -0.1528
@<TRIPOS>BOND
     1     1     2    1
     2     1    15    1
     3     1    31    2
     4     1    32    2
     5     2     3    1
     6     2     8    1
     7     3     4    1
     8     4     5    1
     9     5     6    1
    10     5     7    1
    11     8     9    1
    12     9    10   ar
    13     9    14   ar
    14    10    11   ar
    15    11    12   ar
    16    12    13   ar
    17    13    14   ar
    18    15    16   ar
    19    15    23   ar
    20    16    17   ar
    21    17    18   ar
    22    17    21   ar
    23    18    19   ar
    24    19    20   ar
    25    19    30    2
    26    20    21   ar
    27    20    24    1
    28    21    22   ar
    29    22    23   ar
    30    24    25    1
    31    25    26    2
    32    25    27    1
    33    27    28    1
    34    28    29    1
