@<TRIPOS>MOLECULE
37278_ChemDiv_C533-1343
 27 30 0 0 0
SMALL
GASTEIGER
Energy = 0

@<TRIPOS>ATOM
      1 C           0.9670   -1.3080    0.0000 C.2     1  LIG1        0.0712
      2 C           0.1210   -0.7380    0.0000 C.2     1  LIG1        0.2681
      3 N           0.1920    0.2710    0.0000 N.am    1  LIG1       -0.1754
      4 C          -0.6460    0.8210    0.0000 C.ar    1  LIG1        0.0796
      5 C          -1.5540    0.3750    0.0000 C.ar    1  LIG1        0.0533
      6 C          -2.3920    0.9290    0.0000 C.ar    1  LIG1        0.0443
      7 C          -2.3330    1.9330    0.0000 C.ar    1  LIG1        0.1766
      8 C          -1.4250    2.3830    0.0000 C.ar    1  LIG1        0.1777
      9 C          -0.5880    1.8290    0.0000 C.ar    1  LIG1        0.0569
     10 O          -1.5710    3.3790    0.0000 O.3     1  LIG1       -0.4346
     11 C          -2.5580    3.5580    0.0000 C.3     1  LIG1        0.4294
     12 O          -3.0330    2.6580    0.0000 O.3     1  LIG1       -0.4346
     13 C          -1.9420   -0.4460    0.0000 C.2     1  LIG1        0.1748
     14 O          -3.0080   -0.2580    0.0000 O.2     1  LIG1       -0.2913
     15 C          -1.9040   -1.2830    0.0000 C.3     1  LIG1        0.0773
     16 O          -0.7250   -1.2500    0.0000 O.2     1  LIG1       -0.2682
     17 C           1.9130   -0.9670    0.0000 C.3     1  LIG1        0.1590
     18 O           2.5210   -1.7670    0.0000 O.3     1  LIG1       -0.4486
     19 C           1.9460   -2.5960    0.0000 C.2     1  LIG1        0.3372
     20 C           1.0000   -2.3040    0.0000 C.2     1  LIG1        0.0574
     21 C           0.1960   -2.9290    0.0000 C.3     1  LIG1        0.0378
     22 O           2.2670   -3.5540    0.0000 O.2     1  LIG1       -0.2453
     23 C           2.8540   -0.6290    0.0000 C.3     1  LIG1        0.0446
     24 C           3.0290    0.3580    0.0000 C.3     1  LIG1        0.0039
     25 C           2.2500    1.0170    0.0000 C.3     1  LIG1        0.0003
     26 C           1.3170    0.6670    0.0000 C.3     1  LIG1        0.0039
     27 C           1.1420   -0.3250    0.0000 C.3     1  LIG1        0.0446
@<TRIPOS>BOND
     1     1     2    1
     2     1    17    1
     3     1    20    2
     4     2     3   am
     5     2    16    2
     6     3     4    1
     7     4     5   ar
     8     4     9   ar
     9     5     6   ar
    10     5    13    1
    11     6     7   ar
    12     7     8   ar
    13     7    12    1
    14     8     9   ar
    15     8    10    1
    16    10    11    1
    17    11    12    1
    18    13    14    2
    19    13    15    1
    20    17    18    1
    21    17    23    1
    22    17    27    1
    23    18    19    1
    24    19    20    1
    25    19    22    2
    26    20    21    1
    27    23    24    1
    28    24    25    1
    29    25    26    1
    30    26    27    1
