@<TRIPOS>MOLECULE
37286_ChemDiv_C594-0079
 26 29 0 0 0
SMALL
GASTEIGER
Energy = 0

@<TRIPOS>ATOM
      1 N          -0.6250   -1.4670    0.0000 N.ar    1  LIG1       -0.1781
      2 C           0.2500   -1.0170    0.0000 C.ar    1  LIG1        0.1694
      3 C           0.9420   -1.7040    0.0000 C.ar    1  LIG1        0.0724
      4 C           0.4920   -2.5830    0.0000 C.ar    1  LIG1        0.1924
      5 N          -0.4670   -2.4670    0.0000 N.ar    1  LIG1       -0.1429
      6 N           0.9500   -3.4920    0.0000 N.pl3   1  LIG1       -0.1053
      7 C           1.9130   -1.4500    0.0000 C.ar    1  LIG1        0.0075
      8 C           2.1710   -0.4920    0.0000 C.ar    1  LIG1        0.0181
      9 C           1.4670    0.2130    0.0000 C.ar    1  LIG1        0.0860
     10 N           0.5080   -0.0460    0.0000 N.ar    1  LIG1       -0.2263
     11 C           1.7250    1.1710    0.0000 C.ar    1  LIG1        0.0560
     12 C           2.6960    1.4290    0.0000 C.ar    1  LIG1        0.1402
     13 C           3.3880    0.7380    0.0000 C.ar    1  LIG1        0.0370
     14 C           3.1290   -0.2330    0.0000 C.ar    1  LIG1        0.0046
     15 O           2.9880    2.3960    0.0000 O.3     1  LIG1       -0.4714
     16 C           2.2920    3.1250    0.0000 C.3     1  LIG1        0.2525
     17 C          -1.5210   -1.0000    0.0000 C.2     1  LIG1        0.2695
     18 C          -1.5630    0.0130    0.0000 C.3     1  LIG1        0.1518
     19 S          -2.4420    0.4790    0.0000 S.3     1  LIG1       -0.1035
     20 C          -2.4790    1.4920    0.0000 C.ar    1  LIG1        0.0288
     21 C          -1.6170    2.0210    0.0000 C.ar    1  LIG1        0.0268
     22 C          -1.6420    3.0290    0.0000 C.ar    1  LIG1        0.0994
     23 N          -2.5330    3.4960    0.0000 N.ar    1  LIG1       -0.2423
     24 C          -3.3920    2.9710    0.0000 C.ar    1  LIG1        0.0994
     25 C          -3.3630    1.9670    0.0000 C.ar    1  LIG1        0.0268
     26 O          -2.3750   -1.5290    0.0000 O.2     1  LIG1       -0.2691
@<TRIPOS>BOND
     1     1     2   ar
     2     1     5   ar
     3     1    17   am
     4     2     3   ar
     5     2    10   ar
     6     3     4   ar
     7     3     7   ar
     8     4     5   ar
     9     4     6    1
    10     7     8   ar
    11     8     9   ar
    12     8    14   ar
    13     9    10   ar
    14     9    11   ar
    15    11    12   ar
    16    12    13   ar
    17    12    15    1
    18    13    14   ar
    19    15    16    1
    20    17    18    1
    21    17    26    2
    22    18    19    1
    23    19    20    1
    24    20    21   ar
    25    20    25   ar
    26    21    22   ar
    27    22    23   ar
    28    23    24   ar
    29    24    25   ar
