@<TRIPOS>MOLECULE
37285_ChemDiv_C466-0147
 21 24 0 0 0
SMALL
GASTEIGER
Energy = 0

@<TRIPOS>ATOM
      1 N           0.9330   -0.0420    0.0000 N.am    1  LIG1       -0.1918
      2 C           1.5960    0.6830    0.0000 C.2     1  LIG1        0.2860
      3 C           1.1040    1.5710    0.0000 C.3     1  LIG1        0.1675
      4 N           0.1170    1.3540    0.0000 N.4     1  LIG1        0.3934
      5 C           0.0080    0.3500    0.0000 C.3     1  LIG1        0.2001
      6 C          -0.8630   -0.1460    0.0000 C.ar    1  LIG1        0.0496
      7 C          -1.7170    0.3630    0.0000 C.ar    1  LIG1        0.0031
      8 C          -2.5920   -0.1290    0.0000 C.ar    1  LIG1       -0.0001
      9 C          -2.6000   -1.1250    0.0000 C.ar    1  LIG1       -0.0000
     10 C          -1.7290   -1.6290    0.0000 C.ar    1  LIG1       -0.0001
     11 C          -0.8460   -1.1250    0.0000 C.ar    1  LIG1        0.0031
     12 C          -0.3790    2.2250    0.0000 C.3     1  LIG1        0.1417
     13 C           0.2960    2.9750    0.0000 C.3     1  LIG1        0.0693
     14 C           1.1960    2.5630    0.0000 C.3     1  LIG1        0.0727
     15 O           2.5960    0.5920    0.0000 O.2     1  LIG1       -0.2682
     16 C           1.1380   -1.0170    0.0000 C.ar    1  LIG1        0.1418
     17 N           0.4000   -1.6920    0.0000 N.ar    1  LIG1       -0.2286
     18 C           0.6040   -2.6670    0.0000 C.ar    1  LIG1        0.1003
     19 C           1.5460   -2.9710    0.0000 C.ar    1  LIG1        0.0208
     20 C           2.2960   -2.3000    0.0000 C.ar    1  LIG1        0.0045
     21 C           2.0790   -1.3250    0.0000 C.ar    1  LIG1        0.0349
@<TRIPOS>BOND
     1     1     2   am
     2     1     5    1
     3     1    16    1
     4     2     3    1
     5     2    15    2
     6     3     4    1
     7     3    14    1
     8     4     5    1
     9     4    12    1
    10     5     6    1
    11     6     7   ar
    12     6    11   ar
    13     7     8   ar
    14     8     9   ar
    15     9    10   ar
    16    10    11   ar
    17    12    13    1
    18    13    14    1
    19    16    17   ar
    20    16    21   ar
    21    17    18   ar
    22    18    19   ar
    23    19    20   ar
    24    20    21   ar
