@<TRIPOS>MOLECULE
37284_ChemDiv_C594-0057
 29 32 0 0 0
SMALL
GASTEIGER
Energy = 0

@<TRIPOS>ATOM
      1 N          -0.5790   -1.9790    0.0000 N.ar    1  LIG1       -0.1788
      2 C           0.2960   -1.5290    0.0000 C.ar    1  LIG1        0.1694
      3 C           0.9830   -2.2170    0.0000 C.ar    1  LIG1        0.0724
      4 C           0.5330   -3.0920    0.0000 C.ar    1  LIG1        0.1924
      5 N          -0.4210   -2.9750    0.0000 N.ar    1  LIG1       -0.1429
      6 N           0.9960   -4.0000    0.0000 N.pl3   1  LIG1       -0.1053
      7 C           1.9580   -1.9580    0.0000 C.ar    1  LIG1        0.0075
      8 C           2.2170   -1.0000    0.0000 C.ar    1  LIG1        0.0181
      9 C           1.5130   -0.2960    0.0000 C.ar    1  LIG1        0.0860
     10 N           0.5540   -0.5540    0.0000 N.ar    1  LIG1       -0.2263
     11 C           1.7710    0.6580    0.0000 C.ar    1  LIG1        0.0560
     12 C           2.7420    0.9170    0.0000 C.ar    1  LIG1        0.1402
     13 C           3.4330    0.2290    0.0000 C.ar    1  LIG1        0.0370
     14 C           3.1750   -0.7460    0.0000 C.ar    1  LIG1        0.0046
     15 O           3.0330    1.8830    0.0000 O.3     1  LIG1       -0.4714
     16 C           2.3380    2.6130    0.0000 C.3     1  LIG1        0.2525
     17 C          -1.4790   -1.5080    0.0000 C.2     1  LIG1        0.2600
     18 C          -1.5170   -0.5000    0.0000 C.3     1  LIG1        0.1157
     19 C          -2.4000   -0.0290    0.0000 C.3     1  LIG1        0.1658
     20 S          -2.4330    0.9790    0.0000 S.O2    1  LIG1        0.0092
     21 O          -3.4380    0.9460    0.0000 O.2     1  LIG1       -0.1686
     22 O          -1.4290    1.0080    0.0000 O.2     1  LIG1       -0.1686
     23 C          -2.4630    1.9790    0.0000 C.ar    1  LIG1        0.1057
     24 C          -1.6130    2.5080    0.0000 C.ar    1  LIG1        0.0183
     25 C          -1.6380    3.5170    0.0000 C.ar    1  LIG1        0.0013
     26 C          -2.5130    4.0000    0.0000 C.ar    1  LIG1        0.0001
     27 C          -3.3750    3.4670    0.0000 C.ar    1  LIG1        0.0013
     28 C          -3.3500    2.4630    0.0000 C.ar    1  LIG1        0.0183
     29 O          -2.3290   -2.0420    0.0000 O.2     1  LIG1       -0.2700
@<TRIPOS>BOND
     1     1     2   ar
     2     1     5   ar
     3     1    17   am
     4     2     3   ar
     5     2    10   ar
     6     3     4   ar
     7     3     7   ar
     8     4     5   ar
     9     4     6    1
    10     7     8   ar
    11     8     9   ar
    12     8    14   ar
    13     9    10   ar
    14     9    11   ar
    15    11    12   ar
    16    12    13   ar
    17    12    15    1
    18    13    14   ar
    19    15    16    1
    20    17    18    1
    21    17    29    2
    22    18    19    1
    23    19    20    1
    24    20    21    2
    25    20    22    2
    26    20    23    1
    27    23    24   ar
    28    23    28   ar
    29    24    25   ar
    30    25    26   ar
    31    26    27   ar
    32    27    28   ar
