@<TRIPOS>MOLECULE
37289_ChemDiv_C466-0159
 24 27 0 0 0
SMALL
GASTEIGER
Energy = 0

@<TRIPOS>ATOM
      1 N           1.3580   -0.0420    0.0000 N.am    1  LIG1       -0.1917
      2 C           0.4380    0.3500    0.0000 C.3     1  LIG1        0.2031
      3 N           0.5420    1.3540    0.0000 N.4     1  LIG1        0.3935
      4 C           1.5330    1.5710    0.0000 C.3     1  LIG1        0.1675
      5 C           2.0210    0.6830    0.0000 C.2     1  LIG1        0.2860
      6 O           3.0210    0.5920    0.0000 O.2     1  LIG1       -0.2682
      7 C           1.6210    2.5580    0.0000 C.3     1  LIG1        0.0727
      8 C           0.7210    2.9710    0.0000 C.3     1  LIG1        0.0693
      9 C           0.0500    2.2250    0.0000 C.3     1  LIG1        0.1417
     10 C          -0.4330   -0.1460    0.0000 C.ar    1  LIG1        0.0840
     11 C          -0.4330   -1.1420    0.0000 C.ar    1  LIG1        0.1419
     12 C          -1.3170   -1.6540    0.0000 C.ar    1  LIG1        0.0373
     13 C          -2.1710   -1.1670    0.0000 C.ar    1  LIG1        0.0098
     14 C          -2.1540   -0.1500    0.0000 C.ar    1  LIG1        0.0347
     15 C          -1.2880    0.3460    0.0000 C.ar    1  LIG1        0.0128
     16 BR         -3.0250    0.3460    0.0000 Br      1  LIG1       -0.0490
     17 O           0.4380   -1.6420    0.0000 O.3     1  LIG1       -0.4715
     18 C           0.4380   -2.6500    0.0000 C.3     1  LIG1        0.2525
     19 C           1.5630   -1.0170    0.0000 C.ar    1  LIG1        0.1418
     20 N           0.8290   -1.6920    0.0000 N.ar    1  LIG1       -0.2286
     21 C           1.0290   -2.6670    0.0000 C.ar    1  LIG1        0.1003
     22 C           1.9750   -2.9670    0.0000 C.ar    1  LIG1        0.0208
     23 C           2.7210   -2.3000    0.0000 C.ar    1  LIG1        0.0045
     24 C           2.5080   -1.3210    0.0000 C.ar    1  LIG1        0.0349
@<TRIPOS>BOND
     1     1     2    1
     2     1     5   am
     3     1    19    1
     4     2     3    1
     5     2    10    1
     6     3     4    1
     7     3     9    1
     8     4     5    1
     9     4     7    1
    10     5     6    2
    11     7     8    1
    12     8     9    1
    13    10    11   ar
    14    10    15   ar
    15    11    12   ar
    16    11    17    1
    17    12    13   ar
    18    13    14   ar
    19    14    15   ar
    20    14    16    1
    21    17    18    1
    22    19    20   ar
    23    19    24   ar
    24    20    21   ar
    25    21    22   ar
    26    22    23   ar
    27    23    24   ar
