@<TRIPOS>MOLECULE
37283_ChemDiv_C466-0145
 22 25 0 0 0
SMALL
GASTEIGER
Energy = 0

@<TRIPOS>ATOM
      1 N           0.5330    0.4500    0.0000 N.am    1  LIG1       -0.2073
      2 C          -0.3830    0.8420    0.0000 C.3     1  LIG1        0.2050
      3 N          -0.2750    1.8500    0.0000 N.4     1  LIG1        0.3937
      4 C           0.7130    2.0580    0.0000 C.3     1  LIG1        0.1675
      5 C           1.2080    1.1790    0.0000 C.2     1  LIG1        0.2849
      6 O           2.2000    1.0750    0.0000 O.2     1  LIG1       -0.2682
      7 C           0.8210    3.0540    0.0000 C.3     1  LIG1        0.0727
      8 C          -0.0830    3.4670    0.0000 C.3     1  LIG1        0.0693
      9 C          -0.7630    2.7250    0.0000 C.3     1  LIG1        0.1418
     10 C          -1.2500    0.3500    0.0000 C.ar    1  LIG1        0.0791
     11 S          -2.1540    0.7540    0.0000 S.2     1  LIG1       -0.0834
     12 C          -2.8330    0.0250    0.0000 C.ar    1  LIG1        0.0354
     13 C          -2.3500   -0.8580    0.0000 C.ar    1  LIG1        0.0074
     14 C          -1.3580   -0.6460    0.0000 C.ar    1  LIG1        0.0101
     15 C           0.7380   -0.5210    0.0000 C.ar    1  LIG1        0.0602
     16 C           1.6710   -0.8420    0.0000 C.ar    1  LIG1        0.0273
     17 C           1.8830   -1.8170    0.0000 C.ar    1  LIG1        0.0694
     18 C           1.1380   -2.4790    0.0000 C.ar    1  LIG1        0.0683
     19 C           0.1920   -2.1790    0.0000 C.ar    1  LIG1        0.0135
     20 C          -0.0080   -1.1960    0.0000 C.ar    1  LIG1        0.0160
     21 CL          1.3500   -3.4630    0.0000 Cl      1  LIG1       -0.0814
     22 CL          2.8290   -2.1210    0.0000 Cl      1  LIG1       -0.0813
@<TRIPOS>BOND
     1     1     2    1
     2     1     5   am
     3     1    15    1
     4     2     3    1
     5     2    10    1
     6     3     4    1
     7     3     9    1
     8     4     5    1
     9     4     7    1
    10     5     6    2
    11     7     8    1
    12     8     9    1
    13    10    11   ar
    14    10    14   ar
    15    11    12   ar
    16    12    13   ar
    17    13    14   ar
    18    15    16   ar
    19    15    20   ar
    20    16    17   ar
    21    17    18   ar
    22    17    22    1
    23    18    19   ar
    24    18    21    1
    25    19    20   ar
