@<TRIPOS>MOLECULE
37288_ChemDiv_C594-0121
 25 28 0 0 0
SMALL
GASTEIGER
Energy = 0

@<TRIPOS>ATOM
      1 N          -0.2080   -1.2830    0.0000 N.ar    1  LIG1       -0.1740
      2 C           0.6670   -0.8330    0.0000 C.ar    1  LIG1        0.1696
      3 C           1.3580   -1.5250    0.0000 C.ar    1  LIG1        0.0724
      4 C           0.9040   -2.4000    0.0000 C.ar    1  LIG1        0.1924
      5 N          -0.0500   -2.2830    0.0000 N.ar    1  LIG1       -0.1428
      6 N           1.3670   -3.3080    0.0000 N.pl3   1  LIG1       -0.1053
      7 C           2.3290   -1.2670    0.0000 C.ar    1  LIG1        0.0075
      8 C           2.5880   -0.3040    0.0000 C.ar    1  LIG1        0.0181
      9 C           1.8830    0.4000    0.0000 C.ar    1  LIG1        0.0860
     10 N           0.9250    0.1380    0.0000 N.ar    1  LIG1       -0.2263
     11 C           2.1420    1.3580    0.0000 C.ar    1  LIG1        0.0560
     12 C           3.1170    1.6130    0.0000 C.ar    1  LIG1        0.1402
     13 C           3.8080    0.9250    0.0000 C.ar    1  LIG1        0.0370
     14 C           3.5460   -0.0460    0.0000 C.ar    1  LIG1        0.0046
     15 O           3.4040    2.5830    0.0000 O.3     1  LIG1       -0.4714
     16 C           2.7130    3.3130    0.0000 C.3     1  LIG1        0.2525
     17 C          -1.1080   -0.8130    0.0000 C.2     1  LIG1        0.3159
     18 C          -1.1500    0.1960    0.0000 C.3     1  LIG1        0.2299
     19 N          -2.0290    0.6670    0.0000 N.4     1  LIG1        0.3886
     20 C          -2.0670    1.6750    0.0000 C.3     1  LIG1        0.1720
     21 C          -2.9500    2.1540    0.0000 C.3     1  LIG1        0.2048
     22 O          -3.8130    1.6210    0.0000 O.3     1  LIG1       -0.3411
     23 C          -3.7670    0.6210    0.0000 C.3     1  LIG1        0.2048
     24 C          -2.8830    0.1380    0.0000 C.3     1  LIG1        0.1720
     25 O          -1.9580   -1.3460    0.0000 O.2     1  LIG1       -0.2636
@<TRIPOS>BOND
     1     1     2   ar
     2     1     5   ar
     3     1    17   am
     4     2     3   ar
     5     2    10   ar
     6     3     4   ar
     7     3     7   ar
     8     4     5   ar
     9     4     6    1
    10     7     8   ar
    11     8     9   ar
    12     8    14   ar
    13     9    10   ar
    14     9    11   ar
    15    11    12   ar
    16    12    13   ar
    17    12    15    1
    18    13    14   ar
    19    15    16    1
    20    17    18    1
    21    17    25    2
    22    18    19    1
    23    19    20    1
    24    19    24    1
    25    20    21    1
    26    21    22    1
    27    22    23    1
    28    23    24    1
