@<TRIPOS>MOLECULE
37287_ChemDiv_C466-0150
 22 25 0 0 0
SMALL
GASTEIGER
Energy = 0

@<TRIPOS>ATOM
      1 N           1.3670   -0.0420    0.0000 N.am    1  LIG1       -0.1918
      2 C           2.0290    0.6830    0.0000 C.2     1  LIG1        0.2860
      3 C           1.5380    1.5710    0.0000 C.3     1  LIG1        0.1675
      4 N           0.5500    1.3580    0.0000 N.4     1  LIG1        0.3934
      5 C           0.4420    0.3500    0.0000 C.3     1  LIG1        0.2001
      6 C          -0.4290   -0.1460    0.0000 C.ar    1  LIG1        0.0497
      7 C          -1.3130    0.3580    0.0000 C.ar    1  LIG1        0.0040
      8 C          -2.1580   -0.1290    0.0000 C.ar    1  LIG1        0.0113
      9 C          -2.1710   -1.1210    0.0000 C.ar    1  LIG1        0.0577
     10 C          -1.2830   -1.6290    0.0000 C.ar    1  LIG1        0.0113
     11 C          -0.4290   -1.1250    0.0000 C.ar    1  LIG1        0.0040
     12 CL         -3.0330   -1.6460    0.0000 Cl      1  LIG1       -0.0822
     13 C           0.0540    2.2250    0.0000 C.3     1  LIG1        0.1417
     14 C           0.7250    2.9750    0.0000 C.3     1  LIG1        0.0693
     15 C           1.6290    2.5630    0.0000 C.3     1  LIG1        0.0727
     16 O           3.0290    0.5920    0.0000 O.2     1  LIG1       -0.2682
     17 C           1.5670   -1.0210    0.0000 C.ar    1  LIG1        0.1418
     18 N           0.8330   -1.6920    0.0000 N.ar    1  LIG1       -0.2286
     19 C           1.0380   -2.6670    0.0000 C.ar    1  LIG1        0.1003
     20 C           1.9790   -2.9710    0.0000 C.ar    1  LIG1        0.0208
     21 C           2.7290   -2.3040    0.0000 C.ar    1  LIG1        0.0045
     22 C           2.5130   -1.3250    0.0000 C.ar    1  LIG1        0.0349
@<TRIPOS>BOND
     1     1     2   am
     2     1     5    1
     3     1    17    1
     4     2     3    1
     5     2    16    2
     6     3     4    1
     7     3    15    1
     8     4     5    1
     9     4    13    1
    10     5     6    1
    11     6     7   ar
    12     6    11   ar
    13     7     8   ar
    14     8     9   ar
    15     9    10   ar
    16     9    12    1
    17    10    11   ar
    18    13    14    1
    19    14    15    1
    20    17    18   ar
    21    17    22   ar
    22    18    19   ar
    23    19    20   ar
    24    20    21   ar
    25    21    22   ar
