@<TRIPOS>MOLECULE
37281_ChemDiv_C466-0456
 28 32 0 0 0
SMALL
GASTEIGER
Energy = 0

@<TRIPOS>ATOM
      1 N           1.3630    0.4460    0.0000 N.am    1  LIG1       -0.2077
      2 C           0.4420    0.8380    0.0000 C.3     1  LIG1        0.2018
      3 N           0.5460    1.8420    0.0000 N.4     1  LIG1        0.3934
      4 C           1.5380    2.0500    0.0000 C.3     1  LIG1        0.1674
      5 C           2.0250    1.1710    0.0000 C.2     1  LIG1        0.2849
      6 O           3.0250    1.0790    0.0000 O.2     1  LIG1       -0.2682
      7 C           1.6250    3.0460    0.0000 C.3     1  LIG1        0.0727
      8 C           0.7250    3.4580    0.0000 C.3     1  LIG1        0.0693
      9 C           0.0540    2.7080    0.0000 C.3     1  LIG1        0.1417
     10 C          -0.4290    0.3460    0.0000 C.ar    1  LIG1        0.0835
     11 C          -1.2960    0.8380    0.0000 C.ar    1  LIG1        0.0061
     12 C          -2.1670    0.3540    0.0000 C.ar    1  LIG1        0.0001
     13 C          -2.1790   -0.6540    0.0000 C.ar    1  LIG1        0.0031
     14 C          -1.2960   -1.1380    0.0000 C.ar    1  LIG1        0.0368
     15 C          -0.4290   -0.6540    0.0000 C.ar    1  LIG1        0.1418
     16 O           0.4420   -1.1540    0.0000 O.3     1  LIG1       -0.4715
     17 C           0.4330   -2.1580    0.0000 C.3     1  LIG1        0.2525
     18 C          -3.0290    0.8500    0.0000 C.ar    1  LIG1       -0.0000
     19 C          -3.0210    1.8580    0.0000 C.ar    1  LIG1       -0.0000
     20 C          -2.1500    2.3540    0.0000 C.ar    1  LIG1       -0.0000
     21 C          -1.2960    1.8420    0.0000 C.ar    1  LIG1        0.0000
     22 C           1.5670   -0.5290    0.0000 C.ar    1  LIG1        0.0593
     23 C           0.8210   -1.2000    0.0000 C.ar    1  LIG1        0.0160
     24 C           1.0290   -2.1750    0.0000 C.ar    1  LIG1        0.0127
     25 C           1.9790   -2.4790    0.0000 C.ar    1  LIG1        0.0578
     26 C           2.7250   -1.8080    0.0000 C.ar    1  LIG1        0.0127
     27 C           2.5080   -0.8330    0.0000 C.ar    1  LIG1        0.0160
     28 CL          2.1920   -3.4540    0.0000 Cl      1  LIG1       -0.0822
@<TRIPOS>BOND
     1     1     2    1
     2     1     5   am
     3     1    22    1
     4     2     3    1
     5     2    10    1
     6     3     4    1
     7     3     9    1
     8     4     5    1
     9     4     7    1
    10     5     6    2
    11     7     8    1
    12     8     9    1
    13    10    11   ar
    14    10    15   ar
    15    11    12   ar
    16    11    21   ar
    17    12    13   ar
    18    12    18   ar
    19    13    14   ar
    20    14    15   ar
    21    15    16    1
    22    16    17    1
    23    18    19   ar
    24    19    20   ar
    25    20    21   ar
    26    22    23   ar
    27    22    27   ar
    28    23    24   ar
    29    24    25   ar
    30    25    26   ar
    31    25    28    1
    32    26    27   ar
