@<TRIPOS>MOLECULE
37295_ChemDiv_C466-0350
 21 24 0 0 0
SMALL
GASTEIGER
Energy = 0

@<TRIPOS>ATOM
      1 N           0.9250   -0.2130    0.0000 N.am    1  LIG1       -0.1865
      2 C           0.0130    0.1790    0.0000 C.3     1  LIG1        0.2027
      3 N           0.1170    1.1880    0.0000 N.4     1  LIG1        0.3934
      4 C           1.1080    1.3960    0.0000 C.3     1  LIG1        0.1675
      5 C           1.6040    0.5130    0.0000 C.2     1  LIG1        0.2863
      6 O           2.5960    0.4080    0.0000 O.2     1  LIG1       -0.2681
      7 C           1.2130    2.3920    0.0000 C.3     1  LIG1        0.0727
      8 C           0.3000    2.8040    0.0000 C.3     1  LIG1        0.0693
      9 C          -0.3710    2.0540    0.0000 C.3     1  LIG1        0.1417
     10 C          -0.8580   -0.3130    0.0000 C.ar    1  LIG1        0.0770
     11 C          -1.7130    0.1880    0.0000 C.ar    1  LIG1        0.1433
     12 F          -1.6880    1.1880    0.0000 F       1  LIG1       -0.2042
     13 C          -2.5880   -0.3040    0.0000 C.ar    1  LIG1        0.0296
     14 C          -2.6000   -1.2920    0.0000 C.ar    1  LIG1        0.0023
     15 C          -1.7420   -1.7960    0.0000 C.ar    1  LIG1        0.0001
     16 C          -0.8420   -1.3130    0.0000 C.ar    1  LIG1        0.0054
     17 C           1.1330   -1.1880    0.0000 C.ar    1  LIG1        0.1733
     18 N           2.0380   -1.6080    0.0000 N.ar    1  LIG1       -0.2220
     19 C           1.9290   -2.5920    0.0000 C.ar    1  LIG1        0.1079
     20 C           0.9630   -2.8000    0.0000 C.ar    1  LIG1        0.0588
     21 S           0.4630   -1.9330    0.0000 S.2     1  LIG1       -0.0504
@<TRIPOS>BOND
     1     1     2    1
     2     1     5   am
     3     1    17    1
     4     2     3    1
     5     2    10    1
     6     3     4    1
     7     3     9    1
     8     4     5    1
     9     4     7    1
    10     5     6    2
    11     7     8    1
    12     8     9    1
    13    10    11   ar
    14    10    16   ar
    15    11    12    1
    16    11    13   ar
    17    13    14   ar
    18    14    15   ar
    19    15    16   ar
    20    17    18   ar
    21    17    21   ar
    22    18    19   ar
    23    19    20   ar
    24    20    21   ar
