@<TRIPOS>MOLECULE
37293_ChemDiv_C466-0338
 21 24 0 0 0
SMALL
GASTEIGER
Energy = 0

@<TRIPOS>ATOM
      1 N           1.3540   -0.2130    0.0000 N.am    1  LIG1       -0.1865
      2 C           2.0330    0.5130    0.0000 C.2     1  LIG1        0.2863
      3 C           1.5380    1.3960    0.0000 C.3     1  LIG1        0.1675
      4 N           0.5500    1.1880    0.0000 N.4     1  LIG1        0.3934
      5 C           0.4420    0.1790    0.0000 C.3     1  LIG1        0.2005
      6 C          -0.4290   -0.3130    0.0000 C.ar    1  LIG1        0.0497
      7 C          -1.3130    0.1880    0.0000 C.ar    1  LIG1        0.0036
      8 C          -2.1580   -0.2960    0.0000 C.ar    1  LIG1        0.0066
      9 C          -2.1670   -1.2920    0.0000 C.ar    1  LIG1        0.0346
     10 C          -1.2830   -1.8000    0.0000 C.ar    1  LIG1        0.0066
     11 C          -0.4290   -1.2960    0.0000 C.ar    1  LIG1        0.0036
     12 BR         -3.0330   -1.8170    0.0000 Br      1  LIG1       -0.0490
     13 C           0.0580    2.0540    0.0000 C.3     1  LIG1        0.1417
     14 C           0.7290    2.8040    0.0000 C.3     1  LIG1        0.0693
     15 C           1.6460    2.3920    0.0000 C.3     1  LIG1        0.0727
     16 O           3.0290    0.4080    0.0000 O.2     1  LIG1       -0.2681
     17 C           1.5630   -1.1880    0.0000 C.ar    1  LIG1        0.1733
     18 N           2.4710   -1.6130    0.0000 N.ar    1  LIG1       -0.2220
     19 C           2.3630   -2.5920    0.0000 C.ar    1  LIG1        0.1079
     20 C           1.3960   -2.8000    0.0000 C.ar    1  LIG1        0.0588
     21 S           0.8920   -1.9380    0.0000 S.2     1  LIG1       -0.0504
@<TRIPOS>BOND
     1     1     2   am
     2     1     5    1
     3     1    17    1
     4     2     3    1
     5     2    16    2
     6     3     4    1
     7     3    15    1
     8     4     5    1
     9     4    13    1
    10     5     6    1
    11     6     7   ar
    12     6    11   ar
    13     7     8   ar
    14     8     9   ar
    15     9    10   ar
    16     9    12    1
    17    10    11   ar
    18    13    14    1
    19    14    15    1
    20    17    18   ar
    21    17    21   ar
    22    18    19   ar
    23    19    20   ar
    24    20    21   ar
