@<TRIPOS>MOLECULE
37290_ChemDiv_C660-0042
 27 30 0 0 0
SMALL
GASTEIGER
Energy = 0

@<TRIPOS>ATOM
      1 N           1.9920    0.9460    0.0000 N.ar    1  LIG1       -0.1789
      2 C           1.0500    1.2540    0.0000 C.ar    1  LIG1        0.1694
      3 C           1.0500    2.2540    0.0000 C.ar    1  LIG1        0.0724
      4 C           1.9920    2.5750    0.0000 C.ar    1  LIG1        0.1924
      5 N           2.5880    1.7540    0.0000 N.ar    1  LIG1       -0.1429
      6 N           2.3080    3.5290    0.0000 N.pl3   1  LIG1       -0.1053
      7 C           0.1790    2.7630    0.0000 C.ar    1  LIG1        0.0075
      8 C          -0.6830    2.2540    0.0000 C.ar    1  LIG1        0.0181
      9 C          -0.6830    1.2540    0.0000 C.ar    1  LIG1        0.0860
     10 N           0.1790    0.7540    0.0000 N.ar    1  LIG1       -0.2263
     11 C          -1.5460    0.7540    0.0000 C.ar    1  LIG1        0.0560
     12 C          -2.4040    1.2540    0.0000 C.ar    1  LIG1        0.1402
     13 C          -2.4040    2.2540    0.0000 C.ar    1  LIG1        0.0370
     14 C          -1.5460    2.7630    0.0000 C.ar    1  LIG1        0.0046
     15 O          -3.2670    0.7670    0.0000 O.3     1  LIG1       -0.4714
     16 C          -3.2670   -0.2380    0.0000 C.3     1  LIG1        0.2525
     17 C           2.3080   -0.0040    0.0000 C.2     1  LIG1        0.2577
     18 C           1.6420   -0.7540    0.0000 C.3     1  LIG1        0.0812
     19 C           0.6670   -0.5380    0.0000 C.3     1  LIG1        0.0094
     20 C           0.0000   -1.2790    0.0000 C.3     1  LIG1        0.0005
     21 C           0.3130   -2.2380    0.0000 C.3     1  LIG1        0.0000
     22 C           1.2790   -2.4460    0.0000 C.3     1  LIG1        0.0005
     23 C           1.9500   -1.7000    0.0000 C.3     1  LIG1        0.0094
     24 C          -0.3670   -2.9880    0.0000 C.3     1  LIG1        0.0000
     25 C          -1.3330   -2.7750    0.0000 C.3     1  LIG1        0.0000
     26 C          -2.0040   -3.5250    0.0000 C.3     1  LIG1        0.0000
     27 O           3.2630   -0.2670    0.0000 O.2     1  LIG1       -0.2701
@<TRIPOS>BOND
     1     1     2   ar
     2     1     5   ar
     3     1    17   am
     4     2     3   ar
     5     2    10   ar
     6     3     4   ar
     7     3     7   ar
     8     4     5   ar
     9     4     6    1
    10     7     8   ar
    11     8     9   ar
    12     8    14   ar
    13     9    10   ar
    14     9    11   ar
    15    11    12   ar
    16    12    13   ar
    17    12    15    1
    18    13    14   ar
    19    15    16    1
    20    17    18    1
    21    17    27    2
    22    18    19    1
    23    18    23    1
    24    19    20    1
    25    20    21    1
    26    21    22    1
    27    21    24    1
    28    22    23    1
    29    24    25    1
    30    25    26    1
