@<TRIPOS>MOLECULE
37291_ChemDiv_C466-0176
 22 25 0 0 0
SMALL
GASTEIGER
Energy = 0

@<TRIPOS>ATOM
      1 N           1.3630   -0.0420    0.0000 N.am    1  LIG1       -0.1918
      2 C           0.4380    0.3500    0.0000 C.3     1  LIG1        0.2001
      3 N           0.5460    1.3580    0.0000 N.4     1  LIG1        0.3934
      4 C           1.5380    1.5710    0.0000 C.3     1  LIG1        0.1675
      5 C           2.0250    0.6830    0.0000 C.2     1  LIG1        0.2860
      6 O           3.0250    0.5920    0.0000 O.2     1  LIG1       -0.2682
      7 C           1.6250    2.5630    0.0000 C.3     1  LIG1        0.0727
      8 C           0.7250    2.9750    0.0000 C.3     1  LIG1        0.0693
      9 C           0.0500    2.2250    0.0000 C.3     1  LIG1        0.1417
     10 C          -0.4330   -0.1460    0.0000 C.ar    1  LIG1        0.0505
     11 C          -1.2880    0.3500    0.0000 C.ar    1  LIG1        0.0145
     12 C          -2.1540   -0.1500    0.0000 C.ar    1  LIG1        0.0576
     13 CL         -3.0290    0.3460    0.0000 Cl      1  LIG1       -0.0823
     14 C          -2.1540   -1.1420    0.0000 C.ar    1  LIG1        0.0114
     15 C          -1.2790   -1.6460    0.0000 C.ar    1  LIG1        0.0008
     16 C          -0.4210   -1.1420    0.0000 C.ar    1  LIG1        0.0032
     17 C           1.5670   -1.0210    0.0000 C.ar    1  LIG1        0.1418
     18 N           0.8290   -1.6920    0.0000 N.ar    1  LIG1       -0.2286
     19 C           1.0330   -2.6670    0.0000 C.ar    1  LIG1        0.1003
     20 C           1.9790   -2.9710    0.0000 C.ar    1  LIG1        0.0208
     21 C           2.7250   -2.3040    0.0000 C.ar    1  LIG1        0.0045
     22 C           2.5130   -1.3250    0.0000 C.ar    1  LIG1        0.0349
@<TRIPOS>BOND
     1     1     2    1
     2     1     5   am
     3     1    17    1
     4     2     3    1
     5     2    10    1
     6     3     4    1
     7     3     9    1
     8     4     5    1
     9     4     7    1
    10     5     6    2
    11     7     8    1
    12     8     9    1
    13    10    11   ar
    14    10    16   ar
    15    11    12   ar
    16    12    13    1
    17    12    14   ar
    18    14    15   ar
    19    15    16   ar
    20    17    18   ar
    21    17    22   ar
    22    18    19   ar
    23    19    20   ar
    24    20    21   ar
    25    21    22   ar
