@<TRIPOS>MOLECULE
37297_ChemDiv_C602-0229
 31 33 0 0 0
SMALL
GASTEIGER
Energy = 0

@<TRIPOS>ATOM
      1 S          -1.2170    0.9040    0.0000 S.O2    1  LIG1        0.0637
      2 C          -0.2170    0.9040    0.0000 C.ar    1  LIG1        0.1253
      3 C           0.2920    0.0460    0.0000 C.ar    1  LIG1        0.0590
      4 C           1.2790    0.0460    0.0000 C.ar    1  LIG1        0.1674
      5 O           1.9380   -0.6960    0.0000 O.2     1  LIG1       -0.4067
      6 C           2.8500   -0.2960    0.0000 C.ar    1  LIG1        0.4224
      7 N           2.7460    0.6920    0.0000 N.ar    1  LIG1       -0.2509
      8 C           1.7790    0.9000    0.0000 C.ar    1  LIG1        0.1006
      9 C           1.2790    1.7670    0.0000 C.ar    1  LIG1        0.0218
     10 C           0.2830    1.7670    0.0000 C.ar    1  LIG1        0.0216
     11 C           3.4830    1.3500    0.0000 C.3     1  LIG1        0.2214
     12 C           4.4170    1.0460    0.0000 C.2     1  LIG1        0.3405
     13 O           5.1630    1.7000    0.0000 O.2     1  LIG1       -0.2479
     14 O           4.6250    0.0750    0.0000 O.3     1  LIG1       -0.4472
     15 C           5.5710   -0.2290    0.0000 C.3     1  LIG1        0.2086
     16 C           5.7750   -1.1960    0.0000 C.3     1  LIG1        0.0513
     17 O           3.7000   -0.7920    0.0000 O.2     1  LIG1       -0.2226
     18 N          -2.2250    0.9040    0.0000 N.3     1  LIG1       -0.1511
     19 C          -2.7380    1.7750    0.0000 C.3     1  LIG1        0.1221
     20 C          -3.7580    1.7500    0.0000 C.ar    1  LIG1       -0.0045
     21 C          -4.2790    2.6210    0.0000 C.ar    1  LIG1       -0.0029
     22 C          -5.3040    2.5920    0.0000 C.ar    1  LIG1       -0.0003
     23 C          -5.7790    1.7170    0.0000 C.ar    1  LIG1       -0.0000
     24 C          -5.2540    0.8500    0.0000 C.ar    1  LIG1       -0.0003
     25 C          -4.2330    0.8750    0.0000 C.ar    1  LIG1       -0.0029
     26 C          -2.7380    0.0210    0.0000 C.3     1  LIG1        0.0962
     27 C          -2.2630   -0.8540    0.0000 C.3     1  LIG1        0.0192
     28 C          -2.7500   -1.7380    0.0000 C.3     1  LIG1        0.0015
     29 C          -2.2790   -2.6170    0.0000 C.3     1  LIG1        0.0000
     30 O          -1.2170    1.9000    0.0000 O.2     1  LIG1       -0.1528
     31 O          -1.2170   -0.1080    0.0000 O.2     1  LIG1       -0.1528
@<TRIPOS>BOND
     1     1     2    1
     2     1    18    1
     3     1    30    2
     4     1    31    2
     5     2     3   ar
     6     2    10   ar
     7     3     4   ar
     8     4     5   ar
     9     4     8   ar
    10     5     6   ar
    11     6     7   ar
    12     6    17    2
    13     7     8   ar
    14     7    11    1
    15     8     9   ar
    16     9    10   ar
    17    11    12    1
    18    12    13    2
    19    12    14    1
    20    14    15    1
    21    15    16    1
    22    18    19    1
    23    18    26    1
    24    19    20    1
    25    20    21   ar
    26    20    25   ar
    27    21    22   ar
    28    22    23   ar
    29    23    24   ar
    30    24    25   ar
    31    26    27    1
    32    27    28    1
    33    28    29    1
