@<TRIPOS>MOLECULE
37292_ChemDiv_C594-0083
 25 28 0 0 0
SMALL
GASTEIGER
Energy = 0

@<TRIPOS>ATOM
      1 N           0.1880   -1.2880    0.0000 N.ar    1  LIG1       -0.1753
      2 C           1.0630   -0.8330    0.0000 C.ar    1  LIG1        0.1697
      3 C           1.7540   -1.5250    0.0000 C.ar    1  LIG1        0.0725
      4 C           1.3000   -2.4000    0.0000 C.ar    1  LIG1        0.1925
      5 N           0.3460   -2.2830    0.0000 N.ar    1  LIG1       -0.1427
      6 N           1.7630   -3.3080    0.0000 N.pl3   1  LIG1       -0.1053
      7 C           2.7250   -1.2670    0.0000 C.ar    1  LIG1        0.0075
      8 C           2.9830   -0.3080    0.0000 C.ar    1  LIG1        0.0181
      9 C           2.2790    0.3960    0.0000 C.ar    1  LIG1        0.0860
     10 N           1.3210    0.1380    0.0000 N.ar    1  LIG1       -0.2263
     11 C           2.5420    1.3540    0.0000 C.ar    1  LIG1        0.0560
     12 C           3.5130    1.6130    0.0000 C.ar    1  LIG1        0.1402
     13 C           4.2040    0.9250    0.0000 C.ar    1  LIG1        0.0370
     14 C           3.9420   -0.0500    0.0000 C.ar    1  LIG1        0.0046
     15 O           3.8000    2.5830    0.0000 O.3     1  LIG1       -0.4714
     16 C           3.1080    3.3130    0.0000 C.3     1  LIG1        0.2525
     17 C          -0.7080   -0.8170    0.0000 C.2     1  LIG1        0.2832
     18 C          -1.5630   -1.3460    0.0000 C.ar    1  LIG1        0.0776
     19 C          -2.4420   -0.8710    0.0000 C.ar    1  LIG1        0.0146
     20 C          -3.3040   -1.4040    0.0000 C.ar    1  LIG1        0.0539
     21 BR         -4.2080   -0.9380    0.0000 Br      1  LIG1       -0.0474
     22 C          -3.2630   -2.4000    0.0000 C.ar    1  LIG1        0.1055
     23 N          -2.3750   -2.8790    0.0000 N.ar    1  LIG1       -0.2416
     24 C          -1.5250   -2.3540    0.0000 C.ar    1  LIG1        0.1037
     25 O          -0.7500    0.1960    0.0000 O.2     1  LIG1       -0.2651
@<TRIPOS>BOND
     1     1     2   ar
     2     1     5   ar
     3     1    17   am
     4     2     3   ar
     5     2    10   ar
     6     3     4   ar
     7     3     7   ar
     8     4     5   ar
     9     4     6    1
    10     7     8   ar
    11     8     9   ar
    12     8    14   ar
    13     9    10   ar
    14     9    11   ar
    15    11    12   ar
    16    12    13   ar
    17    12    15    1
    18    13    14   ar
    19    15    16    1
    20    17    18    1
    21    17    25    2
    22    18    19   ar
    23    18    24   ar
    24    19    20   ar
    25    20    21    1
    26    20    22   ar
    27    22    23   ar
    28    23    24   ar
