@<TRIPOS>MOLECULE
37306_ChemDiv_C540-0057
 28 32 0 0 0
SMALL
GASTEIGER
Energy = 0

@<TRIPOS>ATOM
      1 C           0.5000    1.1920    0.0000 C.ar    1  LIG1        0.4006
      2 N           0.5000    2.1880    0.0000 N.ar    1  LIG1       -0.2393
      3 C          -0.4500    2.4920    0.0000 C.ar    1  LIG1        0.0586
      4 C          -1.0330    1.6750    0.0000 C.ar    1  LIG1        0.1037
      5 S          -0.4420    0.8670    0.0000 S.2     1  LIG1        0.0131
      6 C          -2.0290    1.6750    0.0000 C.2     1  LIG1        0.2725
      7 N          -2.5250    0.7960    0.0000 N.am    1  LIG1       -0.1963
      8 C          -2.0130   -0.0670    0.0000 C.3     1  LIG1        0.1419
      9 C          -2.4960   -0.9250    0.0000 C.ar    1  LIG1        0.0027
     10 C          -3.4920   -0.9460    0.0000 C.ar    1  LIG1        0.0376
     11 C          -3.9750   -1.8170    0.0000 C.ar    1  LIG1        0.1762
     12 C          -3.4750   -2.6670    0.0000 C.ar    1  LIG1        0.1764
     13 O          -4.1290   -3.4290    0.0000 O.3     1  LIG1       -0.4346
     14 C          -5.0460   -3.0330    0.0000 C.3     1  LIG1        0.4294
     15 O          -4.9540   -2.0290    0.0000 O.3     1  LIG1       -0.4346
     16 C          -2.4710   -2.6580    0.0000 C.ar    1  LIG1        0.0399
     17 C          -1.9830   -1.7880    0.0000 C.ar    1  LIG1        0.0008
     18 O          -2.5420    2.5380    0.0000 O.2     1  LIG1       -0.2678
     19 C          -0.7670    3.4330    0.0000 C.3     1  LIG1        0.0513
     20 C           1.4500    2.5000    0.0000 C.ar    1  LIG1        0.1620
     21 C           2.0420    1.6920    0.0000 C.ar    1  LIG1        0.3167
     22 N           1.4500    0.8880    0.0000 N.ar    1  LIG1        0.1046
     23 C           3.0380    1.7040    0.0000 C.ar    1  LIG1        0.0719
     24 C           3.5420    0.8330    0.0000 C.ar    1  LIG1        0.0062
     25 C           4.5380    0.8420    0.0000 C.ar    1  LIG1        0.0002
     26 C           5.0420    1.7210    0.0000 C.ar    1  LIG1        0.0000
     27 C           4.5380    2.5830    0.0000 C.ar    1  LIG1        0.0002
     28 C           3.5250    2.5710    0.0000 C.ar    1  LIG1        0.0062
@<TRIPOS>BOND
     1     1     2   ar
     2     1     5   ar
     3     1    22   ar
     4     2     3   ar
     5     2    20   ar
     6     3     4   ar
     7     3    19    1
     8     4     5   ar
     9     4     6    1
    10     6     7   am
    11     6    18    2
    12     7     8    1
    13     8     9    1
    14     9    10   ar
    15     9    17   ar
    16    10    11   ar
    17    11    12   ar
    18    11    15    1
    19    12    13    1
    20    12    16   ar
    21    13    14    1
    22    14    15    1
    23    16    17   ar
    24    20    21   ar
    25    21    22   ar
    26    21    23    1
    27    23    24   ar
    28    23    28   ar
    29    24    25   ar
    30    25    26   ar
    31    26    27   ar
    32    27    28   ar
