@<TRIPOS>MOLECULE
37300_ChemDiv_C538-0435
 22 23 0 0 0
SMALL
GASTEIGER
Energy = 0

@<TRIPOS>ATOM
      1 C           0.0040   -1.4380    0.0000 C.ar    1  LIG1        0.0246
      2 C           0.0040   -2.4330    0.0000 C.ar    1  LIG1        0.1352
      3 O           0.8580   -2.9290    0.0000 O.3     1  LIG1       -0.4828
      4 C           1.7250   -2.4330    0.0000 C.3     1  LIG1        0.1344
      5 C           1.7250   -1.4380    0.0000 C.3     1  LIG1        0.0553
      6 C           0.8580   -0.9420    0.0000 C.3     1  LIG1        0.0767
      7 S           0.8580    0.0500    0.0000 S.3     1  LIG1       -0.1267
      8 C           1.7080    0.5420    0.0000 C.3     1  LIG1        0.1444
      9 C           1.7080    1.5380    0.0000 C.2     1  LIG1        0.2523
     10 N           2.5750    2.0330    0.0000 N.am    1  LIG1       -0.2065
     11 C           2.5750    3.0250    0.0000 C.3     1  LIG1        0.0954
     12 C           1.7080    3.5170    0.0000 C.3     1  LIG1        0.0234
     13 C           3.4290    3.5170    0.0000 C.3     1  LIG1        0.0234
     14 O           0.8540    2.0330    0.0000 O.2     1  LIG1       -0.2724
     15 C           1.8460   -3.5130    0.0000 C.3     1  LIG1        0.0436
     16 C           2.7790   -2.3920    0.0000 C.3     1  LIG1        0.0436
     17 C          -0.8460   -2.9290    0.0000 C.ar    1  LIG1        0.0397
     18 C          -1.7130   -2.4330    0.0000 C.ar    1  LIG1        0.0400
     19 C          -1.7130   -1.4380    0.0000 C.ar    1  LIG1        0.1386
     20 C          -0.8460   -0.9420    0.0000 C.ar    1  LIG1        0.0365
     21 O          -2.5670   -0.9290    0.0000 O.3     1  LIG1       -0.4714
     22 C          -3.4330   -1.4290    0.0000 C.3     1  LIG1        0.2525
@<TRIPOS>BOND
     1     1     2   ar
     2     1     6    1
     3     1    20   ar
     4     2     3    1
     5     2    17   ar
     6     3     4    1
     7     4     5    1
     8     4    15    1
     9     4    16    1
    10     5     6    1
    11     6     7    1
    12     7     8    1
    13     8     9    1
    14     9    10   am
    15     9    14    2
    16    10    11    1
    17    11    12    1
    18    11    13    1
    19    17    18   ar
    20    18    19   ar
    21    19    20   ar
    22    19    21    1
    23    21    22    1
