@<TRIPOS>MOLECULE
37302_ChemDiv_C540-0021
 30 34 0 0 0
SMALL
GASTEIGER
Energy = 0

@<TRIPOS>ATOM
      1 C          -0.3130    1.7420    0.0000 C.ar    1  LIG1        0.1023
      2 S           0.2710    0.9460    0.0000 S.2     1  LIG1        0.0130
      3 C           1.2290    1.2540    0.0000 C.ar    1  LIG1        0.4006
      4 N           1.2290    2.2630    0.0000 N.ar    1  LIG1       -0.2393
      5 C           0.2630    2.5580    0.0000 C.ar    1  LIG1        0.0585
      6 C          -0.0420    3.5000    0.0000 C.3     1  LIG1        0.0513
      7 C           2.1710    2.5580    0.0000 C.ar    1  LIG1        0.1620
      8 C           2.7580    1.7580    0.0000 C.ar    1  LIG1        0.3167
      9 N           2.1750    0.9540    0.0000 N.ar    1  LIG1        0.1046
     10 C           3.7580    1.7580    0.0000 C.ar    1  LIG1        0.0719
     11 C           4.2710    0.9040    0.0000 C.ar    1  LIG1        0.0062
     12 C           5.2710    0.9170    0.0000 C.ar    1  LIG1        0.0002
     13 C           5.7750    1.7790    0.0000 C.ar    1  LIG1        0.0000
     14 C           5.2630    2.6420    0.0000 C.ar    1  LIG1        0.0002
     15 C           4.2630    2.6330    0.0000 C.ar    1  LIG1        0.0062
     16 C          -1.3130    1.7290    0.0000 C.2     1  LIG1        0.2565
     17 N          -1.8000    0.8670    0.0000 N.am    1  LIG1       -0.2721
     18 C          -2.8000    0.8580    0.0000 C.3     1  LIG1        0.1151
     19 C          -3.2960   -0.0080    0.0000 C.3     1  LIG1        0.1123
     20 N          -2.7880   -0.8830    0.0000 N.pl3   1  LIG1       -0.3040
     21 C          -3.2960   -1.7540    0.0000 C.ar    1  LIG1        0.0488
     22 C          -4.2830   -1.7460    0.0000 C.ar    1  LIG1        0.0259
     23 C          -4.7790   -2.6290    0.0000 C.ar    1  LIG1        0.0589
     24 CL         -5.7790   -2.6380    0.0000 Cl      1  LIG1       -0.0822
     25 C          -4.2750   -3.4960    0.0000 C.ar    1  LIG1        0.0115
     26 C          -3.2830   -3.4830    0.0000 C.ar    1  LIG1        0.0021
     27 C          -2.7790   -2.6000    0.0000 C.ar    1  LIG1        0.0146
     28 C          -1.7880   -0.8710    0.0000 C.3     1  LIG1        0.1123
     29 C          -1.2920    0.0040    0.0000 C.3     1  LIG1        0.1151
     30 O          -1.8170    2.5960    0.0000 O.2     1  LIG1       -0.2693
@<TRIPOS>BOND
     1     1     2   ar
     2     1     5   ar
     3     1    16    1
     4     2     3   ar
     5     3     4   ar
     6     3     9   ar
     7     4     5   ar
     8     4     7   ar
     9     5     6    1
    10     7     8   ar
    11     8     9   ar
    12     8    10    1
    13    10    11   ar
    14    10    15   ar
    15    11    12   ar
    16    12    13   ar
    17    13    14   ar
    18    14    15   ar
    19    16    17   am
    20    16    30    2
    21    17    18    1
    22    17    29    1
    23    18    19    1
    24    19    20    1
    25    20    21    1
    26    20    28    1
    27    21    22   ar
    28    21    27   ar
    29    22    23   ar
    30    23    24    1
    31    23    25   ar
    32    25    26   ar
    33    26    27   ar
    34    28    29    1
