@<TRIPOS>MOLECULE
37308_ChemDiv_C540-0066
 25 28 0 0 0
SMALL
GASTEIGER
Energy = 0

@<TRIPOS>ATOM
      1 C          -0.7420    0.7960    0.0000 C.ar    1  LIG1        0.4006
      2 N          -0.7500    1.8080    0.0000 N.ar    1  LIG1       -0.2393
      3 C          -1.7000    2.1080    0.0000 C.ar    1  LIG1        0.0586
      4 C          -2.2830    1.2920    0.0000 C.ar    1  LIG1        0.1041
      5 S          -1.6920    0.4920    0.0000 S.2     1  LIG1        0.0131
      6 C          -3.2830    1.2830    0.0000 C.2     1  LIG1        0.2763
      7 N          -3.7750    0.4170    0.0000 N.am    1  LIG1       -0.1750
      8 C          -3.2670   -0.4460    0.0000 C.ar    1  LIG1        0.0738
      9 C          -2.2580   -0.4460    0.0000 C.ar    1  LIG1        0.0189
     10 C          -1.7580   -1.3000    0.0000 C.ar    1  LIG1        0.0310
     11 C          -2.2540   -2.1710    0.0000 C.ar    1  LIG1        0.1402
     12 F          -1.7460   -3.0420    0.0000 F       1  LIG1       -0.2042
     13 C          -3.2540   -2.1790    0.0000 C.ar    1  LIG1        0.0310
     14 C          -3.7580   -1.3040    0.0000 C.ar    1  LIG1        0.0189
     15 O          -3.7920    2.1460    0.0000 O.2     1  LIG1       -0.2674
     16 C          -2.0210    3.0460    0.0000 C.3     1  LIG1        0.0513
     17 C           0.1920    2.1170    0.0000 C.ar    1  LIG1        0.1620
     18 C           0.7830    1.3080    0.0000 C.ar    1  LIG1        0.3167
     19 N           0.2000    0.4960    0.0000 N.ar    1  LIG1        0.1046
     20 C           1.7830    1.3080    0.0000 C.ar    1  LIG1        0.0719
     21 C           2.2880    0.4460    0.0000 C.ar    1  LIG1        0.0062
     22 C           3.2880    0.4580    0.0000 C.ar    1  LIG1        0.0002
     23 C           3.7880    1.3250    0.0000 C.ar    1  LIG1        0.0000
     24 C           3.2790    2.1920    0.0000 C.ar    1  LIG1        0.0002
     25 C           2.2790    2.1880    0.0000 C.ar    1  LIG1        0.0062
@<TRIPOS>BOND
     1     1     2   ar
     2     1     5   ar
     3     1    19   ar
     4     2     3   ar
     5     2    17   ar
     6     3     4   ar
     7     3    16    1
     8     4     5   ar
     9     4     6    1
    10     6     7   am
    11     6    15    2
    12     7     8    1
    13     8     9   ar
    14     8    14   ar
    15     9    10   ar
    16    10    11   ar
    17    11    12    1
    18    11    13   ar
    19    13    14   ar
    20    17    18   ar
    21    18    19   ar
    22    18    20    1
    23    20    21   ar
    24    20    25   ar
    25    21    22   ar
    26    22    23   ar
    27    23    24   ar
    28    24    25   ar
