@<TRIPOS>MOLECULE
37304_ChemDiv_C540-0039
 23 25 0 0 0
SMALL
GASTEIGER
Energy = 0

@<TRIPOS>ATOM
      1 C          -0.7420    1.2290    0.0000 C.ar    1  LIG1        0.4006
      2 N          -0.7500    2.2420    0.0000 N.ar    1  LIG1       -0.2393
      3 C          -1.7040    2.5420    0.0000 C.ar    1  LIG1        0.0586
      4 C          -2.2880    1.7250    0.0000 C.ar    1  LIG1        0.1037
      5 S          -1.6960    0.9250    0.0000 S.2     1  LIG1        0.0131
      6 C          -3.2880    1.7170    0.0000 C.2     1  LIG1        0.2722
      7 O          -3.7960    2.5790    0.0000 O.2     1  LIG1       -0.2678
      8 N          -3.7790    0.8500    0.0000 N.am    1  LIG1       -0.2011
      9 C          -3.2710   -0.0130    0.0000 C.3     1  LIG1        0.1181
     10 C          -3.7580   -0.8920    0.0000 C.3     1  LIG1        0.0555
     11 C          -3.2580   -1.7500    0.0000 C.3     1  LIG1        0.1441
     12 O          -3.7420   -2.6170    0.0000 O.3     1  LIG1       -0.3510
     13 C          -3.2330   -3.4790    0.0000 C.3     1  LIG1        0.1741
     14 C          -2.0210    3.4830    0.0000 C.3     1  LIG1        0.0513
     15 C           0.1920    2.5500    0.0000 C.ar    1  LIG1        0.1620
     16 C           0.7830    1.7420    0.0000 C.ar    1  LIG1        0.3167
     17 N           0.2000    0.9290    0.0000 N.ar    1  LIG1        0.1046
     18 C           1.7830    1.7420    0.0000 C.ar    1  LIG1        0.0719
     19 C           2.2920    0.8790    0.0000 C.ar    1  LIG1        0.0062
     20 C           3.2920    0.8920    0.0000 C.ar    1  LIG1        0.0002
     21 C           3.7920    1.7580    0.0000 C.ar    1  LIG1        0.0000
     22 C           3.2830    2.6250    0.0000 C.ar    1  LIG1        0.0002
     23 C           2.2830    2.6210    0.0000 C.ar    1  LIG1        0.0062
@<TRIPOS>BOND
     1     1     2   ar
     2     1     5   ar
     3     1    17   ar
     4     2     3   ar
     5     2    15   ar
     6     3     4   ar
     7     3    14    1
     8     4     5   ar
     9     4     6    1
    10     6     7    2
    11     6     8   am
    12     8     9    1
    13     9    10    1
    14    10    11    1
    15    11    12    1
    16    12    13    1
    17    15    16   ar
    18    16    17   ar
    19    16    18    1
    20    18    19   ar
    21    18    23   ar
    22    19    20   ar
    23    20    21   ar
    24    21    22   ar
    25    22    23   ar
