@<TRIPOS>MOLECULE
37319_ChemDiv_C466-0485
 25 28 0 0 0
SMALL
GASTEIGER
Energy = 0

@<TRIPOS>ATOM
      1 N           1.3250    0.0080    0.0000 N.am    1  LIG1       -0.1891
      2 C           0.4000    0.4080    0.0000 C.3     1  LIG1        0.2003
      3 N           0.5080    1.4170    0.0000 N.4     1  LIG1        0.3934
      4 C           1.4960    1.6290    0.0000 C.3     1  LIG1        0.1675
      5 C           2.0000    0.7460    0.0000 C.2     1  LIG1        0.2860
      6 O           2.9920    0.6420    0.0000 O.2     1  LIG1       -0.2682
      7 C           1.6040    2.6210    0.0000 C.3     1  LIG1        0.0727
      8 C           0.6880    3.0330    0.0000 C.3     1  LIG1        0.0693
      9 C           0.0210    2.2830    0.0000 C.3     1  LIG1        0.1417
     10 C          -0.4710   -0.0830    0.0000 C.ar    1  LIG1        0.0529
     11 C          -1.3130    0.4040    0.0000 C.ar    1  LIG1        0.0431
     12 C          -2.1920   -0.0880    0.0000 C.ar    1  LIG1        0.1723
     13 C          -2.1920   -1.0790    0.0000 C.ar    1  LIG1        0.1724
     14 C          -1.3380   -1.5920    0.0000 C.ar    1  LIG1        0.0400
     15 C          -0.4710   -1.0960    0.0000 C.ar    1  LIG1        0.0064
     16 O          -3.0630   -1.5830    0.0000 O.3     1  LIG1       -0.4684
     17 C          -3.0710   -2.5880    0.0000 C.3     1  LIG1        0.2526
     18 O          -3.0580    0.4080    0.0000 O.3     1  LIG1       -0.4684
     19 C          -3.0500    1.4170    0.0000 C.3     1  LIG1        0.2526
     20 C           1.5250   -0.9580    0.0000 C.ar    1  LIG1        0.1836
     21 N           0.8670   -1.7040    0.0000 N.ar    1  LIG1       -0.0617
     22 O           1.3580   -2.5670    0.0000 O.2     1  LIG1       -0.3565
     23 C           2.3290   -2.3710    0.0000 C.ar    1  LIG1        0.1562
     24 C           2.4380   -1.3790    0.0000 C.ar    1  LIG1        0.0738
     25 C           3.0670   -3.0290    0.0000 C.3     1  LIG1        0.0754
@<TRIPOS>BOND
     1     1     2    1
     2     1     5   am
     3     1    20    1
     4     2     3    1
     5     2    10    1
     6     3     4    1
     7     3     9    1
     8     4     5    1
     9     4     7    1
    10     5     6    2
    11     7     8    1
    12     8     9    1
    13    10    11   ar
    14    10    15   ar
    15    11    12   ar
    16    12    13   ar
    17    12    18    1
    18    13    14   ar
    19    13    16    1
    20    14    15   ar
    21    16    17    1
    22    18    19    1
    23    20    21   ar
    24    20    24   ar
    25    21    22   ar
    26    22    23   ar
    27    23    24   ar
    28    23    25    1
