@<TRIPOS>MOLECULE
37316_ChemDiv_C594-0125
 29 33 0 0 0
SMALL
GASTEIGER
Energy = 0

@<TRIPOS>ATOM
      1 N          -0.3250   -1.4420    0.0000 N.ar    1  LIG1       -0.1773
      2 C           0.5540   -0.9920    0.0000 C.ar    1  LIG1        0.1695
      3 C           1.2420   -1.6790    0.0000 C.ar    1  LIG1        0.0724
      4 C           0.7920   -2.5580    0.0000 C.ar    1  LIG1        0.1924
      5 N          -0.1670   -2.4420    0.0000 N.ar    1  LIG1       -0.1429
      6 N           1.2540   -3.4630    0.0000 N.pl3   1  LIG1       -0.1053
      7 C           2.2170   -1.4210    0.0000 C.ar    1  LIG1        0.0075
      8 C           2.4750   -0.4630    0.0000 C.ar    1  LIG1        0.0181
      9 C           1.7670    0.2420    0.0000 C.ar    1  LIG1        0.0860
     10 N           0.8130   -0.0170    0.0000 N.ar    1  LIG1       -0.2263
     11 C           2.0290    1.2000    0.0000 C.ar    1  LIG1        0.0560
     12 C           3.0000    1.4580    0.0000 C.ar    1  LIG1        0.1402
     13 C           3.6920    0.7710    0.0000 C.ar    1  LIG1        0.0370
     14 C           3.4330   -0.2040    0.0000 C.ar    1  LIG1        0.0046
     15 O           3.2920    2.4290    0.0000 O.3     1  LIG1       -0.4714
     16 C           2.5960    3.1580    0.0000 C.3     1  LIG1        0.2525
     17 C          -1.2250   -0.9710    0.0000 C.2     1  LIG1        0.2815
     18 C          -1.2670    0.0420    0.0000 C.3     1  LIG1        0.2020
     19 N          -2.1460    0.5130    0.0000 N.ar    1  LIG1       -0.2527
     20 C          -3.0920    0.1750    0.0000 C.ar    1  LIG1        0.4224
     21 O          -3.6960    0.9710    0.0000 O.2     1  LIG1       -0.4068
     22 C          -3.1420    1.8040    0.0000 C.ar    1  LIG1        0.1660
     23 C          -2.1790    1.5210    0.0000 C.ar    1  LIG1        0.1005
     24 C          -1.4540    2.2130    0.0000 C.ar    1  LIG1        0.0205
     25 C          -1.6880    3.1790    0.0000 C.ar    1  LIG1        0.0017
     26 C          -2.6460    3.4670    0.0000 C.ar    1  LIG1        0.0032
     27 C          -3.3790    2.7790    0.0000 C.ar    1  LIG1        0.0392
     28 O          -3.3880   -0.7920    0.0000 O.2     1  LIG1       -0.2226
     29 O          -2.0750   -1.5040    0.0000 O.2     1  LIG1       -0.2680
@<TRIPOS>BOND
     1     1     2   ar
     2     1     5   ar
     3     1    17   am
     4     2     3   ar
     5     2    10   ar
     6     3     4   ar
     7     3     7   ar
     8     4     5   ar
     9     4     6    1
    10     7     8   ar
    11     8     9   ar
    12     8    14   ar
    13     9    10   ar
    14     9    11   ar
    15    11    12   ar
    16    12    13   ar
    17    12    15    1
    18    13    14   ar
    19    15    16    1
    20    17    18    1
    21    17    29    2
    22    18    19    1
    23    19    20   ar
    24    19    23   ar
    25    20    21   ar
    26    20    28    2
    27    21    22   ar
    28    22    23   ar
    29    22    27   ar
    30    23    24   ar
    31    24    25   ar
    32    25    26   ar
    33    26    27   ar
