@<TRIPOS>MOLECULE
37318_ChemDiv_C594-0119
 30 34 0 0 0
SMALL
GASTEIGER
Energy = 0

@<TRIPOS>ATOM
      1 N          -0.2080   -1.5630    0.0000 N.ar    1  LIG1       -0.1788
      2 C           0.6710   -1.1130    0.0000 C.ar    1  LIG1        0.1694
      3 C           1.3580   -1.8040    0.0000 C.ar    1  LIG1        0.0724
      4 C           0.9080   -2.6790    0.0000 C.ar    1  LIG1        0.1924
      5 N          -0.0500   -2.5630    0.0000 N.ar    1  LIG1       -0.1429
      6 N           1.3710   -3.5880    0.0000 N.pl3   1  LIG1       -0.1053
      7 C           2.3330   -1.5460    0.0000 C.ar    1  LIG1        0.0075
      8 C           2.5920   -0.5880    0.0000 C.ar    1  LIG1        0.0181
      9 C           1.8880    0.1170    0.0000 C.ar    1  LIG1        0.0860
     10 N           0.9290   -0.1420    0.0000 N.ar    1  LIG1       -0.2263
     11 C           2.1460    1.0750    0.0000 C.ar    1  LIG1        0.0560
     12 C           3.1170    1.3380    0.0000 C.ar    1  LIG1        0.1402
     13 C           3.8080    0.6460    0.0000 C.ar    1  LIG1        0.0370
     14 C           3.5500   -0.3290    0.0000 C.ar    1  LIG1        0.0046
     15 O           3.4080    2.3040    0.0000 O.3     1  LIG1       -0.4714
     16 C           2.7130    3.0330    0.0000 C.3     1  LIG1        0.2525
     17 C          -1.1040   -1.0920    0.0000 C.2     1  LIG1        0.2602
     18 C          -1.1460   -0.0830    0.0000 C.3     1  LIG1        0.1145
     19 C          -2.0290    0.3880    0.0000 C.3     1  LIG1        0.1194
     20 N          -2.0630    1.3960    0.0000 N.ar    1  LIG1       -0.2898
     21 C          -2.8290    2.0500    0.0000 C.ar    1  LIG1        0.2501
     22 O          -2.4460    2.9710    0.0000 O.2     1  LIG1       -0.4306
     23 C          -1.4500    2.9000    0.0000 C.ar    1  LIG1        0.1633
     24 C          -1.2130    1.9250    0.0000 C.ar    1  LIG1        0.0975
     25 C          -0.2500    1.6380    0.0000 C.ar    1  LIG1        0.0204
     26 C           0.4790    2.3290    0.0000 C.ar    1  LIG1        0.0017
     27 C           0.2290    3.3080    0.0000 C.ar    1  LIG1        0.0032
     28 C          -0.7210    3.5920    0.0000 C.ar    1  LIG1        0.0391
     29 S          -3.8130    1.8250    0.0000 S.2     1  LIG1        0.0094
     30 O          -1.9580   -1.6250    0.0000 O.2     1  LIG1       -0.2700
@<TRIPOS>BOND
     1     1     2   ar
     2     1     5   ar
     3     1    17   am
     4     2     3   ar
     5     2    10   ar
     6     3     4   ar
     7     3     7   ar
     8     4     5   ar
     9     4     6    1
    10     7     8   ar
    11     8     9   ar
    12     8    14   ar
    13     9    10   ar
    14     9    11   ar
    15    11    12   ar
    16    12    13   ar
    17    12    15    1
    18    13    14   ar
    19    15    16    1
    20    17    18    1
    21    17    30    2
    22    18    19    1
    23    19    20    1
    24    20    21   ar
    25    20    24   ar
    26    21    22   ar
    27    21    29    2
    28    22    23   ar
    29    23    24   ar
    30    23    28   ar
    31    24    25   ar
    32    25    26   ar
    33    26    27   ar
    34    27    28   ar
