@<TRIPOS>MOLECULE
37315_ChemDiv_C466-0365
 23 26 0 0 0
SMALL
GASTEIGER
Energy = 0

@<TRIPOS>ATOM
      1 N           0.9250   -0.2130    0.0000 N.am    1  LIG1       -0.1864
      2 C           0.0080    0.1790    0.0000 C.3     1  LIG1        0.2035
      3 N           0.1170    1.1880    0.0000 N.4     1  LIG1        0.3935
      4 C           1.1040    1.3920    0.0000 C.3     1  LIG1        0.1675
      5 C           1.6000    0.5130    0.0000 C.2     1  LIG1        0.2863
      6 O           2.5960    0.4080    0.0000 O.2     1  LIG1       -0.2681
      7 C           1.2130    2.3920    0.0000 C.3     1  LIG1        0.0727
      8 C           0.2960    2.8040    0.0000 C.3     1  LIG1        0.0693
      9 C          -0.3710    2.0540    0.0000 C.3     1  LIG1        0.1417
     10 C          -0.8630   -0.3130    0.0000 C.ar    1  LIG1        0.0835
     11 C          -1.7040    0.1960    0.0000 C.ar    1  LIG1        0.1416
     12 O          -1.7290    1.1880    0.0000 O.3     1  LIG1       -0.4755
     13 C          -2.5830    1.7040    0.0000 C.3     1  LIG1        0.2055
     14 C          -2.6000    2.6960    0.0000 C.3     1  LIG1        0.0512
     15 C          -2.5830   -0.3040    0.0000 C.ar    1  LIG1        0.0368
     16 C          -2.5830   -1.3130    0.0000 C.ar    1  LIG1        0.0031
     17 C          -1.7040   -1.8130    0.0000 C.ar    1  LIG1        0.0001
     18 C          -0.8290   -1.3130    0.0000 C.ar    1  LIG1        0.0062
     19 C           1.1290   -1.1880    0.0000 C.ar    1  LIG1        0.1733
     20 N           2.0380   -1.6080    0.0000 N.ar    1  LIG1       -0.2220
     21 C           1.9290   -2.5920    0.0000 C.ar    1  LIG1        0.1079
     22 C           0.9630   -2.8000    0.0000 C.ar    1  LIG1        0.0588
     23 S           0.4630   -1.9330    0.0000 S.2     1  LIG1       -0.0504
@<TRIPOS>BOND
     1     1     2    1
     2     1     5   am
     3     1    19    1
     4     2     3    1
     5     2    10    1
     6     3     4    1
     7     3     9    1
     8     4     5    1
     9     4     7    1
    10     5     6    2
    11     7     8    1
    12     8     9    1
    13    10    11   ar
    14    10    18   ar
    15    11    12    1
    16    11    15   ar
    17    12    13    1
    18    13    14    1
    19    15    16   ar
    20    16    17   ar
    21    17    18   ar
    22    19    20   ar
    23    19    23   ar
    24    20    21   ar
    25    21    22   ar
    26    22    23   ar
