@<TRIPOS>MOLECULE
37311_ChemDiv_C648-0732
 31 34 0 0 0
SMALL
GASTEIGER
Energy = 0

@<TRIPOS>ATOM
      1 S          -1.8960    0.0210    0.0000 S.O2    1  LIG1        0.0634
      2 N          -1.3920   -0.8420    0.0000 N.3     1  LIG1       -0.1555
      3 C          -0.4000   -0.8290    0.0000 C.3     1  LIG1        0.0963
      4 C           0.1080   -1.6830    0.0000 C.3     1  LIG1        0.0283
      5 C          -0.3750   -2.5460    0.0000 C.3     1  LIG1        0.0811
      6 C           0.1250   -3.4040    0.0000 C.2     1  LIG1        0.2412
      7 N           1.1250   -3.4040    0.0000 N.am    1  LIG1       -0.2027
      8 C           1.6380   -4.2500    0.0000 C.3     1  LIG1        0.1175
      9 C           2.6420   -4.2500    0.0000 C.ar    1  LIG1       -0.0026
     10 C           3.1250   -3.4040    0.0000 C.ar    1  LIG1       -0.0026
     11 C           4.1380   -3.4040    0.0000 C.ar    1  LIG1       -0.0003
     12 C           4.6460   -4.2500    0.0000 C.ar    1  LIG1       -0.0000
     13 C           4.1380   -5.1460    0.0000 C.ar    1  LIG1       -0.0003
     14 C           3.1250   -5.1460    0.0000 C.ar    1  LIG1       -0.0026
     15 C           1.1250   -5.1460    0.0000 C.3     1  LIG1        0.0283
     16 O          -0.3540   -4.2750    0.0000 O.2     1  LIG1       -0.2733
     17 C          -1.3710   -2.5630    0.0000 C.3     1  LIG1        0.0283
     18 C          -1.8830   -1.7040    0.0000 C.3     1  LIG1        0.0963
     19 C          -2.4000    0.8880    0.0000 C.ar    1  LIG1        0.1253
     20 C          -1.9080    1.7580    0.0000 C.ar    1  LIG1        0.0590
     21 C          -2.4000    2.6210    0.0000 C.ar    1  LIG1        0.1673
     22 O          -2.0880    3.5670    0.0000 O.2     1  LIG1       -0.4067
     23 C          -2.8960    4.1580    0.0000 C.ar    1  LIG1        0.4220
     24 N          -3.7040    3.5750    0.0000 N.ar    1  LIG1       -0.2601
     25 C          -3.3960    2.6210    0.0000 C.ar    1  LIG1        0.1001
     26 C          -3.9040    1.7540    0.0000 C.ar    1  LIG1        0.0218
     27 C          -3.4040    0.8880    0.0000 C.ar    1  LIG1        0.0216
     28 C          -4.6500    3.8880    0.0000 C.3     1  LIG1        0.1369
     29 O          -2.8880    5.1460    0.0000 O.2     1  LIG1       -0.2226
     30 O          -1.0170    0.5290    0.0000 O.2     1  LIG1       -0.1528
     31 O          -2.7580   -0.4880    0.0000 O.2     1  LIG1       -0.1528
@<TRIPOS>BOND
     1     1     2    1
     2     1    19    1
     3     1    30    2
     4     1    31    2
     5     2     3    1
     6     2    18    1
     7     3     4    1
     8     4     5    1
     9     5     6    1
    10     5    17    1
    11     6     7   am
    12     6    16    2
    13     7     8    1
    14     8     9    1
    15     8    15    1
    16     9    10   ar
    17     9    14   ar
    18    10    11   ar
    19    11    12   ar
    20    12    13   ar
    21    13    14   ar
    22    17    18    1
    23    19    20   ar
    24    19    27   ar
    25    20    21   ar
    26    21    22   ar
    27    21    25   ar
    28    22    23   ar
    29    23    24   ar
    30    23    29    2
    31    24    25   ar
    32    24    28    1
    33    25    26   ar
    34    26    27   ar
