@<TRIPOS>MOLECULE
37313_ChemDiv_C466-0363
 22 25 0 0 0
SMALL
GASTEIGER
Energy = 0

@<TRIPOS>ATOM
      1 N           1.7960   -0.2130    0.0000 N.am    1  LIG1       -0.1865
      2 C           0.8830    0.1790    0.0000 C.3     1  LIG1        0.2006
      3 N           0.9920    1.1830    0.0000 N.4     1  LIG1        0.3934
      4 C           1.9790    1.3960    0.0000 C.3     1  LIG1        0.1675
      5 C           2.4790    0.5170    0.0000 C.2     1  LIG1        0.2863
      6 O           3.4670    0.4080    0.0000 O.2     1  LIG1       -0.2681
      7 C           2.0880    2.3920    0.0000 C.3     1  LIG1        0.0727
      8 C           1.1750    2.8040    0.0000 C.3     1  LIG1        0.0693
      9 C           0.5040    2.0540    0.0000 C.3     1  LIG1        0.1417
     10 C           0.0170   -0.3130    0.0000 C.ar    1  LIG1        0.0527
     11 C          -0.8380    0.1880    0.0000 C.ar    1  LIG1        0.0400
     12 C          -1.7080   -0.3170    0.0000 C.ar    1  LIG1        0.1387
     13 O          -2.5880    0.1750    0.0000 O.3     1  LIG1       -0.4714
     14 C          -3.4710   -0.3420    0.0000 C.3     1  LIG1        0.2525
     15 C          -1.7080   -1.3080    0.0000 C.ar    1  LIG1        0.0369
     16 C          -0.8250   -1.7960    0.0000 C.ar    1  LIG1        0.0030
     17 C           0.0290   -1.2960    0.0000 C.ar    1  LIG1        0.0033
     18 C           2.0040   -1.1880    0.0000 C.ar    1  LIG1        0.1733
     19 N           2.9130   -1.6080    0.0000 N.ar    1  LIG1       -0.2220
     20 C           2.8040   -2.5920    0.0000 C.ar    1  LIG1        0.1079
     21 C           1.8380   -2.8000    0.0000 C.ar    1  LIG1        0.0588
     22 S           1.3380   -1.9330    0.0000 S.2     1  LIG1       -0.0504
@<TRIPOS>BOND
     1     1     2    1
     2     1     5   am
     3     1    18    1
     4     2     3    1
     5     2    10    1
     6     3     4    1
     7     3     9    1
     8     4     5    1
     9     4     7    1
    10     5     6    2
    11     7     8    1
    12     8     9    1
    13    10    11   ar
    14    10    17   ar
    15    11    12   ar
    16    12    13    1
    17    12    15   ar
    18    13    14    1
    19    15    16   ar
    20    16    17   ar
    21    18    19   ar
    22    18    22   ar
    23    19    20   ar
    24    20    21   ar
    25    21    22   ar
