@<TRIPOS>MOLECULE
37317_ChemDiv_C466-0367
 22 25 0 0 0
SMALL
GASTEIGER
Energy = 0

@<TRIPOS>ATOM
      1 N           1.3540   -0.2040    0.0000 N.am    1  LIG1       -0.1865
      2 C           0.4420    0.1880    0.0000 C.3     1  LIG1        0.2006
      3 N           0.5460    1.1960    0.0000 N.4     1  LIG1        0.3934
      4 C           1.5380    1.4040    0.0000 C.3     1  LIG1        0.1675
      5 C           2.0330    0.5250    0.0000 C.2     1  LIG1        0.2863
      6 O           3.0250    0.4210    0.0000 O.2     1  LIG1       -0.2681
      7 C           1.6420    2.4000    0.0000 C.3     1  LIG1        0.0727
      8 C           0.7290    2.8130    0.0000 C.3     1  LIG1        0.0693
      9 C           0.0580    2.0630    0.0000 C.3     1  LIG1        0.1417
     10 C          -0.4290   -0.3040    0.0000 C.ar    1  LIG1        0.0505
     11 C          -0.4290   -1.3000    0.0000 C.ar    1  LIG1        0.0153
     12 C          -1.3130   -1.8170    0.0000 C.ar    1  LIG1        0.0681
     13 C          -2.1790   -1.3000    0.0000 C.ar    1  LIG1        0.0682
     14 C          -2.1710   -0.3040    0.0000 C.ar    1  LIG1        0.0122
     15 C          -1.2960    0.1880    0.0000 C.ar    1  LIG1        0.0040
     16 CL         -3.0290   -1.8040    0.0000 Cl      1  LIG1       -0.0814
     17 CL         -1.3130   -2.8080    0.0000 Cl      1  LIG1       -0.0814
     18 C           1.5630   -1.1790    0.0000 C.ar    1  LIG1        0.1733
     19 N           2.4670   -1.6000    0.0000 N.ar    1  LIG1       -0.2220
     20 C           2.3580   -2.5790    0.0000 C.ar    1  LIG1        0.1079
     21 C           1.3920   -2.7880    0.0000 C.ar    1  LIG1        0.0588
     22 S           0.8920   -1.9250    0.0000 S.2     1  LIG1       -0.0504
@<TRIPOS>BOND
     1     1     2    1
     2     1     5   am
     3     1    18    1
     4     2     3    1
     5     2    10    1
     6     3     4    1
     7     3     9    1
     8     4     5    1
     9     4     7    1
    10     5     6    2
    11     7     8    1
    12     8     9    1
    13    10    11   ar
    14    10    15   ar
    15    11    12   ar
    16    12    13   ar
    17    12    17    1
    18    13    14   ar
    19    13    16    1
    20    14    15   ar
    21    18    19   ar
    22    18    22   ar
    23    19    20   ar
    24    20    21   ar
    25    21    22   ar
