@<TRIPOS>MOLECULE
37326_ChemDiv_C602-0001
 31 35 0 0 0
SMALL
GASTEIGER
Energy = 0

@<TRIPOS>ATOM
      1 C          -2.8500    0.2630    0.0000 C.ar    1  LIG1        0.2204
      2 N          -2.2750    1.0960    0.0000 N.pl3   1  LIG1       -0.1579
      3 S          -1.2630    1.0960    0.0000 S.O2    1  LIG1        0.0789
      4 C          -0.2630    1.0960    0.0000 C.ar    1  LIG1        0.1286
      5 C           0.2500    0.2380    0.0000 C.ar    1  LIG1        0.0593
      6 C           1.2420    0.2380    0.0000 C.ar    1  LIG1        0.1674
      7 O           1.9000   -0.5080    0.0000 O.2     1  LIG1       -0.4067
      8 C           2.8170   -0.1040    0.0000 C.ar    1  LIG1        0.4224
      9 N           2.7130    0.8830    0.0000 N.ar    1  LIG1       -0.2509
     10 C           1.7420    1.0920    0.0000 C.ar    1  LIG1        0.1006
     11 C           1.2420    1.9630    0.0000 C.ar    1  LIG1        0.0219
     12 C           0.2420    1.9630    0.0000 C.ar    1  LIG1        0.0219
     13 C           3.4500    1.5460    0.0000 C.3     1  LIG1        0.2214
     14 C           4.3920    1.2380    0.0000 C.2     1  LIG1        0.3405
     15 O           5.1330    1.9000    0.0000 O.2     1  LIG1       -0.2479
     16 O           4.5960    0.2670    0.0000 O.3     1  LIG1       -0.4472
     17 C           5.5460   -0.0380    0.0000 C.3     1  LIG1        0.2086
     18 C           5.7540   -1.0080    0.0000 C.3     1  LIG1        0.0513
     19 O           3.6710   -0.6040    0.0000 O.2     1  LIG1       -0.2226
     20 O          -1.2670    2.0960    0.0000 O.2     1  LIG1       -0.1496
     21 O          -1.2630    0.0830    0.0000 O.2     1  LIG1       -0.1496
     22 C          -2.8250    1.9000    0.0000 C.3     1  LIG1        0.1434
     23 C          -3.7880    1.5790    0.0000 C.3     1  LIG1        0.1322
     24 N          -3.7880    0.5710    0.0000 N.ar    1  LIG1       -0.2966
     25 C          -4.3750   -0.2500    0.0000 C.ar    1  LIG1        0.0800
     26 C          -3.7540   -1.0670    0.0000 C.ar    1  LIG1        0.1000
     27 N          -2.8130   -0.7380    0.0000 N.ar    1  LIG1       -0.2124
     28 C          -4.1580   -1.9960    0.0000 C.ar    1  LIG1        0.0207
     29 C          -5.1710   -2.0920    0.0000 C.ar    1  LIG1        0.0016
     30 C          -5.7580   -1.3080    0.0000 C.ar    1  LIG1        0.0016
     31 C          -5.3750   -0.3710    0.0000 C.ar    1  LIG1        0.0188
@<TRIPOS>BOND
     1     1     2    1
     2     1    24   ar
     3     1    27   ar
     4     2     3    1
     5     2    22    1
     6     3     4    1
     7     3    20    2
     8     3    21    2
     9     4     5   ar
    10     4    12   ar
    11     5     6   ar
    12     6     7   ar
    13     6    10   ar
    14     7     8   ar
    15     8     9   ar
    16     8    19    2
    17     9    10   ar
    18     9    13    1
    19    10    11   ar
    20    11    12   ar
    21    13    14    1
    22    14    15    2
    23    14    16    1
    24    16    17    1
    25    17    18    1
    26    22    23    1
    27    23    24    1
    28    24    25   ar
    29    25    26   ar
    30    25    31   ar
    31    26    27   ar
    32    26    28   ar
    33    28    29   ar
    34    29    30   ar
    35    30    31   ar
