@<TRIPOS>MOLECULE
37325_ChemDiv_C470-0022
 35 39 0 0 0
SMALL
GASTEIGER
Energy = 0

@<TRIPOS>ATOM
      1 C          -2.4750    1.2750    0.0000 C.ar    1  LIG1        0.1692
      2 C          -2.4790    2.2750    0.0000 C.ar    1  LIG1        0.1524
      3 C          -3.3420    2.7880    0.0000 C.ar    1  LIG1        0.2832
      4 N          -4.2040    2.2750    0.0000 N.ar    1  LIG1       -0.2454
      5 C          -4.2040    1.2710    0.0000 C.ar    1  LIG1        0.3350
      6 N          -3.3420    0.7750    0.0000 N.ar    1  LIG1       -0.2628
      7 C          -3.3420   -0.2250    0.0000 C.3     1  LIG1        0.1366
      8 O          -5.0750    0.7710    0.0000 O.2     1  LIG1       -0.2461
      9 C          -5.0750    2.7750    0.0000 C.3     1  LIG1        0.1383
     10 O          -3.3420    3.7830    0.0000 O.2     1  LIG1       -0.2652
     11 N          -1.5330    2.5920    0.0000 N.ar    1  LIG1       -0.3088
     12 C          -0.9420    1.7880    0.0000 C.ar    1  LIG1        0.1385
     13 N          -1.5250    0.9710    0.0000 N.ar    1  LIG1       -0.2121
     14 C           0.0630    1.7920    0.0000 C.3     1  LIG1        0.1374
     15 N           0.5630    0.9380    0.0000 N.3     1  LIG1       -0.2562
     16 C           0.0630    0.0580    0.0000 C.3     1  LIG1        0.1362
     17 C           0.5630   -0.8080    0.0000 C.3     1  LIG1        0.1569
     18 N           1.5750   -0.7920    0.0000 N.4     1  LIG1        0.3814
     19 C           2.0750   -1.6670    0.0000 C.3     1  LIG1        0.1331
     20 C           1.5790   -2.5380    0.0000 C.ar    1  LIG1        0.0328
     21 C           0.5790   -2.5380    0.0000 C.ar    1  LIG1        0.0016
     22 C           0.0830   -3.4040    0.0000 C.ar    1  LIG1       -0.0001
     23 C           0.5920   -4.2670    0.0000 C.ar    1  LIG1       -0.0000
     24 C           1.5880   -4.2630    0.0000 C.ar    1  LIG1       -0.0001
     25 C           2.0790   -3.3960    0.0000 C.ar    1  LIG1        0.0016
     26 C           3.0830   -1.6670    0.0000 C.ar    1  LIG1        0.0328
     27 C           3.5830   -2.5380    0.0000 C.ar    1  LIG1        0.0016
     28 C           4.5790   -2.5210    0.0000 C.ar    1  LIG1       -0.0001
     29 C           5.0710   -1.6580    0.0000 C.ar    1  LIG1       -0.0000
     30 C           4.5630   -0.7920    0.0000 C.ar    1  LIG1       -0.0001
     31 C           3.5670   -0.8040    0.0000 C.ar    1  LIG1        0.0016
     32 C           2.0670    0.0750    0.0000 C.3     1  LIG1        0.1569
     33 C           1.5630    0.9380    0.0000 C.3     1  LIG1        0.1362
     34 C          -1.2290    3.5500    0.0000 C.3     1  LIG1        0.1075
     35 C          -1.9000    4.2670    0.0000 C.3     1  LIG1        0.0265
@<TRIPOS>BOND
     1     1     2   ar
     2     1     6   ar
     3     1    13   ar
     4     2     3   ar
     5     2    11   ar
     6     3     4   ar
     7     3    10    2
     8     4     5   ar
     9     4     9    1
    10     5     6   ar
    11     5     8    2
    12     6     7    1
    13    11    12   ar
    14    11    34    1
    15    12    13   ar
    16    12    14    1
    17    14    15    1
    18    15    16    1
    19    15    33    1
    20    16    17    1
    21    17    18    1
    22    18    19    1
    23    18    32    1
    24    19    20    1
    25    19    26    1
    26    20    21   ar
    27    20    25   ar
    28    21    22   ar
    29    22    23   ar
    30    23    24   ar
    31    24    25   ar
    32    26    27   ar
    33    26    31   ar
    34    27    28   ar
    35    28    29   ar
    36    29    30   ar
    37    30    31   ar
    38    32    33    1
    39    34    35    1
