@<TRIPOS>MOLECULE
37322_ChemDiv_C594-0128
 32 36 0 0 0
SMALL
GASTEIGER
Energy = 0

@<TRIPOS>ATOM
      1 N           1.5170   -0.2250    0.0000 N.ar    1  LIG1       -0.1777
      2 C           1.0170    0.6420    0.0000 C.ar    1  LIG1        0.1694
      3 C           1.6920    1.3880    0.0000 C.ar    1  LIG1        0.0724
      4 C           2.5960    0.9750    0.0000 C.ar    1  LIG1        0.1924
      5 N           2.4960   -0.0130    0.0000 N.ar    1  LIG1       -0.1429
      6 N           3.4750    1.4750    0.0000 N.pl3   1  LIG1       -0.1053
      7 C           1.3880    2.3290    0.0000 C.ar    1  LIG1        0.0075
      8 C           0.4170    2.5460    0.0000 C.ar    1  LIG1        0.0181
      9 C          -0.2630    1.7960    0.0000 C.ar    1  LIG1        0.0860
     10 N           0.0500    0.8500    0.0000 N.ar    1  LIG1       -0.2263
     11 C          -1.2290    2.0040    0.0000 C.ar    1  LIG1        0.0560
     12 C          -1.5420    2.9500    0.0000 C.ar    1  LIG1        0.1402
     13 C          -0.8580    3.7040    0.0000 C.ar    1  LIG1        0.0370
     14 C           0.1170    3.4880    0.0000 C.ar    1  LIG1        0.0046
     15 O          -2.5290    3.1330    0.0000 O.3     1  LIG1       -0.4714
     16 C          -3.1750    2.3790    0.0000 C.3     1  LIG1        0.2525
     17 C           1.0170   -1.0920    0.0000 C.2     1  LIG1        0.2747
     18 C           0.0210   -1.0920    0.0000 C.3     1  LIG1        0.1643
     19 N          -0.4790   -1.9580    0.0000 N.3     1  LIG1       -0.1469
     20 S           0.0290   -2.8290    0.0000 S.O2    1  LIG1        0.0464
     21 O           0.9000   -2.3170    0.0000 O.2     1  LIG1       -0.1572
     22 O          -0.8420   -3.3380    0.0000 O.2     1  LIG1       -0.1572
     23 C           0.5380   -3.7000    0.0000 C.3     1  LIG1        0.1960
     24 C          -1.4790   -1.9580    0.0000 C.3     1  LIG1        0.1219
     25 C          -1.9790   -1.0920    0.0000 C.ar    1  LIG1       -0.0084
     26 C          -1.4790   -0.2290    0.0000 C.ar    1  LIG1       -0.0229
     27 C          -0.4790   -0.2290    0.0000 C.3     1  LIG1        0.0534
     28 C          -1.9790    0.6380    0.0000 C.ar    1  LIG1       -0.0045
     29 C          -2.9830    0.6380    0.0000 C.ar    1  LIG1       -0.0003
     30 C          -3.4790   -0.2290    0.0000 C.ar    1  LIG1       -0.0003
     31 C          -2.9830   -1.0920    0.0000 C.ar    1  LIG1       -0.0032
     32 O           1.5170   -1.9500    0.0000 O.2     1  LIG1       -0.2686
@<TRIPOS>BOND
     1     1     2   ar
     2     1     5   ar
     3     1    17   am
     4     2     3   ar
     5     2    10   ar
     6     3     4   ar
     7     3     7   ar
     8     4     5   ar
     9     4     6    1
    10     7     8   ar
    11     8     9   ar
    12     8    14   ar
    13     9    10   ar
    14     9    11   ar
    15    11    12   ar
    16    12    13   ar
    17    12    15    1
    18    13    14   ar
    19    15    16    1
    20    17    18    1
    21    17    32    2
    22    18    19    1
    23    18    27    1
    24    19    20    1
    25    19    24    1
    26    20    21    2
    27    20    22    2
    28    20    23    1
    29    24    25    1
    30    25    26   ar
    31    25    31   ar
    32    26    27    1
    33    26    28   ar
    34    28    29   ar
    35    29    30   ar
    36    30    31   ar
