@<TRIPOS>MOLECULE
37328_ChemDiv_C604-0323
 36 40 0 0 0
SMALL
GASTEIGER
Energy = 0

@<TRIPOS>ATOM
      1 C          -2.3500   -0.4540    0.0000 C.ar    1  LIG1        0.1033
      2 C          -2.3580   -1.4500    0.0000 C.ar    1  LIG1        0.0944
      3 N          -1.4880   -1.9500    0.0000 N.ar    1  LIG1       -0.2218
      4 C          -0.6170   -1.4500    0.0000 C.ar    1  LIG1        0.1739
      5 N          -0.6170   -0.4540    0.0000 N.ar    1  LIG1       -0.2747
      6 C          -1.4880    0.0460    0.0000 C.ar    1  LIG1        0.2698
      7 O          -1.4880    1.0540    0.0000 O.2     1  LIG1       -0.2663
      8 C           0.2460    0.0540    0.0000 C.3     1  LIG1        0.1206
      9 C           0.2460    1.0540    0.0000 C.3     1  LIG1        0.1114
     10 C           1.1080    1.5500    0.0000 C.2     1  LIG1        0.2434
     11 N           1.9710    1.0540    0.0000 N.am    1  LIG1       -0.2028
     12 C           2.8330    1.5670    0.0000 C.3     1  LIG1        0.1445
     13 C           2.8330    2.5630    0.0000 C.3     1  LIG1        0.1369
     14 O           3.6380    3.1420    0.0000 O.3     1  LIG1       -0.3544
     15 C           3.3250    4.0830    0.0000 C.3     1  LIG1        0.1422
     16 C           2.3290    4.0830    0.0000 C.3     1  LIG1        0.0346
     17 C           2.0210    3.1380    0.0000 C.3     1  LIG1        0.0340
     18 O           1.1080    2.5500    0.0000 O.2     1  LIG1       -0.2733
     19 S           0.2460   -1.9580    0.0000 S.3     1  LIG1       -0.0674
     20 C           1.1210   -1.4670    0.0000 C.3     1  LIG1        0.1519
     21 C           1.9830   -1.9670    0.0000 C.2     1  LIG1        0.2584
     22 N           2.8460   -1.4670    0.0000 N.am    1  LIG1       -0.1578
     23 C           3.7130   -1.9750    0.0000 C.ar    1  LIG1        0.1771
     24 C           3.8170   -2.9630    0.0000 C.ar    1  LIG1        0.0545
     25 C           4.7920   -3.1750    0.0000 C.ar    1  LIG1        0.0838
     26 N           5.2920   -2.3080    0.0000 N.ar    1  LIG1       -0.1510
     27 N           4.6210   -1.5670    0.0000 N.ar    1  LIG1       -0.1313
     28 C           5.2000   -4.0830    0.0000 C.3     1  LIG1        0.0541
     29 O           1.9710   -2.9630    0.0000 O.2     1  LIG1       -0.2720
     30 C          -3.2960   -1.7710    0.0000 C.ar    1  LIG1        0.0244
     31 C          -3.8830   -0.9580    0.0000 C.ar    1  LIG1        0.0311
     32 S          -3.3000   -0.1420    0.0000 S.2     1  LIG1       -0.0807
     33 C          -4.8880   -1.0710    0.0000 C.ar    1  LIG1        0.0065
     34 C          -5.2960   -1.9880    0.0000 C.ar    1  LIG1        0.0005
     35 C          -4.7080   -2.7960    0.0000 C.ar    1  LIG1        0.0001
     36 C          -3.7000   -2.6920    0.0000 C.ar    1  LIG1        0.0020
@<TRIPOS>BOND
     1     1     2   ar
     2     1     6   ar
     3     1    32   ar
     4     2     3   ar
     5     2    30   ar
     6     3     4   ar
     7     4     5   ar
     8     4    19    1
     9     5     6   ar
    10     5     8    1
    11     6     7    2
    12     8     9    1
    13     9    10    1
    14    10    11   am
    15    10    18    2
    16    11    12    1
    17    12    13    1
    18    13    14    1
    19    13    17    1
    20    14    15    1
    21    15    16    1
    22    16    17    1
    23    19    20    1
    24    20    21    1
    25    21    22   am
    26    21    29    2
    27    22    23    1
    28    23    24   ar
    29    23    27   ar
    30    24    25   ar
    31    25    26   ar
    32    25    28    1
    33    26    27   ar
    34    30    31   ar
    35    30    36   ar
    36    31    32   ar
    37    31    33   ar
    38    33    34   ar
    39    34    35   ar
    40    35    36   ar
