@<TRIPOS>MOLECULE
37320_ChemDiv_C594-0123
 33 38 0 0 0
SMALL
GASTEIGER
Energy = 0

@<TRIPOS>ATOM
      1 N          -0.2580   -0.7710    0.0000 N.ar    1  LIG1       -0.1753
      2 C           0.5000   -1.4210    0.0000 C.ar    1  LIG1        0.1697
      3 C           0.1130   -2.3380    0.0000 C.ar    1  LIG1        0.0725
      4 C          -0.8710   -2.2710    0.0000 C.ar    1  LIG1        0.1925
      5 N          -1.1080   -1.2960    0.0000 N.ar    1  LIG1       -0.1427
      6 N          -1.5040   -3.0460    0.0000 N.pl3   1  LIG1       -0.1053
      7 C           0.7250   -3.1380    0.0000 C.ar    1  LIG1        0.0075
      8 C           1.7170   -3.0080    0.0000 C.ar    1  LIG1        0.0181
      9 C           2.1000   -2.0790    0.0000 C.ar    1  LIG1        0.0860
     10 N           1.4920   -1.2880    0.0000 N.ar    1  LIG1       -0.2263
     11 C           3.0960   -1.9460    0.0000 C.ar    1  LIG1        0.0560
     12 C           3.7040   -2.7380    0.0000 C.ar    1  LIG1        0.1402
     13 C           3.3130   -3.6710    0.0000 C.ar    1  LIG1        0.0370
     14 C           2.3250   -3.8040    0.0000 C.ar    1  LIG1        0.0046
     15 O           4.7040   -2.6000    0.0000 O.3     1  LIG1       -0.4714
     16 C           5.0880   -1.6750    0.0000 C.3     1  LIG1        0.2525
     17 C          -0.0750    0.2040    0.0000 C.2     1  LIG1        0.2817
     18 C          -0.8380    0.8540    0.0000 C.ar    1  LIG1        0.0609
     19 C          -1.7710    0.5130    0.0000 C.ar    1  LIG1        0.0244
     20 C          -2.5460    1.1630    0.0000 C.ar    1  LIG1        0.0874
     21 N          -2.3710    2.1460    0.0000 N.ar    1  LIG1       -0.2448
     22 C          -1.4290    2.4830    0.0000 C.ar    1  LIG1        0.0814
     23 C          -0.6670    1.8380    0.0000 C.ar    1  LIG1        0.0223
     24 C           0.2710    2.1790    0.0000 C.ar    1  LIG1        0.0016
     25 C           0.4500    3.1580    0.0000 C.ar    1  LIG1        0.0001
     26 C          -0.3210    3.8080    0.0000 C.ar    1  LIG1        0.0015
     27 C          -1.2580    3.4670    0.0000 C.ar    1  LIG1        0.0191
     28 C          -3.4750    0.8250    0.0000 C.ar    1  LIG1        0.0471
     29 S          -4.3290    1.3500    0.0000 S.2     1  LIG1       -0.0849
     30 C          -5.0920    0.7000    0.0000 C.ar    1  LIG1        0.0355
     31 C          -4.7080   -0.2250    0.0000 C.ar    1  LIG1        0.0075
     32 C          -3.7130   -0.1500    0.0000 C.ar    1  LIG1        0.0085
     33 O           0.8670    0.5380    0.0000 O.2     1  LIG1       -0.2651
@<TRIPOS>BOND
     1     1     2   ar
     2     1     5   ar
     3     1    17   am
     4     2     3   ar
     5     2    10   ar
     6     3     4   ar
     7     3     7   ar
     8     4     5   ar
     9     4     6    1
    10     7     8   ar
    11     8     9   ar
    12     8    14   ar
    13     9    10   ar
    14     9    11   ar
    15    11    12   ar
    16    12    13   ar
    17    12    15    1
    18    13    14   ar
    19    15    16    1
    20    17    18    1
    21    17    33    2
    22    18    19   ar
    23    18    23   ar
    24    19    20   ar
    25    20    21   ar
    26    20    28    1
    27    21    22   ar
    28    22    23   ar
    29    22    27   ar
    30    23    24   ar
    31    24    25   ar
    32    25    26   ar
    33    26    27   ar
    34    28    29   ar
    35    28    32   ar
    36    29    30   ar
    37    30    31   ar
    38    31    32   ar
