@<TRIPOS>MOLECULE
37321_ChemDiv_C466-0502
 23 26 0 0 0
SMALL
GASTEIGER
Energy = 0

@<TRIPOS>ATOM
      1 N           1.7540    0.0080    0.0000 N.am    1  LIG1       -0.1891
      2 C           1.9540   -0.9580    0.0000 C.ar    1  LIG1        0.1836
      3 N           1.2960   -1.7040    0.0000 N.ar    1  LIG1       -0.0617
      4 O           1.7880   -2.5710    0.0000 O.2     1  LIG1       -0.3565
      5 C           2.7580   -2.3710    0.0000 C.ar    1  LIG1        0.1562
      6 C           2.8670   -1.3790    0.0000 C.ar    1  LIG1        0.0738
      7 C           3.4960   -3.0290    0.0000 C.3     1  LIG1        0.0754
      8 C           2.4290    0.7460    0.0000 C.2     1  LIG1        0.2860
      9 C           1.9250    1.6290    0.0000 C.3     1  LIG1        0.1675
     10 N           0.9380    1.4170    0.0000 N.4     1  LIG1        0.3934
     11 C           0.8290    0.4130    0.0000 C.3     1  LIG1        0.2002
     12 C          -0.0420   -0.0830    0.0000 C.ar    1  LIG1        0.0496
     13 C          -0.0420   -1.0790    0.0000 C.ar    1  LIG1        0.0028
     14 C          -0.9130   -1.5830    0.0000 C.ar    1  LIG1       -0.0043
     15 C          -1.7790   -1.0790    0.0000 C.ar    1  LIG1       -0.0222
     16 C          -1.7790   -0.0830    0.0000 C.ar    1  LIG1       -0.0043
     17 C          -0.9250    0.4130    0.0000 C.ar    1  LIG1        0.0028
     18 C          -2.6380   -1.5920    0.0000 C.3     1  LIG1        0.0264
     19 C          -3.5000   -1.0960    0.0000 C.3     1  LIG1        0.0050
     20 C           0.4460    2.2880    0.0000 C.3     1  LIG1        0.1417
     21 C           1.1210    3.0330    0.0000 C.3     1  LIG1        0.0693
     22 C           2.0290    2.6210    0.0000 C.3     1  LIG1        0.0727
     23 O           3.4210    0.6380    0.0000 O.2     1  LIG1       -0.2682
@<TRIPOS>BOND
     1     1     2    1
     2     1     8   am
     3     1    11    1
     4     2     3   ar
     5     2     6   ar
     6     3     4   ar
     7     4     5   ar
     8     5     6   ar
     9     5     7    1
    10     8     9    1
    11     8    23    2
    12     9    10    1
    13     9    22    1
    14    10    11    1
    15    10    20    1
    16    11    12    1
    17    12    13   ar
    18    12    17   ar
    19    13    14   ar
    20    14    15   ar
    21    15    16   ar
    22    15    18    1
    23    16    17   ar
    24    18    19    1
    25    20    21    1
    26    21    22    1
