@<TRIPOS>MOLECULE
37334_ChemDiv_C540-0106
 27 30 0 0 0
SMALL
GASTEIGER
Energy = 0

@<TRIPOS>ATOM
      1 C          -0.0080    0.3710    0.0000 C.ar    1  LIG1        0.4006
      2 N          -0.0080    1.3630    0.0000 N.ar    1  LIG1       -0.2393
      3 C          -0.9630    1.6710    0.0000 C.ar    1  LIG1        0.0586
      4 C          -1.5460    0.8580    0.0000 C.ar    1  LIG1        0.1041
      5 S          -0.9540    0.0540    0.0000 S.2     1  LIG1        0.0131
      6 C          -2.5420    0.8580    0.0000 C.2     1  LIG1        0.2763
      7 N          -3.0380   -0.0210    0.0000 N.am    1  LIG1       -0.1748
      8 C          -2.5290   -0.8830    0.0000 C.ar    1  LIG1        0.0781
      9 C          -3.0290   -1.7420    0.0000 C.ar    1  LIG1        0.0720
     10 C          -4.0290   -1.7420    0.0000 C.2     1  LIG1        0.2854
     11 O          -4.5290   -2.6130    0.0000 O.2     1  LIG1       -0.2666
     12 N          -4.5290   -0.8830    0.0000 N.am    1  LIG1       -0.0837
     13 C          -2.5210   -2.6130    0.0000 C.ar    1  LIG1        0.0059
     14 C          -1.5250   -2.6040    0.0000 C.ar    1  LIG1        0.0002
     15 C          -1.0210   -1.7420    0.0000 C.ar    1  LIG1        0.0013
     16 C          -1.5250   -0.8710    0.0000 C.ar    1  LIG1        0.0168
     17 O          -3.0460    1.7170    0.0000 O.2     1  LIG1       -0.2674
     18 C          -1.2790    2.6170    0.0000 C.3     1  LIG1        0.0513
     19 C           0.9380    1.6880    0.0000 C.ar    1  LIG1        0.1620
     20 C           1.5210    0.8750    0.0000 C.ar    1  LIG1        0.3167
     21 N           0.9380    0.0630    0.0000 N.ar    1  LIG1        0.1046
     22 C           2.5250    0.8880    0.0000 C.ar    1  LIG1        0.0719
     23 C           3.0250    0.0170    0.0000 C.ar    1  LIG1        0.0062
     24 C           4.0250    0.0250    0.0000 C.ar    1  LIG1        0.0002
     25 C           4.5250    0.8960    0.0000 C.ar    1  LIG1        0.0000
     26 C           4.0170    1.7670    0.0000 C.ar    1  LIG1        0.0002
     27 C           3.0130    1.7460    0.0000 C.ar    1  LIG1        0.0062
@<TRIPOS>BOND
     1     1     2   ar
     2     1     5   ar
     3     1    21   ar
     4     2     3   ar
     5     2    19   ar
     6     3     4   ar
     7     3    18    1
     8     4     5   ar
     9     4     6    1
    10     6     7   am
    11     6    17    2
    12     7     8    1
    13     8     9   ar
    14     8    16   ar
    15     9    10    1
    16     9    13   ar
    17    10    11    2
    18    10    12   am
    19    13    14   ar
    20    14    15   ar
    21    15    16   ar
    22    19    20   ar
    23    20    21   ar
    24    20    22    1
    25    22    23   ar
    26    22    27   ar
    27    23    24   ar
    28    24    25   ar
    29    25    26   ar
    30    26    27   ar
