@<TRIPOS>MOLECULE
37333_ChemDiv_K906-1608
 24 26 0 0 0
SMALL
GASTEIGER
Energy = 0

@<TRIPOS>ATOM
      1 S           1.0080    0.9500    0.0000 S.O2    1  LIG1        0.0634
      2 N           1.8710    1.4580    0.0000 N.3     1  LIG1       -0.1555
      3 C           1.8710    2.4580    0.0000 C.3     1  LIG1        0.0958
      4 C           2.7420    2.9670    0.0000 C.3     1  LIG1        0.0192
      5 C           3.6210    2.4630    0.0000 C.3     1  LIG1        0.0029
      6 C           3.6130    1.4580    0.0000 C.3     1  LIG1        0.0192
      7 C           2.7500    0.9540    0.0000 C.3     1  LIG1        0.0958
      8 C           4.4830    2.9630    0.0000 C.3     1  LIG1        0.0001
      9 C           0.1380    0.4380    0.0000 C.ar    1  LIG1        0.1253
     10 C          -0.7250    0.9380    0.0000 C.ar    1  LIG1        0.0590
     11 C          -1.5880    0.4380    0.0000 C.ar    1  LIG1        0.1674
     12 O          -2.5290    0.7460    0.0000 O.2     1  LIG1       -0.4067
     13 C          -3.1170   -0.0580    0.0000 C.ar    1  LIG1        0.4223
     14 N          -2.5380   -0.8670    0.0000 N.ar    1  LIG1       -0.2567
     15 C          -1.5880   -0.5580    0.0000 C.ar    1  LIG1        0.1004
     16 C          -0.7250   -1.0580    0.0000 C.ar    1  LIG1        0.0218
     17 C           0.1420   -0.5580    0.0000 C.ar    1  LIG1        0.0216
     18 C          -2.8460   -1.8130    0.0000 C.3     1  LIG1        0.1539
     19 C          -3.8170   -2.0210    0.0000 C.2     1  LIG1        0.0734
     20 O          -4.1250   -2.9630    0.0000 O.co2   1  LIG1       -0.5472
     21 O          -4.4880   -1.2830    0.0000 O.co2   1  LIG1       -0.5472
     22 O          -4.1130   -0.0500    0.0000 O.2     1  LIG1       -0.2226
     23 O           0.5000    1.8170    0.0000 O.2     1  LIG1       -0.1528
     24 O           1.5170    0.0750    0.0000 O.2     1  LIG1       -0.1528
@<TRIPOS>BOND
     1     1     2    1
     2     1     9    1
     3     1    23    2
     4     1    24    2
     5     2     3    1
     6     2     7    1
     7     3     4    1
     8     4     5    1
     9     5     6    1
    10     5     8    1
    11     6     7    1
    12     9    10   ar
    13     9    17   ar
    14    10    11   ar
    15    11    12   ar
    16    11    15   ar
    17    12    13   ar
    18    13    14   ar
    19    13    22    2
    20    14    15   ar
    21    14    18    1
    22    15    16   ar
    23    16    17   ar
    24    18    19    1
    25    19    20   ar
    26    19    21   ar
