@<TRIPOS>MOLECULE
37332_ChemDiv_C540-0104
 28 31 0 0 0
SMALL
GASTEIGER
Energy = 0

@<TRIPOS>ATOM
      1 C          -0.0080    1.2330    0.0000 C.ar    1  LIG1        0.4006
      2 N          -0.0130    2.2420    0.0000 N.ar    1  LIG1       -0.2393
      3 C          -0.9630    2.5420    0.0000 C.ar    1  LIG1        0.0586
      4 C          -1.5460    1.7250    0.0000 C.ar    1  LIG1        0.1041
      5 S          -0.9540    0.9250    0.0000 S.2     1  LIG1        0.0131
      6 C          -2.5460    1.7170    0.0000 C.2     1  LIG1        0.2763
      7 N          -3.0330    0.8460    0.0000 N.am    1  LIG1       -0.1749
      8 C          -2.5290   -0.0040    0.0000 C.ar    1  LIG1        0.0750
      9 C          -3.0330   -0.8750    0.0000 C.ar    1  LIG1        0.0332
     10 C          -2.5210   -1.7380    0.0000 C.ar    1  LIG1        0.0747
     11 N          -3.0170   -2.6000    0.0000 N.am    1  LIG1       -0.1792
     12 C          -4.0130   -2.6080    0.0000 C.2     1  LIG1        0.2461
     13 O          -4.5330   -1.7460    0.0000 O.2     1  LIG1       -0.2730
     14 C          -4.5170   -3.4750    0.0000 C.3     1  LIG1        0.0968
     15 C          -1.5170   -1.7380    0.0000 C.ar    1  LIG1        0.0167
     16 C          -1.0210   -0.8750    0.0000 C.ar    1  LIG1        0.0027
     17 C          -1.5170   -0.0040    0.0000 C.ar    1  LIG1        0.0167
     18 O          -3.0500    2.5790    0.0000 O.2     1  LIG1       -0.2674
     19 C          -1.2750    3.4790    0.0000 C.3     1  LIG1        0.0513
     20 C           0.9290    2.5500    0.0000 C.ar    1  LIG1        0.1620
     21 C           1.5250    1.7420    0.0000 C.ar    1  LIG1        0.3167
     22 N           0.9420    0.9250    0.0000 N.ar    1  LIG1        0.1046
     23 C           2.5210    1.7460    0.0000 C.ar    1  LIG1        0.0719
     24 C           3.0250    2.6170    0.0000 C.ar    1  LIG1        0.0062
     25 C           4.0210    2.6250    0.0000 C.ar    1  LIG1        0.0002
     26 C           4.5290    1.7630    0.0000 C.ar    1  LIG1        0.0000
     27 C           4.0290    0.8960    0.0000 C.ar    1  LIG1        0.0002
     28 C           3.0290    0.8790    0.0000 C.ar    1  LIG1        0.0062
@<TRIPOS>BOND
     1     1     2   ar
     2     1     5   ar
     3     1    22   ar
     4     2     3   ar
     5     2    20   ar
     6     3     4   ar
     7     3    19    1
     8     4     5   ar
     9     4     6    1
    10     6     7   am
    11     6    18    2
    12     7     8    1
    13     8     9   ar
    14     8    17   ar
    15     9    10   ar
    16    10    11    1
    17    10    15   ar
    18    11    12   am
    19    12    13    2
    20    12    14    1
    21    15    16   ar
    22    16    17   ar
    23    20    21   ar
    24    21    22   ar
    25    21    23    1
    26    23    24   ar
    27    23    28   ar
    28    24    25   ar
    29    25    26   ar
    30    26    27   ar
    31    27    28   ar
