@<TRIPOS>MOLECULE
37337_ChemDiv_K906-1859
 33 36 0 0 0
SMALL
GASTEIGER
Energy = 0

@<TRIPOS>ATOM
      1 S           0.2130   -2.2830    0.0000 S.O2    1  LIG1        0.0773
      2 N           1.1880   -2.2830    0.0000 N.3     1  LIG1       -0.0699
      3 C           1.6670   -1.4420    0.0000 C.3     1  LIG1        0.1760
      4 C           1.1880   -0.6040    0.0000 C.2     1  LIG1        0.2594
      5 N          -0.7460   -0.1130    0.0000 N.am    1  LIG1       -0.2015
      6 C          -1.2420    0.7420    0.0000 C.3     1  LIG1        0.1172
      7 C          -0.7540    1.5830    0.0000 C.ar    1  LIG1       -0.0065
      8 C          -1.2420    2.4170    0.0000 C.ar    1  LIG1       -0.0245
      9 C          -2.2170    2.4170    0.0000 C.3     1  LIG1        0.0262
     10 C          -2.7040    1.5830    0.0000 C.3     1  LIG1        0.0068
     11 C          -2.2170    0.7380    0.0000 C.3     1  LIG1        0.0265
     12 C          -0.7540    3.2580    0.0000 C.ar    1  LIG1       -0.0045
     13 C           0.2210    3.2580    0.0000 C.ar    1  LIG1       -0.0003
     14 C           0.7000    2.4170    0.0000 C.ar    1  LIG1       -0.0003
     15 C           0.2210    1.5830    0.0000 C.ar    1  LIG1       -0.0029
     16 O           1.6750    0.2380    0.0000 O.2     1  LIG1       -0.2718
     17 C           2.6420   -1.4420    0.0000 C.3     1  LIG1        0.0404
     18 C           3.1290   -2.2790    0.0000 C.3     1  LIG1        0.0596
     19 S           4.1040   -2.2790    0.0000 S.3     1  LIG1       -0.1393
     20 C           4.5920   -3.1170    0.0000 C.3     1  LIG1        0.0692
     21 C          -0.7630   -2.2830    0.0000 C.ar    1  LIG1        0.1267
     22 C          -1.2420   -1.4460    0.0000 C.ar    1  LIG1        0.0591
     23 C          -2.2170   -1.4460    0.0000 C.ar    1  LIG1        0.1673
     24 O          -2.8750   -0.7250    0.0000 O.2     1  LIG1       -0.4067
     25 C          -3.7500   -1.1130    0.0000 C.ar    1  LIG1        0.4220
     26 N          -3.6540   -2.0790    0.0000 N.ar    1  LIG1       -0.2601
     27 C          -2.7040   -2.2830    0.0000 C.ar    1  LIG1        0.1001
     28 C          -2.2170   -3.1250    0.0000 C.ar    1  LIG1        0.0218
     29 C          -1.2420   -3.1250    0.0000 C.ar    1  LIG1        0.0216
     30 C          -4.3790   -2.7250    0.0000 C.3     1  LIG1        0.1369
     31 O          -4.5960   -0.6170    0.0000 O.2     1  LIG1       -0.2226
     32 O           0.2130   -1.3130    0.0000 O.2     1  LIG1       -0.1516
     33 O           0.2130   -3.2540    0.0000 O.2     1  LIG1       -0.1516
@<TRIPOS>BOND
     1     1     2    1
     2     1    21    1
     3     1    32    2
     4     1    33    2
     5     2     3    1
     6     3     4    1
     7     3    17    1
     8     4     5   am
     9     4    16    2
    10     5     6    1
    11     6     7    1
    12     6    11    1
    13     7     8   ar
    14     7    15   ar
    15     8     9    1
    16     8    12   ar
    17     9    10    1
    18    10    11    1
    19    12    13   ar
    20    13    14   ar
    21    14    15   ar
    22    17    18    1
    23    18    19    1
    24    19    20    1
    25    21    22   ar
    26    21    29   ar
    27    22    23   ar
    28    23    24   ar
    29    23    27   ar
    30    24    25   ar
    31    25    26   ar
    32    25    31    2
    33    26    27   ar
    34    26    30    1
    35    27    28   ar
    36    28    29   ar
