@<TRIPOS>MOLECULE
37330_ChemDiv_C540-0088
 27 31 0 0 0
SMALL
GASTEIGER
Energy = 0

@<TRIPOS>ATOM
      1 C          -0.7420    1.1380    0.0000 C.ar    1  LIG1        0.4006
      2 N          -0.7500    2.1460    0.0000 N.ar    1  LIG1       -0.2393
      3 C          -1.7000    2.4460    0.0000 C.ar    1  LIG1        0.0586
      4 C          -2.2830    1.6290    0.0000 C.ar    1  LIG1        0.1041
      5 S          -1.6920    0.8290    0.0000 S.2     1  LIG1        0.0131
      6 C          -3.2790    1.6210    0.0000 C.2     1  LIG1        0.2763
      7 N          -3.7710    0.7540    0.0000 N.am    1  LIG1       -0.1749
      8 C          -3.2630   -0.1040    0.0000 C.ar    1  LIG1        0.0769
      9 C          -3.7670   -0.9630    0.0000 C.ar    1  LIG1        0.0568
     10 C          -3.2540   -1.8420    0.0000 C.ar    1  LIG1        0.1777
     11 C          -2.2540   -1.8290    0.0000 C.ar    1  LIG1        0.1765
     12 O          -1.9330   -2.7790    0.0000 O.3     1  LIG1       -0.4346
     13 C          -2.7420   -3.3790    0.0000 C.3     1  LIG1        0.4294
     14 O          -3.5580   -2.7880    0.0000 O.3     1  LIG1       -0.4346
     15 C          -1.7540   -0.9630    0.0000 C.ar    1  LIG1        0.0415
     16 C          -2.2580   -0.0960    0.0000 C.ar    1  LIG1        0.0199
     17 O          -3.7880    2.4830    0.0000 O.2     1  LIG1       -0.2674
     18 C          -2.0210    3.3830    0.0000 C.3     1  LIG1        0.0513
     19 C           0.1920    2.4540    0.0000 C.ar    1  LIG1        0.1620
     20 C           0.7830    1.6460    0.0000 C.ar    1  LIG1        0.3167
     21 N           0.2000    0.8330    0.0000 N.ar    1  LIG1        0.1046
     22 C           1.7790    1.6460    0.0000 C.ar    1  LIG1        0.0719
     23 C           2.2880    0.7830    0.0000 C.ar    1  LIG1        0.0062
     24 C           3.2830    0.7960    0.0000 C.ar    1  LIG1        0.0002
     25 C           3.7830    1.6670    0.0000 C.ar    1  LIG1        0.0000
     26 C           3.2750    2.5290    0.0000 C.ar    1  LIG1        0.0002
     27 C           2.2790    2.5250    0.0000 C.ar    1  LIG1        0.0062
@<TRIPOS>BOND
     1     1     2   ar
     2     1     5   ar
     3     1    21   ar
     4     2     3   ar
     5     2    19   ar
     6     3     4   ar
     7     3    18    1
     8     4     5   ar
     9     4     6    1
    10     6     7   am
    11     6    17    2
    12     7     8    1
    13     8     9   ar
    14     8    16   ar
    15     9    10   ar
    16    10    11   ar
    17    10    14    1
    18    11    12    1
    19    11    15   ar
    20    12    13    1
    21    13    14    1
    22    15    16   ar
    23    19    20   ar
    24    20    21   ar
    25    20    22    1
    26    22    23   ar
    27    22    27   ar
    28    23    24   ar
    29    24    25   ar
    30    25    26   ar
    31    26    27   ar
