@<TRIPOS>MOLECULE
37331_ChemDiv_G305-0866
 28 31 0 0 0
SMALL
GASTEIGER
Energy = 0

@<TRIPOS>ATOM
      1 S          -2.0290   -0.4000    0.0000 S.O2    1  LIG1        0.0634
      2 N          -1.5290   -1.2670    0.0000 N.3     1  LIG1       -0.1555
      3 C          -2.0290   -2.1290    0.0000 C.3     1  LIG1        0.0963
      4 C          -1.5290   -2.9960    0.0000 C.3     1  LIG1        0.0283
      5 C          -0.5290   -2.9960    0.0000 C.3     1  LIG1        0.0811
      6 C          -0.0330   -3.8670    0.0000 C.2     1  LIG1        0.2414
      7 N           0.9710   -3.8670    0.0000 N.am    1  LIG1       -0.1972
      8 C           1.4750   -2.9960    0.0000 C.3     1  LIG1        0.1791
      9 C           2.4580   -2.9920    0.0000 C.ar    1  LIG1        0.1449
     10 O           3.0540   -2.1580    0.0000 O.2     1  LIG1       -0.4529
     11 C           4.0170   -2.4630    0.0000 C.ar    1  LIG1        0.1792
     12 C           4.0250   -3.4540    0.0000 C.ar    1  LIG1        0.0435
     13 C           3.0670   -3.7710    0.0000 C.ar    1  LIG1        0.0380
     14 O          -0.5290   -4.7330    0.0000 O.2     1  LIG1       -0.2733
     15 C          -0.0330   -2.1290    0.0000 C.3     1  LIG1        0.0283
     16 C          -0.5290   -1.2670    0.0000 C.3     1  LIG1        0.0963
     17 C          -2.5290    0.4710    0.0000 C.ar    1  LIG1        0.1253
     18 C          -2.0290    1.3330    0.0000 C.ar    1  LIG1        0.0591
     19 C          -2.5290    2.2080    0.0000 C.ar    1  LIG1        0.1693
     20 O          -2.2250    3.1460    0.0000 O.2     1  LIG1       -0.4055
     21 C          -3.0330    3.7330    0.0000 C.ar    1  LIG1        0.4408
     22 N          -3.8420    3.1460    0.0000 N.ar    1  LIG1       -0.1713
     23 C          -3.5290    2.2080    0.0000 C.ar    1  LIG1        0.1222
     24 C          -4.0290    1.3330    0.0000 C.ar    1  LIG1        0.0238
     25 C          -3.5290    0.4710    0.0000 C.ar    1  LIG1        0.0217
     26 O          -3.0330    4.7330    0.0000 O.2     1  LIG1       -0.2207
     27 O          -2.9000   -0.9000    0.0000 O.2     1  LIG1       -0.1528
     28 O          -1.1630    0.1000    0.0000 O.2     1  LIG1       -0.1528
@<TRIPOS>BOND
     1     1     2    1
     2     1    17    1
     3     1    27    2
     4     1    28    2
     5     2     3    1
     6     2    16    1
     7     3     4    1
     8     4     5    1
     9     5     6    1
    10     5    15    1
    11     6     7   am
    12     6    14    2
    13     7     8    1
    14     8     9    1
    15     9    10   ar
    16     9    13   ar
    17    10    11   ar
    18    11    12   ar
    19    12    13   ar
    20    15    16    1
    21    17    18   ar
    22    17    25   ar
    23    18    19   ar
    24    19    20   ar
    25    19    23   ar
    26    20    21   ar
    27    21    22   ar
    28    21    26    2
    29    22    23   ar
    30    23    24   ar
    31    24    25   ar
