@<TRIPOS>MOLECULE
37344_ChemDiv_C547-0196
 32 36 0 0 0
SMALL
GASTEIGER
Energy = 0

@<TRIPOS>ATOM
      1 N          -0.6290   -4.1630    0.0000 N.ar    1  LIG1       -0.3272
      2 C          -0.5170   -3.1540    0.0000 C.ar    1  LIG1        0.0600
      3 C          -1.4330   -2.7500    0.0000 C.ar    1  LIG1        0.0185
      4 C          -2.1000   -3.5000    0.0000 C.ar    1  LIG1        0.0172
      5 C          -1.6040   -4.3630    0.0000 C.ar    1  LIG1        0.0599
      6 C          -2.1170   -5.2330    0.0000 C.ar    1  LIG1        0.0172
      7 C          -3.1080   -5.2290    0.0000 C.ar    1  LIG1        0.0015
      8 C          -3.6040   -4.3500    0.0000 C.ar    1  LIG1        0.0001
      9 C          -3.1000   -3.4920    0.0000 C.ar    1  LIG1        0.0015
     10 C          -1.5290   -1.7580    0.0000 C.ar    1  LIG1        0.0181
     11 C          -0.7250   -1.1880    0.0000 C.ar    1  LIG1        0.0736
     12 N          -0.7250   -0.1880    0.0000 N.am    1  LIG1       -0.1761
     13 C           0.1460    0.3130    0.0000 C.2     1  LIG1        0.2901
     14 O           1.0080   -0.1880    0.0000 O.2     1  LIG1       -0.2689
     15 C           0.1460    1.3130    0.0000 C.3     1  LIG1        0.2915
     16 O           1.0080    1.8000    0.0000 O.3     1  LIG1       -0.4653
     17 C           1.0080    2.8000    0.0000 C.ar    1  LIG1        0.1453
     18 C           0.1460    3.3170    0.0000 C.ar    1  LIG1        0.0976
     19 C           0.1460    4.3210    0.0000 C.ar    1  LIG1        0.2641
     20 N           1.0170    4.8080    0.0000 N.ar    1  LIG1       -0.2933
     21 C           1.8710    4.3130    0.0000 C.ar    1  LIG1        0.0654
     22 C           1.8710    3.3080    0.0000 C.ar    1  LIG1        0.0500
     23 C           2.7330    2.8080    0.0000 C.ar    1  LIG1        0.0045
     24 C           3.6000    3.3000    0.0000 C.ar    1  LIG1        0.0002
     25 C           3.6000    4.3040    0.0000 C.ar    1  LIG1        0.0015
     26 C           2.7330    4.8080    0.0000 C.ar    1  LIG1        0.0174
     27 C           1.0170    5.8130    0.0000 C.3     1  LIG1        0.1335
     28 O          -0.7250    4.8210    0.0000 O.2     1  LIG1       -0.2669
     29 C           0.1880   -1.5880    0.0000 C.ar    1  LIG1        0.0181
     30 C           0.2960   -2.5750    0.0000 C.ar    1  LIG1        0.0185
     31 C           0.1130   -4.8290    0.0000 C.3     1  LIG1        0.1061
     32 C          -0.0960   -5.8130    0.0000 C.3     1  LIG1        0.0265
@<TRIPOS>BOND
     1     1     2   ar
     2     1     5   ar
     3     1    31    1
     4     2     3   ar
     5     2    30   ar
     6     3     4   ar
     7     3    10   ar
     8     4     5   ar
     9     4     9   ar
    10     5     6   ar
    11     6     7   ar
    12     7     8   ar
    13     8     9   ar
    14    10    11   ar
    15    11    12    1
    16    11    29   ar
    17    12    13   am
    18    13    14    2
    19    13    15    1
    20    15    16    1
    21    16    17    1
    22    17    18   ar
    23    17    22   ar
    24    18    19   ar
    25    19    20   ar
    26    19    28    2
    27    20    21   ar
    28    20    27    1
    29    21    22   ar
    30    21    26   ar
    31    22    23   ar
    32    23    24   ar
    33    24    25   ar
    34    25    26   ar
    35    29    30   ar
    36    31    32    1
