@<TRIPOS>MOLECULE
37341_ChemDiv_K906-2909
 35 39 0 0 0
SMALL
GASTEIGER
Energy = 0

@<TRIPOS>ATOM
      1 S          -3.6960    0.8380    0.0000 S.O2    1  LIG1        0.0634
      2 C          -2.9210    0.2250    0.0000 C.ar    1  LIG1        0.1253
      3 C          -3.0580   -0.7420    0.0000 C.ar    1  LIG1        0.0590
      4 C          -2.3000   -1.3500    0.0000 C.ar    1  LIG1        0.1674
      5 O          -2.2460   -2.3330    0.0000 O.2     1  LIG1       -0.4067
      6 C          -1.3000   -2.5790    0.0000 C.ar    1  LIG1        0.4224
      7 N          -0.7670   -1.7460    0.0000 N.ar    1  LIG1       -0.2530
      8 C          -1.3920   -1.0000    0.0000 C.ar    1  LIG1        0.1005
      9 C          -1.2380   -0.0170    0.0000 C.ar    1  LIG1        0.0218
     10 C          -2.0130    0.5920    0.0000 C.ar    1  LIG1        0.0216
     11 C           0.1960   -1.7000    0.0000 C.3     1  LIG1        0.1973
     12 C           0.6830   -0.8580    0.0000 C.2     1  LIG1        0.2492
     13 N           1.6420   -0.8580    0.0000 N.am    1  LIG1       -0.2735
     14 C           2.1250   -0.0170    0.0000 C.3     1  LIG1        0.1196
     15 C           3.0960   -0.0250    0.0000 C.2     1  LIG1       -0.0089
     16 C           3.5710   -0.8670    0.0000 C.2     1  LIG1       -0.0231
     17 C           3.0830   -1.7000    0.0000 C.3     1  LIG1        0.0476
     18 C           2.1290   -1.6960    0.0000 C.3     1  LIG1        0.0984
     19 C           4.5710   -0.8670    0.0000 C.ar    1  LIG1       -0.0042
     20 C           5.0710   -1.7420    0.0000 C.ar    1  LIG1       -0.0003
     21 C           6.0710   -1.7460    0.0000 C.ar    1  LIG1       -0.0000
     22 C           6.5710   -0.8750    0.0000 C.ar    1  LIG1       -0.0000
     23 C           6.0710    0.0000    0.0000 C.ar    1  LIG1       -0.0000
     24 C           5.0710    0.0000    0.0000 C.ar    1  LIG1       -0.0003
     25 O           0.1960   -0.0130    0.0000 O.2     1  LIG1       -0.2727
     26 O          -0.9500   -3.4830    0.0000 O.2     1  LIG1       -0.2226
     27 N          -4.5460    1.5000    0.0000 N.3     1  LIG1       -0.1555
     28 C          -5.3960    1.0290    0.0000 C.3     1  LIG1        0.0958
     29 C          -6.3750    1.5000    0.0000 C.3     1  LIG1        0.0191
     30 C          -6.5710    2.6420    0.0000 C.3     1  LIG1        0.0015
     31 C          -5.8170    3.4880    0.0000 C.3     1  LIG1        0.0015
     32 C          -4.7250    3.3880    0.0000 C.3     1  LIG1        0.0191
     33 C          -4.2630    2.5830    0.0000 C.3     1  LIG1        0.0958
     34 O          -3.0880    1.6130    0.0000 O.2     1  LIG1       -0.1528
     35 O          -4.3080    0.0580    0.0000 O.2     1  LIG1       -0.1528
@<TRIPOS>BOND
     1     1     2    1
     2     1    27    1
     3     1    34    2
     4     1    35    2
     5     2     3   ar
     6     2    10   ar
     7     3     4   ar
     8     4     5   ar
     9     4     8   ar
    10     5     6   ar
    11     6     7   ar
    12     6    26    2
    13     7     8   ar
    14     7    11    1
    15     8     9   ar
    16     9    10   ar
    17    11    12    1
    18    12    13   am
    19    12    25    2
    20    13    14    1
    21    13    18    1
    22    14    15    1
    23    15    16    2
    24    16    17    1
    25    16    19    1
    26    17    18    1
    27    19    20   ar
    28    19    24   ar
    29    20    21   ar
    30    21    22   ar
    31    22    23   ar
    32    23    24   ar
    33    27    28    1
    34    27    33    1
    35    28    29    1
    36    29    30    1
    37    30    31    1
    38    31    32    1
    39    32    33    1
