@<TRIPOS>MOLECULE
37347_ChemDiv_C470-0474
 39 43 0 0 0
SMALL
GASTEIGER
Energy = 0

@<TRIPOS>ATOM
      1 C          -2.4790    1.7960    0.0000 C.ar    1  LIG1        0.1528
      2 C          -2.4750    0.7960    0.0000 C.ar    1  LIG1        0.1692
      3 N          -3.3420    0.2960    0.0000 N.ar    1  LIG1       -0.2628
      4 C          -4.2040    0.7920    0.0000 C.ar    1  LIG1        0.3350
      5 N          -4.2040    1.7960    0.0000 N.ar    1  LIG1       -0.2454
      6 C          -3.3420    2.3130    0.0000 C.ar    1  LIG1        0.2832
      7 O          -3.3420    3.3040    0.0000 O.2     1  LIG1       -0.2652
      8 C          -5.0750    2.2960    0.0000 C.3     1  LIG1        0.1383
      9 O          -5.0750    0.2920    0.0000 O.2     1  LIG1       -0.2461
     10 C          -3.3420   -0.7040    0.0000 C.3     1  LIG1        0.1366
     11 N          -1.5250    0.4960    0.0000 N.ar    1  LIG1       -0.2121
     12 C          -0.9420    1.3080    0.0000 C.ar    1  LIG1        0.1389
     13 N          -1.5330    2.1130    0.0000 N.ar    1  LIG1       -0.2986
     14 C          -1.2290    3.0710    0.0000 C.3     1  LIG1        0.2176
     15 C          -1.9040    3.7960    0.0000 C.2     1  LIG1        0.3404
     16 O          -1.6000    4.7460    0.0000 O.2     1  LIG1       -0.2479
     17 O          -2.8830    3.5790    0.0000 O.3     1  LIG1       -0.4472
     18 C          -3.5580    4.3170    0.0000 C.3     1  LIG1        0.2086
     19 C          -4.5290    4.0920    0.0000 C.3     1  LIG1        0.0513
     20 C           0.0580    1.3130    0.0000 C.3     1  LIG1        0.1374
     21 N           0.5630    0.4580    0.0000 N.3     1  LIG1       -0.2562
     22 C           0.0580   -0.4210    0.0000 C.3     1  LIG1        0.1362
     23 C           0.5630   -1.2880    0.0000 C.3     1  LIG1        0.1569
     24 N           1.5750   -1.2710    0.0000 N.4     1  LIG1        0.3814
     25 C           2.0750   -2.1460    0.0000 C.3     1  LIG1        0.1331
     26 C           1.5790   -3.0170    0.0000 C.ar    1  LIG1        0.0328
     27 C           0.5750   -3.0170    0.0000 C.ar    1  LIG1        0.0016
     28 C           0.0880   -3.8830    0.0000 C.ar    1  LIG1       -0.0001
     29 C           0.5920   -4.7460    0.0000 C.ar    1  LIG1       -0.0000
     30 C           1.5880   -4.7420    0.0000 C.ar    1  LIG1       -0.0001
     31 C           2.0790   -3.8750    0.0000 C.ar    1  LIG1        0.0016
     32 C           3.0830   -2.1460    0.0000 C.ar    1  LIG1        0.0328
     33 C           3.5830   -3.0170    0.0000 C.ar    1  LIG1        0.0016
     34 C           4.5790   -3.0000    0.0000 C.ar    1  LIG1       -0.0001
     35 C           5.0710   -2.1380    0.0000 C.ar    1  LIG1       -0.0000
     36 C           4.5630   -1.2710    0.0000 C.ar    1  LIG1       -0.0001
     37 C           3.5670   -1.2790    0.0000 C.ar    1  LIG1        0.0016
     38 C           2.0630   -0.4040    0.0000 C.3     1  LIG1        0.1569
     39 C           1.5630    0.4580    0.0000 C.3     1  LIG1        0.1362
@<TRIPOS>BOND
     1     1     2   ar
     2     1     6   ar
     3     1    13   ar
     4     2     3   ar
     5     2    11   ar
     6     3     4   ar
     7     3    10    1
     8     4     5   ar
     9     4     9    2
    10     5     6   ar
    11     5     8    1
    12     6     7    2
    13    11    12   ar
    14    12    13   ar
    15    12    20    1
    16    13    14    1
    17    14    15    1
    18    15    16    2
    19    15    17    1
    20    17    18    1
    21    18    19    1
    22    20    21    1
    23    21    22    1
    24    21    39    1
    25    22    23    1
    26    23    24    1
    27    24    25    1
    28    24    38    1
    29    25    26    1
    30    25    32    1
    31    26    27   ar
    32    26    31   ar
    33    27    28   ar
    34    28    29   ar
    35    29    30   ar
    36    30    31   ar
    37    32    33   ar
    38    32    37   ar
    39    33    34   ar
    40    34    35   ar
    41    35    36   ar
    42    36    37   ar
    43    38    39    1
