@<TRIPOS>MOLECULE
37346_ChemDiv_C607-0660
 18 20 0 0 0
SMALL
GASTEIGER
Energy = 0

@<TRIPOS>ATOM
      1 C          -0.3500   -0.2500    0.0000 C.2     1  LIG1        0.2297
      2 C           0.5250    0.2630    0.0000 C.ar    1  LIG1        0.0421
      3 C           1.3960   -0.2330    0.0000 C.ar    1  LIG1        0.0221
      4 C           2.2630    0.2630    0.0000 C.ar    1  LIG1        0.0814
      5 N           3.2130   -0.0500    0.0000 N.ar    1  LIG1       -0.2438
      6 C           3.8000    0.7630    0.0000 C.ar    1  LIG1        0.0989
      7 C           3.2130    1.5750    0.0000 C.ar    1  LIG1        0.0221
      8 C           2.2630    1.2580    0.0000 C.ar    1  LIG1        0.0192
      9 C           1.3960    1.7630    0.0000 C.ar    1  LIG1        0.0016
     10 C           0.5250    1.2580    0.0000 C.ar    1  LIG1        0.0032
     11 C          -1.2250    0.2500    0.0000 C.3     1  LIG1        0.2088
     12 N          -2.0830   -0.2500    0.0000 N.4     1  LIG1        0.3833
     13 C          -2.9500    0.2380    0.0000 C.3     1  LIG1        0.1392
     14 C          -3.8040   -0.2580    0.0000 C.3     1  LIG1        0.0629
     15 C          -3.8040   -1.2580    0.0000 C.3     1  LIG1        0.0123
     16 C          -2.9330   -1.7580    0.0000 C.3     1  LIG1        0.0629
     17 C          -2.0710   -1.2460    0.0000 C.3     1  LIG1        0.1392
     18 O          -0.3380   -1.2460    0.0000 O.2     1  LIG1       -0.2851
@<TRIPOS>BOND
     1     1     2    1
     2     1    11    1
     3     1    18    2
     4     2     3   ar
     5     2    10   ar
     6     3     4   ar
     7     4     5   ar
     8     4     8   ar
     9     5     6   ar
    10     6     7   ar
    11     7     8   ar
    12     8     9   ar
    13     9    10   ar
    14    11    12    1
    15    12    13    1
    16    12    17    1
    17    13    14    1
    18    14    15    1
    19    15    16    1
    20    16    17    1
