@<TRIPOS>MOLECULE
37348_ChemDiv_C607-0840
 21 23 0 0 0
SMALL
GASTEIGER
Energy = 0

@<TRIPOS>ATOM
      1 C           1.7250    1.2630    0.0000 C.2     1  LIG1        0.1892
      2 C           0.8580    1.7630    0.0000 C.ar    1  LIG1        0.0376
      3 C          -0.0170    1.2630    0.0000 C.ar    1  LIG1        0.0220
      4 C          -0.8750    1.7630    0.0000 C.ar    1  LIG1        0.0814
      5 N          -1.8210    1.4500    0.0000 N.ar    1  LIG1       -0.2438
      6 C          -2.4040    2.2630    0.0000 C.ar    1  LIG1        0.0989
      7 C          -1.8210    3.0630    0.0000 C.ar    1  LIG1        0.0221
      8 C          -0.8750    2.7580    0.0000 C.ar    1  LIG1        0.0192
      9 C          -0.0170    3.2580    0.0000 C.ar    1  LIG1        0.0016
     10 C           0.8580    2.7580    0.0000 C.ar    1  LIG1        0.0030
     11 C           1.7290    0.2630    0.0000 C.3     1  LIG1        0.1426
     12 N           0.8710   -0.2330    0.0000 N.3     1  LIG1       -0.2561
     13 C           0.8710   -1.2420    0.0000 C.3     1  LIG1        0.1362
     14 C           0.0130   -1.7420    0.0000 C.3     1  LIG1        0.1563
     15 N          -0.8630   -1.2420    0.0000 N.4     1  LIG1        0.3794
     16 C          -0.8630   -0.2330    0.0000 C.3     1  LIG1        0.1563
     17 C           0.0000    0.2630    0.0000 C.3     1  LIG1        0.1362
     18 C          -1.7380   -1.7460    0.0000 C.3     1  LIG1        0.1387
     19 C          -1.7290   -2.7540    0.0000 C.3     1  LIG1        0.0627
     20 C          -2.5920   -3.2540    0.0000 C.3     1  LIG1        0.0063
     21 O           2.5880    1.7630    0.0000 O.2     1  LIG1       -0.2899
@<TRIPOS>BOND
     1     1     2    1
     2     1    11    1
     3     1    21    2
     4     2     3   ar
     5     2    10   ar
     6     3     4   ar
     7     4     5   ar
     8     4     8   ar
     9     5     6   ar
    10     6     7   ar
    11     7     8   ar
    12     8     9   ar
    13     9    10   ar
    14    11    12    1
    15    12    13    1
    16    12    17    1
    17    13    14    1
    18    14    15    1
    19    15    16    1
    20    15    18    1
    21    16    17    1
    22    18    19    1
    23    19    20    1
