@<TRIPOS>MOLECULE
37356_ChemDiv_C607-0832
 26 29 0 0 0
SMALL
GASTEIGER
Energy = 0

@<TRIPOS>ATOM
      1 N          -0.4290   -0.7420    0.0000 N.pl3   1  LIG1       -0.2975
      2 C          -1.2960   -1.2540    0.0000 C.ar    1  LIG1        0.0438
      3 C          -1.2960   -2.2540    0.0000 C.ar    1  LIG1       -0.0125
      4 C          -2.1580   -2.7540    0.0000 C.ar    1  LIG1       -0.0246
      5 C          -3.0210   -2.2540    0.0000 C.ar    1  LIG1       -0.0045
      6 C          -3.0250   -1.2540    0.0000 C.ar    1  LIG1        0.0009
      7 C          -2.1580   -0.7540    0.0000 C.ar    1  LIG1        0.0142
      8 C          -2.1580   -3.7500    0.0000 C.3     1  LIG1        0.0307
      9 C          -0.4170   -2.7580    0.0000 C.3     1  LIG1        0.0320
     10 C           0.4420   -1.2420    0.0000 C.3     1  LIG1        0.1544
     11 C           1.3040   -0.7420    0.0000 C.3     1  LIG1        0.1611
     12 N           1.3040    0.2580    0.0000 N.4     1  LIG1        0.3860
     13 C           2.1710    0.7580    0.0000 C.3     1  LIG1        0.2089
     14 C           2.1580    1.7580    0.0000 C.2     1  LIG1        0.2297
     15 C           1.2920    2.2580    0.0000 C.ar    1  LIG1        0.0421
     16 C           0.4170    1.7580    0.0000 C.ar    1  LIG1        0.0221
     17 C          -0.4460    2.2580    0.0000 C.ar    1  LIG1        0.0814
     18 N          -1.3920    1.9540    0.0000 N.ar    1  LIG1       -0.2438
     19 C          -1.9750    2.7630    0.0000 C.ar    1  LIG1        0.0989
     20 C          -1.3920    3.5630    0.0000 C.ar    1  LIG1        0.0221
     21 C          -0.4460    3.2580    0.0000 C.ar    1  LIG1        0.0192
     22 C           0.4170    3.7540    0.0000 C.ar    1  LIG1        0.0016
     23 C           1.2920    3.2580    0.0000 C.ar    1  LIG1        0.0032
     24 O           3.0210    2.2580    0.0000 O.2     1  LIG1       -0.2851
     25 C           0.4330    0.7580    0.0000 C.3     1  LIG1        0.1611
     26 C          -0.4290    0.2580    0.0000 C.3     1  LIG1        0.1544
@<TRIPOS>BOND
     1     1     2    1
     2     1    10    1
     3     1    26    1
     4     2     3   ar
     5     2     7   ar
     6     3     4   ar
     7     3     9    1
     8     4     5   ar
     9     4     8    1
    10     5     6   ar
    11     6     7   ar
    12    10    11    1
    13    11    12    1
    14    12    13    1
    15    12    25    1
    16    13    14    1
    17    14    15    1
    18    14    24    2
    19    15    16   ar
    20    15    23   ar
    21    16    17   ar
    22    17    18   ar
    23    17    21   ar
    24    18    19   ar
    25    19    20   ar
    26    20    21   ar
    27    21    22   ar
    28    22    23   ar
    29    25    26    1
