@<TRIPOS>MOLECULE
37358_ChemDiv_C607-0835
 25 28 0 0 0
SMALL
GASTEIGER
Energy = 0

@<TRIPOS>ATOM
      1 N           2.4960    0.0000    0.0000 N.pl3   1  LIG1       -0.2972
      2 C           3.3580   -0.4960    0.0000 C.ar    1  LIG1        0.0490
      3 C           3.3580   -1.5000    0.0000 C.ar    1  LIG1        0.0259
      4 C           4.2210   -2.0000    0.0000 C.ar    1  LIG1        0.0589
      5 CL          4.2170   -3.0000    0.0000 Cl      1  LIG1       -0.0822
      6 C           5.0960   -1.5000    0.0000 C.ar    1  LIG1        0.0115
      7 C           5.0960   -0.4960    0.0000 C.ar    1  LIG1        0.0021
      8 C           4.2330    0.0000    0.0000 C.ar    1  LIG1        0.0146
      9 C           2.4960    1.0080    0.0000 C.3     1  LIG1        0.1544
     10 C           1.6290    1.5040    0.0000 C.3     1  LIG1        0.1611
     11 N           0.7750    1.0080    0.0000 N.4     1  LIG1        0.3860
     12 C          -0.0960    1.5040    0.0000 C.3     1  LIG1        0.2089
     13 C          -0.9580    1.0080    0.0000 C.2     1  LIG1        0.2297
     14 C          -1.8290    1.5040    0.0000 C.ar    1  LIG1        0.0421
     15 C          -2.7000    1.0080    0.0000 C.ar    1  LIG1        0.0221
     16 C          -3.5630    1.5040    0.0000 C.ar    1  LIG1        0.0814
     17 N          -4.5080    1.1960    0.0000 N.ar    1  LIG1       -0.2438
     18 C          -5.1000    2.0040    0.0000 C.ar    1  LIG1        0.0989
     19 C          -4.5080    2.8080    0.0000 C.ar    1  LIG1        0.0221
     20 C          -3.5630    2.5040    0.0000 C.ar    1  LIG1        0.0192
     21 C          -2.7000    3.0040    0.0000 C.ar    1  LIG1        0.0016
     22 C          -1.8290    2.5040    0.0000 C.ar    1  LIG1        0.0032
     23 O          -0.9540    0.0080    0.0000 O.2     1  LIG1       -0.2851
     24 C           0.7750    0.0000    0.0000 C.3     1  LIG1        0.1611
     25 C           1.6290   -0.4960    0.0000 C.3     1  LIG1        0.1544
@<TRIPOS>BOND
     1     1     2    1
     2     1     9    1
     3     1    25    1
     4     2     3   ar
     5     2     8   ar
     6     3     4   ar
     7     4     5    1
     8     4     6   ar
     9     6     7   ar
    10     7     8   ar
    11     9    10    1
    12    10    11    1
    13    11    12    1
    14    11    24    1
    15    12    13    1
    16    13    14    1
    17    13    23    2
    18    14    15   ar
    19    14    22   ar
    20    15    16   ar
    21    16    17   ar
    22    16    20   ar
    23    17    18   ar
    24    18    19   ar
    25    19    20   ar
    26    20    21   ar
    27    21    22   ar
    28    24    25    1
