@<TRIPOS>MOLECULE
37350_ChemDiv_C607-0698
 31 34 0 0 0
SMALL
GASTEIGER
Energy = 0

@<TRIPOS>ATOM
      1 C          -1.6420    0.4920    0.0000 C.ar    1  LIG1        0.2037
      2 C          -2.5130   -0.0130    0.0000 C.ar    1  LIG1        0.0395
      3 C          -3.3790    0.4790    0.0000 C.ar    1  LIG1        0.0093
      4 C          -3.3830    1.4880    0.0000 C.ar    1  LIG1        0.0761
      5 C          -2.5250    2.0040    0.0000 C.ar    1  LIG1        0.3458
      6 O          -1.6460    1.5000    0.0000 O.2     1  LIG1       -0.4163
      7 O          -2.5290    3.0080    0.0000 O.2     1  LIG1       -0.2445
      8 C          -4.2540    1.9880    0.0000 C.ar    1  LIG1        0.0065
      9 C          -5.1130    1.4830    0.0000 C.ar    1  LIG1        0.0002
     10 C          -5.1130    0.4880    0.0000 C.ar    1  LIG1        0.0000
     11 C          -4.2540   -0.0130    0.0000 C.ar    1  LIG1        0.0003
     12 C          -2.5080   -1.0130    0.0000 C.ar    1  LIG1        0.0031
     13 C          -1.6460   -1.5000    0.0000 C.ar    1  LIG1        0.0001
     14 C          -1.6380   -2.5000    0.0000 C.ar    1  LIG1        0.0000
     15 C          -2.5040   -3.0040    0.0000 C.ar    1  LIG1        0.0000
     16 C          -3.3710   -2.5080    0.0000 C.ar    1  LIG1        0.0000
     17 C          -3.3750   -1.5130    0.0000 C.ar    1  LIG1        0.0001
     18 C          -0.7750   -0.0080    0.0000 C.2     1  LIG1        0.3055
     19 N           0.0880    0.4960    0.0000 N.am    1  LIG1       -0.1479
     20 C           0.9540   -0.0040    0.0000 C.ar    1  LIG1        0.1859
     21 N           1.8670    0.4130    0.0000 N.ar    1  LIG1       -0.2263
     22 C           2.5330   -0.3290    0.0000 C.ar    1  LIG1        0.0787
     23 C           3.5290   -0.2250    0.0000 C.3     1  LIG1        0.1557
     24 C           4.1170   -1.0330    0.0000 C.2     1  LIG1        0.3231
     25 O           5.1080   -0.9250    0.0000 O.2     1  LIG1       -0.2497
     26 O           3.7130   -1.9460    0.0000 O.3     1  LIG1       -0.4482
     27 C           2.7210   -2.0500    0.0000 C.3     1  LIG1        0.2086
     28 C           2.2170   -2.9080    0.0000 C.3     1  LIG1        0.0513
     29 C           2.0420   -1.1960    0.0000 C.ar    1  LIG1        0.0534
     30 S           1.0630   -0.9920    0.0000 S.2     1  LIG1       -0.0495
     31 O          -0.7750   -1.0040    0.0000 O.2     1  LIG1       -0.2646
@<TRIPOS>BOND
     1     1     2   ar
     2     1     6   ar
     3     1    18    1
     4     2     3   ar
     5     2    12    1
     6     3     4   ar
     7     3    11   ar
     8     4     5   ar
     9     4     8   ar
    10     5     6   ar
    11     5     7    2
    12     8     9   ar
    13     9    10   ar
    14    10    11   ar
    15    12    13   ar
    16    12    17   ar
    17    13    14   ar
    18    14    15   ar
    19    15    16   ar
    20    16    17   ar
    21    18    19   am
    22    18    31    2
    23    19    20    1
    24    20    21   ar
    25    20    30   ar
    26    21    22   ar
    27    22    23    1
    28    22    29   ar
    29    23    24    1
    30    24    25    2
    31    24    26    1
    32    26    27    1
    33    27    28    1
    34    29    30   ar
