@<TRIPOS>MOLECULE
37355_ChemDiv_C470-0523
 28 31 0 0 0
SMALL
GASTEIGER
Energy = 0

@<TRIPOS>ATOM
      1 C          -1.7290    0.7210    0.0000 C.ar    1  LIG1        0.1529
      2 C          -1.7290   -0.2790    0.0000 C.ar    1  LIG1        0.1694
      3 N          -2.5960   -0.7750    0.0000 N.ar    1  LIG1       -0.2628
      4 C          -3.4540   -0.2790    0.0000 C.ar    1  LIG1        0.3350
      5 N          -3.4540    0.7210    0.0000 N.ar    1  LIG1       -0.2454
      6 C          -2.5960    1.2330    0.0000 C.ar    1  LIG1        0.2832
      7 O          -2.5960    2.2330    0.0000 O.2     1  LIG1       -0.2652
      8 C          -4.3290    1.2250    0.0000 C.3     1  LIG1        0.1383
      9 O          -4.3290   -0.7750    0.0000 O.2     1  LIG1       -0.2461
     10 C          -2.5960   -1.7710    0.0000 C.3     1  LIG1        0.1366
     11 N          -0.7750   -0.5750    0.0000 N.ar    1  LIG1       -0.2076
     12 C          -0.1880    0.2380    0.0000 C.ar    1  LIG1        0.1804
     13 N          -0.7830    1.0380    0.0000 N.ar    1  LIG1       -0.2965
     14 C          -0.4750    1.9920    0.0000 C.3     1  LIG1        0.1964
     15 C           0.4750    2.2460    0.0000 C.2     1  LIG1        0.2838
     16 O           1.1880    1.5420    0.0000 O.2     1  LIG1       -0.2695
     17 N           0.7500    3.2130    0.0000 N.am    1  LIG1       -0.0861
     18 C           0.8080    0.2460    0.0000 C.3     1  LIG1        0.2041
     19 N           1.3170   -0.6170    0.0000 N.4     1  LIG1        0.3868
     20 C           2.3170   -0.6170    0.0000 C.3     1  LIG1        0.1665
     21 C           2.8170   -1.4710    0.0000 C.ar    1  LIG1        0.0306
     22 C           2.3210   -2.3460    0.0000 C.ar    1  LIG1       -0.0147
     23 C           1.3250   -2.3630    0.0000 C.3     1  LIG1        0.0889
     24 C           0.8250   -1.4960    0.0000 C.3     1  LIG1        0.1444
     25 C           2.8290   -3.2080    0.0000 C.ar    1  LIG1       -0.0042
     26 C           3.8290   -3.2080    0.0000 C.ar    1  LIG1       -0.0003
     27 C           4.3250   -2.3290    0.0000 C.ar    1  LIG1       -0.0001
     28 C           3.8250   -1.4710    0.0000 C.ar    1  LIG1        0.0011
@<TRIPOS>BOND
     1     1     2   ar
     2     1     6   ar
     3     1    13   ar
     4     2     3   ar
     5     2    11   ar
     6     3     4   ar
     7     3    10    1
     8     4     5   ar
     9     4     9    2
    10     5     6   ar
    11     5     8    1
    12     6     7    2
    13    11    12   ar
    14    12    13   ar
    15    12    18    1
    16    13    14    1
    17    14    15    1
    18    15    16    2
    19    15    17   am
    20    18    19    1
    21    19    20    1
    22    19    24    1
    23    20    21    1
    24    21    22   ar
    25    21    28   ar
    26    22    23    1
    27    22    25   ar
    28    23    24    1
    29    25    26   ar
    30    26    27   ar
    31    27    28   ar
