@<TRIPOS>MOLECULE
37357_ChemDiv_C470-0564
 31 34 0 0 0
SMALL
GASTEIGER
Energy = 0

@<TRIPOS>ATOM
      1 C          -0.9790    0.4330    0.0000 C.ar    1  LIG1        0.1692
      2 C          -0.9830    1.4290    0.0000 C.ar    1  LIG1        0.1525
      3 C          -1.8460    1.9460    0.0000 C.ar    1  LIG1        0.2832
      4 N          -2.7080    1.4290    0.0000 N.ar    1  LIG1       -0.2454
      5 C          -2.7080    0.4290    0.0000 C.ar    1  LIG1        0.3350
      6 N          -1.8460   -0.0670    0.0000 N.ar    1  LIG1       -0.2628
      7 C          -1.8460   -1.0670    0.0000 C.3     1  LIG1        0.1366
      8 O          -3.5790   -0.0710    0.0000 O.2     1  LIG1       -0.2461
      9 C          -3.5790    1.9330    0.0000 C.3     1  LIG1        0.1383
     10 O          -1.8460    2.9380    0.0000 O.2     1  LIG1       -0.2652
     11 N          -0.0380    1.7500    0.0000 N.ar    1  LIG1       -0.3062
     12 C           0.5540    0.9460    0.0000 C.ar    1  LIG1        0.1386
     13 N          -0.0290    0.1290    0.0000 N.ar    1  LIG1       -0.2121
     14 C           1.5580    0.9500    0.0000 C.3     1  LIG1        0.1374
     15 N           2.0580    0.0960    0.0000 N.3     1  LIG1       -0.2562
     16 C           3.0580    0.0960    0.0000 C.3     1  LIG1        0.1362
     17 C           3.5710   -0.7710    0.0000 C.3     1  LIG1        0.1568
     18 N           3.0670   -1.6500    0.0000 N.4     1  LIG1        0.3829
     19 C           3.5710   -2.5130    0.0000 C.3     1  LIG1        0.1663
     20 C           3.0750   -3.3790    0.0000 C.ar    1  LIG1        0.0344
     21 C           2.0830   -3.3790    0.0000 C.ar    1  LIG1        0.0014
     22 C           1.5710   -4.2460    0.0000 C.ar    1  LIG1       -0.0001
     23 C           2.0830   -5.1080    0.0000 C.ar    1  LIG1       -0.0000
     24 C           3.0830   -5.1080    0.0000 C.ar    1  LIG1       -0.0001
     25 C           3.5750   -4.2420    0.0000 C.ar    1  LIG1        0.0014
     26 C           2.0670   -1.6500    0.0000 C.3     1  LIG1        0.1568
     27 C           1.5670   -0.7790    0.0000 C.3     1  LIG1        0.1362
     28 C           0.2670    2.7040    0.0000 C.3     1  LIG1        0.1394
     29 C          -0.4080    3.4290    0.0000 C.3     1  LIG1        0.1667
     30 O          -0.1040    4.3670    0.0000 O.3     1  LIG1       -0.3490
     31 C          -0.7790    5.1080    0.0000 C.3     1  LIG1        0.1742
@<TRIPOS>BOND
     1     1     2   ar
     2     1     6   ar
     3     1    13   ar
     4     2     3   ar
     5     2    11   ar
     6     3     4   ar
     7     3    10    2
     8     4     5   ar
     9     4     9    1
    10     5     6   ar
    11     5     8    2
    12     6     7    1
    13    11    12   ar
    14    11    28    1
    15    12    13   ar
    16    12    14    1
    17    14    15    1
    18    15    16    1
    19    15    27    1
    20    16    17    1
    21    17    18    1
    22    18    19    1
    23    18    26    1
    24    19    20    1
    25    20    21   ar
    26    20    25   ar
    27    21    22   ar
    28    22    23   ar
    29    23    24   ar
    30    24    25   ar
    31    26    27    1
    32    28    29    1
    33    29    30    1
    34    30    31    1
