@<TRIPOS>MOLECULE
37367_ChemDiv_C523-0381
 36 39 0 0 0
SMALL
GASTEIGER
Energy = 0

@<TRIPOS>ATOM
      1 N           1.2670   -4.6080    0.0000 N.ar    1  LIG1       -0.2121
      2 C           1.5790   -5.5580    0.0000 C.ar    1  LIG1        0.2290
      3 O           2.5710   -5.5580    0.0000 O.2     1  LIG1       -0.4392
      4 C           2.8710   -4.6080    0.0000 C.ar    1  LIG1        0.1394
      5 C           2.0880   -4.0250    0.0000 C.ar    1  LIG1        0.1032
      6 C           2.1130   -3.0250    0.0000 C.3     1  LIG1        0.1065
      7 S           1.2630   -2.5000    0.0000 S.3     1  LIG1       -0.1240
      8 C           1.2880   -1.4880    0.0000 C.3     1  LIG1        0.1445
      9 C           0.4330   -0.9710    0.0000 C.2     1  LIG1        0.2524
     10 O          -0.4330   -1.4670    0.0000 O.2     1  LIG1       -0.2724
     11 N           0.4500    0.0290    0.0000 N.am    1  LIG1       -0.2045
     12 C          -0.4000    0.5460    0.0000 C.3     1  LIG1        0.1213
     13 C          -0.3830    1.5420    0.0000 C.3     1  LIG1        0.0861
     14 C          -1.2460    2.0420    0.0000 C.3     1  LIG1        0.1404
     15 N          -1.2460    3.0460    0.0000 N.4     1  LIG1        0.3773
     16 C          -0.3830    3.5460    0.0000 C.3     1  LIG1        0.1386
     17 C          -0.3830    4.5420    0.0000 C.3     1  LIG1        0.0632
     18 C          -1.2460    5.0420    0.0000 C.3     1  LIG1        0.0162
     19 C          -1.2460    6.0420    0.0000 C.3     1  LIG1        0.0268
     20 C          -2.1080    6.5460    0.0000 C.ar    1  LIG1       -0.0222
     21 C          -2.9630    6.0420    0.0000 C.ar    1  LIG1       -0.0043
     22 C          -3.8330    6.5460    0.0000 C.ar    1  LIG1       -0.0003
     23 C          -3.8420    7.5460    0.0000 C.ar    1  LIG1       -0.0000
     24 C          -2.9630    8.0460    0.0000 C.ar    1  LIG1       -0.0003
     25 C          -2.1080    7.5460    0.0000 C.ar    1  LIG1       -0.0043
     26 C          -2.1130    4.5420    0.0000 C.3     1  LIG1        0.0632
     27 C          -2.1130    3.5460    0.0000 C.3     1  LIG1        0.1386
     28 C           3.8380   -4.2920    0.0000 C.3     1  LIG1        0.0739
     29 C           0.9500   -6.3460    0.0000 C.ar    1  LIG1        0.0566
     30 C          -0.0500   -6.1920    0.0000 C.ar    1  LIG1        0.0415
     31 C          -0.6670   -6.9710    0.0000 C.ar    1  LIG1        0.1389
     32 O          -1.6630   -6.8290    0.0000 O.3     1  LIG1       -0.4714
     33 C          -2.0420   -5.8920    0.0000 C.3     1  LIG1        0.2525
     34 C          -0.3000   -7.8960    0.0000 C.ar    1  LIG1        0.0369
     35 C           0.6960   -8.0460    0.0000 C.ar    1  LIG1        0.0033
     36 C           1.3210   -7.2710    0.0000 C.ar    1  LIG1        0.0049
@<TRIPOS>BOND
     1     1     2   ar
     2     1     5   ar
     3     2     3   ar
     4     2    29    1
     5     3     4   ar
     6     4     5   ar
     7     4    28    1
     8     5     6    1
     9     6     7    1
    10     7     8    1
    11     8     9    1
    12     9    10    2
    13     9    11   am
    14    11    12    1
    15    12    13    1
    16    13    14    1
    17    14    15    1
    18    15    16    1
    19    15    27    1
    20    16    17    1
    21    17    18    1
    22    18    19    1
    23    18    26    1
    24    19    20    1
    25    20    21   ar
    26    20    25   ar
    27    21    22   ar
    28    22    23   ar
    29    23    24   ar
    30    24    25   ar
    31    26    27    1
    32    29    30   ar
    33    29    36   ar
    34    30    31   ar
    35    31    32    1
    36    31    34   ar
    37    32    33    1
    38    34    35   ar
    39    35    36   ar
