@<TRIPOS>MOLECULE
37366_ChemDiv_C547-0872
 25 26 0 0 0
SMALL
GASTEIGER
Energy = 0

@<TRIPOS>ATOM
      1 C          -0.8710    4.4920    0.0000 C.ar    1  LIG1        0.2641
      2 C          -0.8710    3.5000    0.0000 C.ar    1  LIG1        0.0976
      3 C          -0.0130    2.9960    0.0000 C.ar    1  LIG1        0.1446
      4 C           0.8580    3.5000    0.0000 C.ar    1  LIG1        0.0500
      5 C           0.8580    4.4920    0.0000 C.ar    1  LIG1        0.0654
      6 N          -0.0130    4.9880    0.0000 N.ar    1  LIG1       -0.2933
      7 C          -0.0130    5.9960    0.0000 C.3     1  LIG1        0.1335
      8 C           1.7250    4.9880    0.0000 C.ar    1  LIG1        0.0174
      9 C           2.5960    4.4920    0.0000 C.ar    1  LIG1        0.0015
     10 C           2.5960    3.5000    0.0000 C.ar    1  LIG1        0.0002
     11 C           1.7250    2.9960    0.0000 C.ar    1  LIG1        0.0045
     12 O          -0.0130    1.9960    0.0000 O.3     1  LIG1       -0.4752
     13 C          -0.8630    1.4920    0.0000 C.3     1  LIG1        0.2059
     14 C          -0.8630    0.4830    0.0000 C.3     1  LIG1        0.0569
     15 C          -1.7210   -0.0130    0.0000 C.3     1  LIG1        0.0907
     16 C          -1.7210   -1.0080    0.0000 C.2     1  LIG1        0.2415
     17 O          -0.8630   -1.5130    0.0000 O.2     1  LIG1       -0.2733
     18 N          -2.6000   -1.5040    0.0000 N.am    1  LIG1       -0.2053
     19 C          -2.6000   -2.4960    0.0000 C.3     1  LIG1        0.1177
     20 C          -1.7210   -3.0000    0.0000 C.3     1  LIG1        0.0555
     21 C          -1.7130   -4.0000    0.0000 C.3     1  LIG1        0.1440
     22 O          -0.8630   -4.4920    0.0000 O.3     1  LIG1       -0.3537
     23 C          -0.8540   -5.5000    0.0000 C.3     1  LIG1        0.1422
     24 C           0.0170   -5.9960    0.0000 C.3     1  LIG1        0.0346
     25 O          -1.7380    5.0040    0.0000 O.2     1  LIG1       -0.2669
@<TRIPOS>BOND
     1     1     2   ar
     2     1     6   ar
     3     1    25    2
     4     2     3   ar
     5     3     4   ar
     6     3    12    1
     7     4     5   ar
     8     4    11   ar
     9     5     6   ar
    10     5     8   ar
    11     6     7    1
    12     8     9   ar
    13     9    10   ar
    14    10    11   ar
    15    12    13    1
    16    13    14    1
    17    14    15    1
    18    15    16    1
    19    16    17    2
    20    16    18   am
    21    18    19    1
    22    19    20    1
    23    20    21    1
    24    21    22    1
    25    22    23    1
    26    23    24    1
