@<TRIPOS>MOLECULE
37362_ChemDiv_C547-0901
 34 38 0 0 0
SMALL
GASTEIGER
Energy = 0

@<TRIPOS>ATOM
      1 N          -1.0630   -4.9130    0.0000 N.ar    1  LIG1       -0.3272
      2 C          -0.9500   -3.9130    0.0000 C.ar    1  LIG1        0.0600
      3 C          -1.8580   -3.5040    0.0000 C.ar    1  LIG1        0.0185
      4 C          -2.5290   -4.2540    0.0000 C.ar    1  LIG1        0.0172
      5 C          -2.0330   -5.1210    0.0000 C.ar    1  LIG1        0.0599
      6 C          -2.5460   -5.9880    0.0000 C.ar    1  LIG1        0.0172
      7 C          -3.5460   -5.9790    0.0000 C.ar    1  LIG1        0.0015
      8 C          -4.0290   -5.1040    0.0000 C.ar    1  LIG1        0.0001
      9 C          -3.5380   -4.2460    0.0000 C.ar    1  LIG1        0.0015
     10 C          -1.9630   -2.5170    0.0000 C.ar    1  LIG1        0.0181
     11 C          -1.1670   -1.9250    0.0000 C.ar    1  LIG1        0.0735
     12 N          -1.1670   -0.9380    0.0000 N.am    1  LIG1       -0.1792
     13 C          -0.2880   -0.4420    0.0000 C.2     1  LIG1        0.2457
     14 O           0.5710   -0.9460    0.0000 O.2     1  LIG1       -0.2730
     15 C          -0.2880    0.5580    0.0000 C.3     1  LIG1        0.0910
     16 C           0.5710    1.0540    0.0000 C.3     1  LIG1        0.0570
     17 C           0.5710    2.0580    0.0000 C.3     1  LIG1        0.2059
     18 O           1.4210    2.5630    0.0000 O.3     1  LIG1       -0.4752
     19 C           1.4210    3.5630    0.0000 C.ar    1  LIG1        0.1446
     20 C           0.5630    4.0630    0.0000 C.ar    1  LIG1        0.0976
     21 C           0.5630    5.0580    0.0000 C.ar    1  LIG1        0.2641
     22 N           1.4210    5.5540    0.0000 N.ar    1  LIG1       -0.2933
     23 C           2.2920    5.0580    0.0000 C.ar    1  LIG1        0.0654
     24 C           2.2920    4.0630    0.0000 C.ar    1  LIG1        0.0500
     25 C           3.1580    3.5630    0.0000 C.ar    1  LIG1        0.0045
     26 C           4.0250    4.0630    0.0000 C.ar    1  LIG1        0.0002
     27 C           4.0250    5.0580    0.0000 C.ar    1  LIG1        0.0015
     28 C           3.1580    5.5540    0.0000 C.ar    1  LIG1        0.0174
     29 C           1.4210    6.5630    0.0000 C.3     1  LIG1        0.1335
     30 O          -0.3040    5.5710    0.0000 O.2     1  LIG1       -0.2669
     31 C          -0.2380   -2.3420    0.0000 C.ar    1  LIG1        0.0181
     32 C          -0.1420   -3.3330    0.0000 C.ar    1  LIG1        0.0185
     33 C          -0.3170   -5.5790    0.0000 C.3     1  LIG1        0.1061
     34 C          -0.5330   -6.5630    0.0000 C.3     1  LIG1        0.0265
@<TRIPOS>BOND
     1     1     2   ar
     2     1     5   ar
     3     1    33    1
     4     2     3   ar
     5     2    32   ar
     6     3     4   ar
     7     3    10   ar
     8     4     5   ar
     9     4     9   ar
    10     5     6   ar
    11     6     7   ar
    12     7     8   ar
    13     8     9   ar
    14    10    11   ar
    15    11    12    1
    16    11    31   ar
    17    12    13   am
    18    13    14    2
    19    13    15    1
    20    15    16    1
    21    16    17    1
    22    17    18    1
    23    18    19    1
    24    19    20   ar
    25    19    24   ar
    26    20    21   ar
    27    21    22   ar
    28    21    30    2
    29    22    23   ar
    30    22    29    1
    31    23    24   ar
    32    23    28   ar
    33    24    25   ar
    34    25    26   ar
    35    26    27   ar
    36    27    28   ar
    37    31    32   ar
    38    33    34    1
