@<TRIPOS>MOLECULE
37369_ChemDiv_C523-0790
 27 28 0 0 0
SMALL
GASTEIGER
Energy = 0

@<TRIPOS>ATOM
      1 N           0.1290   -3.5960    0.0000 N.ar    1  LIG1       -0.2121
      2 C           0.2960   -4.5710    0.0000 C.ar    1  LIG1        0.2289
      3 O           1.2830   -4.7210    0.0000 O.2     1  LIG1       -0.4392
      4 C           1.7210   -3.8290    0.0000 C.ar    1  LIG1        0.1394
      5 C           1.0290   -3.1460    0.0000 C.ar    1  LIG1        0.1032
      6 C           1.2040   -2.1460    0.0000 C.3     1  LIG1        0.1065
      7 S           0.4290   -1.5080    0.0000 S.3     1  LIG1       -0.1240
      8 C           0.5960   -0.5250    0.0000 C.3     1  LIG1        0.1445
      9 C          -0.1710    0.1040    0.0000 C.2     1  LIG1        0.2524
     10 O          -1.1130   -0.2630    0.0000 O.2     1  LIG1       -0.2724
     11 N          -0.0170    1.0960    0.0000 N.am    1  LIG1       -0.2047
     12 C          -0.8040    1.7290    0.0000 C.3     1  LIG1        0.1161
     13 C          -0.6540    2.7080    0.0000 C.3     1  LIG1        0.0351
     14 C          -1.4380    3.3250    0.0000 C.3     1  LIG1        0.0594
     15 S          -1.2880    4.3210    0.0000 S.3     1  LIG1       -0.1402
     16 C          -2.0750    4.9420    0.0000 C.3     1  LIG1        0.0576
     17 C          -1.9380    5.9330    0.0000 C.3     1  LIG1        0.0116
     18 C          -2.7170    6.5420    0.0000 C.3     1  LIG1        0.0009
     19 C          -2.5830    7.5420    0.0000 C.3     1  LIG1        0.0000
     20 C           2.7130   -3.6460    0.0000 C.3     1  LIG1        0.0739
     21 C          -0.3750   -5.3170    0.0000 C.ar    1  LIG1        0.0536
     22 C          -1.3540   -5.1040    0.0000 C.ar    1  LIG1        0.0055
     23 C          -2.0210   -5.8420    0.0000 C.ar    1  LIG1        0.0115
     24 C          -1.7250   -6.7920    0.0000 C.ar    1  LIG1        0.0577
     25 C          -0.7460   -7.0080    0.0000 C.ar    1  LIG1        0.0115
     26 C          -0.0670   -6.2750    0.0000 C.ar    1  LIG1        0.0055
     27 CL         -2.3880   -7.5420    0.0000 Cl      1  LIG1       -0.0822
@<TRIPOS>BOND
     1     1     2   ar
     2     1     5   ar
     3     2     3   ar
     4     2    21    1
     5     3     4   ar
     6     4     5   ar
     7     4    20    1
     8     5     6    1
     9     6     7    1
    10     7     8    1
    11     8     9    1
    12     9    10    2
    13     9    11   am
    14    11    12    1
    15    12    13    1
    16    13    14    1
    17    14    15    1
    18    15    16    1
    19    16    17    1
    20    17    18    1
    21    18    19    1
    22    21    22   ar
    23    21    26   ar
    24    22    23   ar
    25    23    24   ar
    26    24    25   ar
    27    24    27    1
    28    25    26   ar
