@<TRIPOS>MOLECULE
37364_ChemDiv_C547-0792
 34 38 0 0 0
SMALL
GASTEIGER
Energy = 0

@<TRIPOS>ATOM
      1 C           2.4960    3.0040    0.0000 C.ar    1  LIG1        0.2641
      2 C           2.4960    2.0040    0.0000 C.ar    1  LIG1        0.0976
      3 C           3.3580    1.5040    0.0000 C.ar    1  LIG1        0.1446
      4 C           4.2250    2.0040    0.0000 C.ar    1  LIG1        0.0500
      5 C           4.2250    3.0040    0.0000 C.ar    1  LIG1        0.0654
      6 N           3.3580    3.5040    0.0000 N.ar    1  LIG1       -0.2933
      7 C           3.3580    4.5000    0.0000 C.3     1  LIG1        0.1335
      8 C           5.1000    3.5040    0.0000 C.ar    1  LIG1        0.0174
      9 C           5.9630    3.0040    0.0000 C.ar    1  LIG1        0.0015
     10 C           5.9630    2.0040    0.0000 C.ar    1  LIG1        0.0002
     11 C           5.1000    1.5040    0.0000 C.ar    1  LIG1        0.0045
     12 O           3.3580    0.5080    0.0000 O.3     1  LIG1       -0.4752
     13 C           2.5040    0.0080    0.0000 C.3     1  LIG1        0.2059
     14 C           2.5040   -1.0130    0.0000 C.3     1  LIG1        0.0569
     15 C           1.6500   -1.4920    0.0000 C.3     1  LIG1        0.0891
     16 C           1.6500   -2.5000    0.0000 C.2     1  LIG1        0.2261
     17 N           0.7750   -2.9920    0.0000 N.am    1  LIG1       -0.2681
     18 C          -0.0790   -2.5000    0.0000 C.3     1  LIG1        0.1565
     19 C          -0.9420   -3.0000    0.0000 C.3     1  LIG1        0.1610
     20 N          -0.9420   -3.9880    0.0000 N.4     1  LIG1        0.3834
     21 C          -1.8170   -4.5000    0.0000 C.3     1  LIG1        0.1664
     22 C          -2.6830   -3.9880    0.0000 C.ar    1  LIG1        0.0376
     23 C          -3.5580   -4.5000    0.0000 C.ar    1  LIG1        0.0416
     24 C          -4.4210   -3.9880    0.0000 C.ar    1  LIG1        0.1763
     25 C          -4.4210   -3.0000    0.0000 C.ar    1  LIG1        0.1764
     26 O          -5.3830   -2.6920    0.0000 O.3     1  LIG1       -0.4346
     27 C          -5.9670   -3.5000    0.0000 C.3     1  LIG1        0.4294
     28 O          -5.3830   -4.3080    0.0000 O.3     1  LIG1       -0.4346
     29 C          -3.5460   -2.5000    0.0000 C.ar    1  LIG1        0.0401
     30 C          -2.6830   -3.0000    0.0000 C.ar    1  LIG1        0.0048
     31 C          -0.0710   -4.5000    0.0000 C.3     1  LIG1        0.1610
     32 C           0.7880   -3.9880    0.0000 C.3     1  LIG1        0.1565
     33 O           2.5040   -3.0000    0.0000 O.2     1  LIG1       -0.2749
     34 O           1.6420    3.5250    0.0000 O.2     1  LIG1       -0.2669
@<TRIPOS>BOND
     1     1     2   ar
     2     1     6   ar
     3     1    34    2
     4     2     3   ar
     5     3     4   ar
     6     3    12    1
     7     4     5   ar
     8     4    11   ar
     9     5     6   ar
    10     5     8   ar
    11     6     7    1
    12     8     9   ar
    13     9    10   ar
    14    10    11   ar
    15    12    13    1
    16    13    14    1
    17    14    15    1
    18    15    16    1
    19    16    17   am
    20    16    33    2
    21    17    18    1
    22    17    32    1
    23    18    19    1
    24    19    20    1
    25    20    21    1
    26    20    31    1
    27    21    22    1
    28    22    23   ar
    29    22    30   ar
    30    23    24   ar
    31    24    25   ar
    32    24    28    1
    33    25    26    1
    34    25    29   ar
    35    26    27    1
    36    27    28    1
    37    29    30   ar
    38    31    32    1
