@<TRIPOS>MOLECULE
37361_ChemDiv_K906-3427
 21 23 0 0 0
SMALL
GASTEIGER
Energy = 0

@<TRIPOS>ATOM
      1 S           1.2630    0.0670    0.0000 S.O2    1  LIG1        0.0634
      2 C           0.4000   -0.4380    0.0000 C.ar    1  LIG1        0.1253
      3 C          -0.4710    0.0580    0.0000 C.ar    1  LIG1        0.0590
      4 C          -1.3330   -0.4380    0.0000 C.ar    1  LIG1        0.1647
      5 O          -2.2790   -0.1380    0.0000 O.2     1  LIG1       -0.4306
      6 C          -2.8710   -0.9380    0.0000 C.ar    1  LIG1        0.2502
      7 N          -2.2790   -1.7500    0.0000 N.ar    1  LIG1       -0.2883
      8 C          -1.3330   -1.4380    0.0000 C.ar    1  LIG1        0.0977
      9 C          -0.4710   -1.9380    0.0000 C.ar    1  LIG1        0.0218
     10 C           0.4000   -1.4380    0.0000 C.ar    1  LIG1        0.0216
     11 C          -2.6000   -2.6960    0.0000 C.3     1  LIG1        0.1341
     12 S          -3.8710   -0.9380    0.0000 S.2     1  LIG1        0.0094
     13 N           1.9670    0.7750    0.0000 N.3     1  LIG1       -0.1555
     14 C           1.6330    1.7250    0.0000 C.3     1  LIG1        0.0958
     15 C           2.1540    2.5710    0.0000 C.3     1  LIG1        0.0191
     16 C           3.1540    2.7000    0.0000 C.3     1  LIG1        0.0015
     17 C           3.8670    1.9960    0.0000 C.3     1  LIG1        0.0015
     18 C           3.7580    1.0000    0.0000 C.3     1  LIG1        0.0191
     19 C           2.9210    0.4540    0.0000 C.3     1  LIG1        0.0958
     20 O           1.7540   -0.7960    0.0000 O.2     1  LIG1       -0.1528
     21 O           1.0000    1.0330    0.0000 O.2     1  LIG1       -0.1528
@<TRIPOS>BOND
     1     1     2    1
     2     1    13    1
     3     1    20    2
     4     1    21    2
     5     2     3   ar
     6     2    10   ar
     7     3     4   ar
     8     4     5   ar
     9     4     8   ar
    10     5     6   ar
    11     6     7   ar
    12     6    12    2
    13     7     8   ar
    14     7    11    1
    15     8     9   ar
    16     9    10   ar
    17    13    14    1
    18    13    19    1
    19    14    15    1
    20    15    16    1
    21    16    17    1
    22    17    18    1
    23    18    19    1
