@<TRIPOS>MOLECULE
37375_ChemDiv_C527-0685
 32 35 0 0 0
SMALL
GASTEIGER
Energy = 0

@<TRIPOS>ATOM
      1 N           0.4630   -2.6960    0.0000 N.ar    1  LIG1       -0.2120
      2 C           1.2750   -2.1040    0.0000 C.ar    1  LIG1        0.1058
      3 C           2.0710   -2.6960    0.0000 C.ar    1  LIG1        0.1395
      4 O           1.7670   -3.6420    0.0000 O.2     1  LIG1       -0.4392
      5 C           0.7750   -3.6420    0.0000 C.ar    1  LIG1        0.2289
      6 C           0.1960   -4.4460    0.0000 C.ar    1  LIG1        0.0535
      7 C           0.6000   -5.3500    0.0000 C.ar    1  LIG1        0.0043
      8 C           0.0250   -6.1630    0.0000 C.ar    1  LIG1       -0.0041
      9 C          -0.9830   -6.0670    0.0000 C.ar    1  LIG1       -0.0218
     10 C          -1.3880   -5.1580    0.0000 C.ar    1  LIG1       -0.0041
     11 C          -0.8000   -4.3500    0.0000 C.ar    1  LIG1        0.0043
     12 C          -1.5710   -6.9080    0.0000 C.3     1  LIG1        0.0310
     13 C           3.0290   -2.3790    0.0000 C.3     1  LIG1        0.0739
     14 C           1.2920   -1.1040    0.0000 C.3     1  LIG1        0.1406
     15 S           0.4330   -0.5830    0.0000 S.O     1  LIG1        0.0573
     16 C           0.4460    0.4080    0.0000 C.3     1  LIG1        0.1769
     17 C          -0.4210    0.9170    0.0000 C.2     1  LIG1        0.2397
     18 N          -0.4290    1.9170    0.0000 N.am    1  LIG1       -0.2673
     19 C           0.4330    2.4080    0.0000 C.3     1  LIG1        0.1565
     20 C           0.4460    3.4080    0.0000 C.3     1  LIG1        0.1610
     21 N          -0.4290    3.9000    0.0000 N.4     1  LIG1        0.3834
     22 C          -0.4290    4.8960    0.0000 C.3     1  LIG1        0.1663
     23 C          -1.2960    5.3920    0.0000 C.ar    1  LIG1        0.0344
     24 C          -1.2960    6.4040    0.0000 C.ar    1  LIG1        0.0014
     25 C          -2.1630    6.9080    0.0000 C.ar    1  LIG1       -0.0001
     26 C          -3.0330    6.3880    0.0000 C.ar    1  LIG1       -0.0000
     27 C          -3.0330    5.3880    0.0000 C.ar    1  LIG1       -0.0001
     28 C          -2.1630    4.8960    0.0000 C.ar    1  LIG1        0.0014
     29 C          -1.2830    3.4000    0.0000 C.3     1  LIG1        0.1610
     30 C          -1.2960    2.4080    0.0000 C.3     1  LIG1        0.1565
     31 O          -1.2830    0.4080    0.0000 O.2     1  LIG1       -0.2738
     32 O          -0.4290   -1.0880    0.0000 O.2     1  LIG1       -0.2550
@<TRIPOS>BOND
     1     1     2   ar
     2     1     5   ar
     3     2     3   ar
     4     2    14    1
     5     3     4   ar
     6     3    13    1
     7     4     5   ar
     8     5     6    1
     9     6     7   ar
    10     6    11   ar
    11     7     8   ar
    12     8     9   ar
    13     9    10   ar
    14     9    12    1
    15    10    11   ar
    16    14    15    1
    17    15    16    1
    18    15    32    2
    19    16    17    1
    20    17    18   am
    21    17    31    2
    22    18    19    1
    23    18    30    1
    24    19    20    1
    25    20    21    1
    26    21    22    1
    27    21    29    1
    28    22    23    1
    29    23    24   ar
    30    23    28   ar
    31    24    25   ar
    32    25    26   ar
    33    26    27   ar
    34    27    28   ar
    35    29    30    1
