@<TRIPOS>MOLECULE
37374_ChemDiv_C548-3224
 30 33 0 0 0
SMALL
GASTEIGER
Energy = 0

@<TRIPOS>ATOM
      1 S           1.7080    0.1040    0.0000 S.O2    1  LIG1        0.0652
      2 C           2.3880   -0.6380    0.0000 C.ar    1  LIG1        0.1419
      3 C           3.3540   -0.4210    0.0000 C.ar    1  LIG1        0.1273
      4 N           3.8380    0.4540    0.0000 N.ar    1  LIG1       -0.1888
      5 S           4.8250    0.2580    0.0000 S.2     1  LIG1        0.1165
      6 N           4.9500   -0.7290    0.0000 N.ar    1  LIG1       -0.1901
      7 C           4.0330   -1.1500    0.0000 C.ar    1  LIG1        0.1102
      8 C           3.7330   -2.1080    0.0000 C.ar    1  LIG1        0.0214
      9 C           2.7580   -2.3130    0.0000 C.ar    1  LIG1        0.0030
     10 C           2.0880   -1.5830    0.0000 C.ar    1  LIG1        0.0216
     11 N           1.0500    0.8460    0.0000 N.3     1  LIG1       -0.1481
     12 C           0.0500    0.7420    0.0000 C.3     1  LIG1        0.1556
     13 C          -0.4540   -0.1210    0.0000 C.2     1  LIG1        0.2420
     14 N          -1.4540   -0.1210    0.0000 N.am    1  LIG1       -0.2759
     15 C          -1.9380    0.7420    0.0000 C.3     1  LIG1        0.1201
     16 C          -2.9380    0.7630    0.0000 C.ar    1  LIG1       -0.0023
     17 C          -3.4420   -0.1130    0.0000 C.ar    1  LIG1       -0.0026
     18 C          -4.4580   -0.1210    0.0000 C.ar    1  LIG1       -0.0003
     19 C          -4.9540    0.7420    0.0000 C.ar    1  LIG1       -0.0000
     20 C          -4.4500    1.6080    0.0000 C.ar    1  LIG1       -0.0003
     21 C          -3.4420    1.6170    0.0000 C.ar    1  LIG1       -0.0026
     22 C          -1.9500   -0.9880    0.0000 C.3     1  LIG1        0.0758
     23 C          -2.9580   -0.9960    0.0000 C.3     1  LIG1        0.0215
     24 C          -1.4540   -1.8630    0.0000 C.3     1  LIG1        0.0215
     25 O           0.0500   -0.9880    0.0000 O.2     1  LIG1       -0.2734
     26 C          -0.3630    1.6580    0.0000 C.3     1  LIG1        0.0285
     27 C           0.3790    2.3170    0.0000 C.3     1  LIG1        0.0211
     28 C           1.2420    1.8250    0.0000 C.3     1  LIG1        0.0964
     29 O           0.9750   -0.5630    0.0000 O.2     1  LIG1       -0.1527
     30 O           2.4500    0.7750    0.0000 O.2     1  LIG1       -0.1527
@<TRIPOS>BOND
     1     1     2    1
     2     1    11    1
     3     1    29    2
     4     1    30    2
     5     2     3   ar
     6     2    10   ar
     7     3     4   ar
     8     3     7   ar
     9     4     5   ar
    10     5     6   ar
    11     6     7   ar
    12     7     8   ar
    13     8     9   ar
    14     9    10   ar
    15    11    12    1
    16    11    28    1
    17    12    13    1
    18    12    26    1
    19    13    14   am
    20    13    25    2
    21    14    15    1
    22    14    22    1
    23    15    16    1
    24    16    17   ar
    25    16    21   ar
    26    17    18   ar
    27    18    19   ar
    28    19    20   ar
    29    20    21   ar
    30    22    23    1
    31    22    24    1
    32    26    27    1
    33    27    28    1
