@<TRIPOS>MOLECULE
37372_ChemDiv_C548-3201
 28 31 0 0 0
SMALL
GASTEIGER
Energy = 0

@<TRIPOS>ATOM
      1 S           1.7170    0.1040    0.0000 S.O2    1  LIG1        0.0652
      2 C           2.3960   -0.6330    0.0000 C.ar    1  LIG1        0.1419
      3 C           3.3630   -0.4210    0.0000 C.ar    1  LIG1        0.1273
      4 N           3.8460    0.4540    0.0000 N.ar    1  LIG1       -0.1888
      5 S           4.8290    0.2580    0.0000 S.2     1  LIG1        0.1165
      6 N           4.9540   -0.7290    0.0000 N.ar    1  LIG1       -0.1901
      7 C           4.0420   -1.1500    0.0000 C.ar    1  LIG1        0.1102
      8 C           3.7420   -2.1040    0.0000 C.ar    1  LIG1        0.0214
      9 C           2.7670   -2.3080    0.0000 C.ar    1  LIG1        0.0030
     10 C           2.1000   -1.5790    0.0000 C.ar    1  LIG1        0.0216
     11 N           1.0630    0.8460    0.0000 N.3     1  LIG1       -0.1480
     12 C           0.0670    0.7420    0.0000 C.3     1  LIG1        0.1571
     13 C          -0.4380   -0.1210    0.0000 C.2     1  LIG1        0.2578
     14 N          -1.4330   -0.1210    0.0000 N.am    1  LIG1       -0.2015
     15 C          -1.9500    0.7330    0.0000 C.3     1  LIG1        0.1176
     16 C          -2.9540    0.7330    0.0000 C.ar    1  LIG1       -0.0026
     17 C          -3.4380   -0.1210    0.0000 C.ar    1  LIG1       -0.0026
     18 C          -4.4540   -0.1210    0.0000 C.ar    1  LIG1       -0.0003
     19 C          -4.9580    0.7330    0.0000 C.ar    1  LIG1       -0.0000
     20 C          -4.4540    1.6250    0.0000 C.ar    1  LIG1       -0.0003
     21 C          -3.4380    1.6250    0.0000 C.ar    1  LIG1       -0.0026
     22 C          -1.4330    1.6250    0.0000 C.3     1  LIG1        0.0283
     23 O           0.0670   -0.9830    0.0000 O.2     1  LIG1       -0.2718
     24 C          -0.3460    1.6540    0.0000 C.3     1  LIG1        0.0286
     25 C           0.3920    2.3130    0.0000 C.3     1  LIG1        0.0211
     26 C           1.2580    1.8210    0.0000 C.3     1  LIG1        0.0964
     27 O           0.9880   -0.5630    0.0000 O.2     1  LIG1       -0.1527
     28 O           2.4580    0.7710    0.0000 O.2     1  LIG1       -0.1527
@<TRIPOS>BOND
     1     1     2    1
     2     1    11    1
     3     1    27    2
     4     1    28    2
     5     2     3   ar
     6     2    10   ar
     7     3     4   ar
     8     3     7   ar
     9     4     5   ar
    10     5     6   ar
    11     6     7   ar
    12     7     8   ar
    13     8     9   ar
    14     9    10   ar
    15    11    12    1
    16    11    26    1
    17    12    13    1
    18    12    24    1
    19    13    14   am
    20    13    23    2
    21    14    15    1
    22    15    16    1
    23    15    22    1
    24    16    17   ar
    25    16    21   ar
    26    17    18   ar
    27    18    19   ar
    28    19    20   ar
    29    20    21   ar
    30    24    25    1
    31    25    26    1
