@<TRIPOS>MOLECULE
37371_ChemDiv_C523-1249
 30 33 0 0 0
SMALL
GASTEIGER
Energy = 0

@<TRIPOS>ATOM
      1 N          -3.1880   -0.6830    0.0000 N.ar    1  LIG1       -0.2121
      2 C          -4.1830   -0.5750    0.0000 C.ar    1  LIG1        0.2289
      3 O          -4.5920   -1.4880    0.0000 O.2     1  LIG1       -0.4392
      4 C          -3.8500   -2.1710    0.0000 C.ar    1  LIG1        0.1394
      5 C          -2.9670   -1.6670    0.0000 C.ar    1  LIG1        0.1032
      6 C          -2.1170   -2.1710    0.0000 C.3     1  LIG1        0.1065
      7 S          -1.2460   -1.6670    0.0000 S.3     1  LIG1       -0.1240
      8 C          -0.3830   -2.1710    0.0000 C.3     1  LIG1        0.1445
      9 C           0.4790   -1.6670    0.0000 C.2     1  LIG1        0.2527
     10 N           1.3460   -2.1710    0.0000 N.am    1  LIG1       -0.1998
     11 C           2.2170   -1.6670    0.0000 C.3     1  LIG1        0.1416
     12 C           3.0830   -2.1710    0.0000 C.ar    1  LIG1        0.0027
     13 C           3.9460   -1.6710    0.0000 C.ar    1  LIG1        0.0376
     14 C           4.8130   -2.1710    0.0000 C.ar    1  LIG1        0.1762
     15 C           4.8130   -3.1670    0.0000 C.ar    1  LIG1        0.1764
     16 O           5.7670   -3.4670    0.0000 O.3     1  LIG1       -0.4346
     17 C           6.3460   -2.6830    0.0000 C.3     1  LIG1        0.4294
     18 O           5.7670   -1.8630    0.0000 O.3     1  LIG1       -0.4346
     19 C           3.9460   -3.6670    0.0000 C.ar    1  LIG1        0.0399
     20 C           3.0830   -3.1670    0.0000 C.ar    1  LIG1        0.0008
     21 O           0.4790   -0.6580    0.0000 O.2     1  LIG1       -0.2724
     22 C          -3.9460   -3.1580    0.0000 C.3     1  LIG1        0.0739
     23 C          -4.7250    0.2540    0.0000 C.ar    1  LIG1        0.0536
     24 C          -5.7290    0.2040    0.0000 C.ar    1  LIG1        0.0052
     25 C          -6.2540    1.0420    0.0000 C.ar    1  LIG1        0.0063
     26 C          -5.8040    1.9290    0.0000 C.ar    1  LIG1        0.0252
     27 S          -6.3460    2.7830    0.0000 S.3     1  LIG1       -0.1127
     28 C          -5.8880    3.6710    0.0000 C.3     1  LIG1        0.0742
     29 C          -4.8040    1.9790    0.0000 C.ar    1  LIG1        0.0063
     30 C          -4.2670    1.1380    0.0000 C.ar    1  LIG1        0.0052
@<TRIPOS>BOND
     1     1     2   ar
     2     1     5   ar
     3     2     3   ar
     4     2    23    1
     5     3     4   ar
     6     4     5   ar
     7     4    22    1
     8     5     6    1
     9     6     7    1
    10     7     8    1
    11     8     9    1
    12     9    10   am
    13     9    21    2
    14    10    11    1
    15    11    12    1
    16    12    13   ar
    17    12    20   ar
    18    13    14   ar
    19    14    15   ar
    20    14    18    1
    21    15    16    1
    22    15    19   ar
    23    16    17    1
    24    17    18    1
    25    19    20   ar
    26    23    24   ar
    27    23    30   ar
    28    24    25   ar
    29    25    26   ar
    30    26    27    1
    31    26    29   ar
    32    27    28    1
    33    29    30   ar
