@<TRIPOS>MOLECULE
37379_ChemDiv_C470-0690
 34 37 0 0 0
SMALL
GASTEIGER
Energy = 0

@<TRIPOS>ATOM
      1 C          -1.7330    0.0210    0.0000 C.ar    1  LIG1        0.1694
      2 C          -1.7380    1.0170    0.0000 C.ar    1  LIG1        0.1525
      3 C          -2.6040    1.5210    0.0000 C.ar    1  LIG1        0.2832
      4 N          -3.4670    1.0170    0.0000 N.ar    1  LIG1       -0.2454
      5 C          -3.4670    0.0130    0.0000 C.ar    1  LIG1        0.3350
      6 N          -2.6040   -0.4790    0.0000 N.ar    1  LIG1       -0.2628
      7 C          -2.6040   -1.4830    0.0000 C.3     1  LIG1        0.1366
      8 O          -4.3380   -0.4830    0.0000 O.2     1  LIG1       -0.2461
      9 C          -4.3380    1.5170    0.0000 C.3     1  LIG1        0.1383
     10 O          -2.6040    2.5250    0.0000 O.2     1  LIG1       -0.2652
     11 N          -0.7960    1.3330    0.0000 N.ar    1  LIG1       -0.3053
     12 C          -0.2040    0.5290    0.0000 C.ar    1  LIG1        0.1800
     13 N          -0.7830   -0.2830    0.0000 N.ar    1  LIG1       -0.2076
     14 C           0.8000    0.5330    0.0000 C.3     1  LIG1        0.2037
     15 N           1.3000   -0.3170    0.0000 N.4     1  LIG1        0.3859
     16 C           0.8170   -1.1960    0.0000 C.3     1  LIG1        0.1611
     17 C           1.3080   -2.0670    0.0000 C.3     1  LIG1        0.1544
     18 N           2.3170   -2.0580    0.0000 N.pl3   1  LIG1       -0.2972
     19 C           2.8170   -2.9250    0.0000 C.ar    1  LIG1        0.0483
     20 C           2.3170   -3.7790    0.0000 C.ar    1  LIG1        0.0176
     21 C           2.8170   -4.6580    0.0000 C.ar    1  LIG1        0.0382
     22 C           3.8210   -4.6580    0.0000 C.ar    1  LIG1        0.1388
     23 C           4.3170   -3.7790    0.0000 C.ar    1  LIG1        0.0382
     24 C           3.8170   -2.9170    0.0000 C.ar    1  LIG1        0.0176
     25 O           4.3330   -5.5130    0.0000 O.3     1  LIG1       -0.4714
     26 C           3.8330   -6.3750    0.0000 C.3     1  LIG1        0.2525
     27 C           2.8130   -1.1830    0.0000 C.3     1  LIG1        0.1544
     28 C           2.3040   -0.3170    0.0000 C.3     1  LIG1        0.1611
     29 C          -0.4920    2.2790    0.0000 C.3     1  LIG1        0.1076
     30 C          -1.1630    3.0130    0.0000 C.3     1  LIG1        0.0245
     31 C          -0.8630    3.9540    0.0000 C.3     1  LIG1        0.0020
     32 C          -1.5380    4.6790    0.0000 C.3     1  LIG1        0.0001
     33 C          -1.2330    5.6380    0.0000 C.3     1  LIG1        0.0000
     34 C          -1.9170    6.3750    0.0000 C.3     1  LIG1        0.0000
@<TRIPOS>BOND
     1     1     2   ar
     2     1     6   ar
     3     1    13   ar
     4     2     3   ar
     5     2    11   ar
     6     3     4   ar
     7     3    10    2
     8     4     5   ar
     9     4     9    1
    10     5     6   ar
    11     5     8    2
    12     6     7    1
    13    11    12   ar
    14    11    29    1
    15    12    13   ar
    16    12    14    1
    17    14    15    1
    18    15    16    1
    19    15    28    1
    20    16    17    1
    21    17    18    1
    22    18    19    1
    23    18    27    1
    24    19    20   ar
    25    19    24   ar
    26    20    21   ar
    27    21    22   ar
    28    22    23   ar
    29    22    25    1
    30    23    24   ar
    31    25    26    1
    32    27    28    1
    33    29    30    1
    34    30    31    1
    35    31    32    1
    36    32    33    1
    37    33    34    1
