@<TRIPOS>MOLECULE
37373_ChemDiv_C523-1254
 26 27 0 0 0
SMALL
GASTEIGER
Energy = 0

@<TRIPOS>ATOM
      1 N          -0.0670   -1.4580    0.0000 N.ar    1  LIG1       -0.2121
      2 C           0.1830   -2.4290    0.0000 C.ar    1  LIG1        0.2289
      3 O           1.1750   -2.4960    0.0000 O.2     1  LIG1       -0.4392
      4 C           1.5420   -1.5630    0.0000 C.ar    1  LIG1        0.1394
      5 C           0.7830   -0.9290    0.0000 C.ar    1  LIG1        0.1032
      6 C           0.8670    0.0750    0.0000 C.3     1  LIG1        0.1065
      7 S           0.0380    0.6420    0.0000 S.3     1  LIG1       -0.1240
      8 C           0.1210    1.6380    0.0000 C.3     1  LIG1        0.1445
      9 C          -0.6960    2.2040    0.0000 C.2     1  LIG1        0.2525
     10 N          -0.6130    3.2080    0.0000 N.am    1  LIG1       -0.1993
     11 C          -1.4330    3.7750    0.0000 C.3     1  LIG1        0.1762
     12 C          -1.3500    4.7630    0.0000 C.3     1  LIG1        0.2579
     13 O          -2.1830    5.3330    0.0000 O.3     1  LIG1       -0.3265
     14 C          -2.0960    6.3330    0.0000 C.3     1  LIG1        0.1769
     15 O          -0.4540    5.2000    0.0000 O.3     1  LIG1       -0.3265
     16 C           0.3710    4.6290    0.0000 C.3     1  LIG1        0.1769
     17 O          -1.5960    1.7710    0.0000 O.2     1  LIG1       -0.2724
     18 C           2.5040   -1.2960    0.0000 C.3     1  LIG1        0.0739
     19 C          -0.4960   -3.1630    0.0000 C.ar    1  LIG1        0.0536
     20 C          -0.1960   -4.1250    0.0000 C.ar    1  LIG1        0.0052
     21 C          -0.8630   -4.8630    0.0000 C.ar    1  LIG1        0.0063
     22 C          -1.8380   -4.6500    0.0000 C.ar    1  LIG1        0.0252
     23 S          -2.5080   -5.3790    0.0000 S.3     1  LIG1       -0.1127
     24 C          -2.2080   -6.3330    0.0000 C.3     1  LIG1        0.0742
     25 C          -2.1460   -3.6960    0.0000 C.ar    1  LIG1        0.0063
     26 C          -1.4750   -2.9540    0.0000 C.ar    1  LIG1        0.0052
@<TRIPOS>BOND
     1     1     2   ar
     2     1     5   ar
     3     2     3   ar
     4     2    19    1
     5     3     4   ar
     6     4     5   ar
     7     4    18    1
     8     5     6    1
     9     6     7    1
    10     7     8    1
    11     8     9    1
    12     9    10   am
    13     9    17    2
    14    10    11    1
    15    11    12    1
    16    12    13    1
    17    12    15    1
    18    13    14    1
    19    15    16    1
    20    19    20   ar
    21    19    26   ar
    22    20    21   ar
    23    21    22   ar
    24    22    23    1
    25    22    25   ar
    26    23    24    1
    27    25    26   ar
