@<TRIPOS>MOLECULE
37376_ChemDiv_C548-3236
 29 32 0 0 0
SMALL
GASTEIGER
Energy = 0

@<TRIPOS>ATOM
      1 S           1.7080    0.0290    0.0000 S.O2    1  LIG1        0.0652
      2 C           2.3880   -0.7130    0.0000 C.ar    1  LIG1        0.1419
      3 C           3.3540   -0.4960    0.0000 C.ar    1  LIG1        0.1273
      4 N           3.8420    0.3790    0.0000 N.ar    1  LIG1       -0.1888
      5 S           4.8290    0.1830    0.0000 S.2     1  LIG1        0.1165
      6 N           4.9540   -0.8080    0.0000 N.ar    1  LIG1       -0.1901
      7 C           4.0370   -1.2290    0.0000 C.ar    1  LIG1        0.1102
      8 C           3.7380   -2.1880    0.0000 C.ar    1  LIG1        0.0214
      9 C           2.7580   -2.3920    0.0000 C.ar    1  LIG1        0.0030
     10 C           2.0880   -1.6630    0.0000 C.ar    1  LIG1        0.0216
     11 N           1.0500    0.7710    0.0000 N.3     1  LIG1       -0.1480
     12 C           0.0500    0.6670    0.0000 C.3     1  LIG1        0.1571
     13 C          -0.4540   -0.2000    0.0000 C.2     1  LIG1        0.2578
     14 N          -1.4540   -0.2000    0.0000 N.am    1  LIG1       -0.1993
     15 C          -1.9500    0.6670    0.0000 C.3     1  LIG1        0.1445
     16 C          -2.9500    0.6670    0.0000 C.ar    1  LIG1        0.0334
     17 C          -3.4540    1.5330    0.0000 C.ar    1  LIG1        0.1364
     18 O          -2.9500    2.3960    0.0000 O.3     1  LIG1       -0.4717
     19 C          -1.9500    2.3960    0.0000 C.3     1  LIG1        0.2525
     20 C          -4.4500    1.5330    0.0000 C.ar    1  LIG1        0.0366
     21 C          -4.9580    0.6670    0.0000 C.ar    1  LIG1        0.0031
     22 C          -4.4500   -0.2080    0.0000 C.ar    1  LIG1       -0.0001
     23 C          -3.4540   -0.2080    0.0000 C.ar    1  LIG1        0.0005
     24 O           0.0500   -1.0630    0.0000 O.2     1  LIG1       -0.2718
     25 C          -0.3630    1.5830    0.0000 C.3     1  LIG1        0.0286
     26 C           0.3790    2.2420    0.0000 C.3     1  LIG1        0.0211
     27 C           1.2460    1.7500    0.0000 C.3     1  LIG1        0.0964
     28 O           2.4500    0.6960    0.0000 O.2     1  LIG1       -0.1527
     29 O           0.9750   -0.6420    0.0000 O.2     1  LIG1       -0.1527
@<TRIPOS>BOND
     1     1     2    1
     2     1    11    1
     3     1    28    2
     4     1    29    2
     5     2     3   ar
     6     2    10   ar
     7     3     4   ar
     8     3     7   ar
     9     4     5   ar
    10     5     6   ar
    11     6     7   ar
    12     7     8   ar
    13     8     9   ar
    14     9    10   ar
    15    11    12    1
    16    11    27    1
    17    12    13    1
    18    12    25    1
    19    13    14   am
    20    13    24    2
    21    14    15    1
    22    15    16    1
    23    16    17   ar
    24    16    23   ar
    25    17    18    1
    26    17    20   ar
    27    18    19    1
    28    20    21   ar
    29    21    22   ar
    30    22    23   ar
    31    25    26    1
    32    26    27    1
