@<TRIPOS>MOLECULE
37370_ChemDiv_C548-3185
 29 33 0 0 0
SMALL
GASTEIGER
Energy = 0

@<TRIPOS>ATOM
      1 S           1.7000    0.1040    0.0000 S.O2    1  LIG1        0.0652
      2 C           2.3830   -0.6380    0.0000 C.ar    1  LIG1        0.1419
      3 C           3.3500   -0.4210    0.0000 C.ar    1  LIG1        0.1273
      4 N           3.8380    0.4540    0.0000 N.ar    1  LIG1       -0.1888
      5 S           4.8250    0.2580    0.0000 S.2     1  LIG1        0.1165
      6 N           4.9500   -0.7290    0.0000 N.ar    1  LIG1       -0.1901
      7 C           4.0330   -1.1540    0.0000 C.ar    1  LIG1        0.1102
      8 C           3.7330   -2.1130    0.0000 C.ar    1  LIG1        0.0214
      9 C           2.7540   -2.3210    0.0000 C.ar    1  LIG1        0.0030
     10 C           2.0830   -1.5880    0.0000 C.ar    1  LIG1        0.0216
     11 N           1.0420    0.8500    0.0000 N.3     1  LIG1       -0.1481
     12 C           0.0380    0.7460    0.0000 C.3     1  LIG1        0.1556
     13 C          -0.4670   -0.1210    0.0000 C.2     1  LIG1        0.2420
     14 N          -1.4670   -0.1210    0.0000 N.am    1  LIG1       -0.2740
     15 C          -1.9710   -0.9880    0.0000 C.3     1  LIG1        0.1199
     16 C          -2.9540   -0.9790    0.0000 C.ar    1  LIG1       -0.0062
     17 C          -3.4500   -0.1210    0.0000 C.ar    1  LIG1       -0.0228
     18 C          -2.9630    0.7460    0.0000 C.3     1  LIG1        0.0476
     19 C          -1.9630    0.7460    0.0000 C.3     1  LIG1        0.0984
     20 C          -4.4500   -0.1330    0.0000 C.ar    1  LIG1       -0.0045
     21 C          -4.9540   -1.0000    0.0000 C.ar    1  LIG1       -0.0003
     22 C          -4.4380   -1.8670    0.0000 C.ar    1  LIG1       -0.0003
     23 C          -3.4380   -1.8540    0.0000 C.ar    1  LIG1       -0.0029
     24 O           0.0380   -0.9880    0.0000 O.2     1  LIG1       -0.2734
     25 C          -0.3750    1.6630    0.0000 C.3     1  LIG1        0.0285
     26 C           0.3710    2.3250    0.0000 C.3     1  LIG1        0.0211
     27 C           1.2380    1.8290    0.0000 C.3     1  LIG1        0.0964
     28 O           2.4420    0.7750    0.0000 O.2     1  LIG1       -0.1527
     29 O           0.9670   -0.5670    0.0000 O.2     1  LIG1       -0.1527
@<TRIPOS>BOND
     1     1     2    1
     2     1    11    1
     3     1    28    2
     4     1    29    2
     5     2     3   ar
     6     2    10   ar
     7     3     4   ar
     8     3     7   ar
     9     4     5   ar
    10     5     6   ar
    11     6     7   ar
    12     7     8   ar
    13     8     9   ar
    14     9    10   ar
    15    11    12    1
    16    11    27    1
    17    12    13    1
    18    12    25    1
    19    13    14   am
    20    13    24    2
    21    14    15    1
    22    14    19    1
    23    15    16    1
    24    16    17   ar
    25    16    23   ar
    26    17    18    1
    27    17    20   ar
    28    18    19    1
    29    20    21   ar
    30    21    22   ar
    31    22    23   ar
    32    25    26    1
    33    26    27    1
