@<TRIPOS>MOLECULE
37388_ChemDiv_C612-1361
 23 26 0 0 0
SMALL
GASTEIGER
Energy = 0

@<TRIPOS>ATOM
      1 N          -0.7130    0.3960    0.0000 N.am    1  LIG1       -0.1983
      2 C          -1.3040   -0.3880    0.0000 C.2     1  LIG1        0.2782
      3 C          -2.2210   -0.0790    0.0000 C.ar    1  LIG1        0.1574
      4 C          -2.2170    0.9000    0.0000 C.ar    1  LIG1        0.1574
      5 C          -1.2790    1.1880    0.0000 C.2     1  LIG1        0.2782
      6 O          -0.9710    2.1170    0.0000 O.2     1  LIG1       -0.2674
      7 N          -3.0540    1.4080    0.0000 N.ar    1  LIG1       -0.2359
      8 C          -3.9000    0.9130    0.0000 C.ar    1  LIG1        0.1196
      9 C          -3.9170   -0.0630    0.0000 C.ar    1  LIG1        0.1196
     10 N          -3.0750   -0.5500    0.0000 N.ar    1  LIG1       -0.2359
     11 O          -1.0080   -1.3170    0.0000 O.2     1  LIG1       -0.2674
     12 C           0.9210    0.4210    0.0000 C.ar    1  LIG1        0.0673
     13 C           1.3920   -0.4290    0.0000 C.ar    1  LIG1        0.0520
     14 C           2.3630   -0.4330    0.0000 C.ar    1  LIG1        0.0443
     15 C           2.8670    0.4130    0.0000 C.ar    1  LIG1        0.1766
     16 C           2.3790    1.2630    0.0000 C.ar    1  LIG1        0.1777
     17 C           1.4080    1.2630    0.0000 C.ar    1  LIG1        0.0556
     18 O           3.0290    1.9830    0.0000 O.3     1  LIG1       -0.4346
     19 C           3.9130    1.5830    0.0000 C.3     1  LIG1        0.4294
     20 O           3.8170    0.6130    0.0000 O.3     1  LIG1       -0.4346
     21 C           0.9000   -1.2670    0.0000 C.2     1  LIG1        0.1748
     22 O          -0.0710   -1.2540    0.0000 O.2     1  LIG1       -0.2913
     23 C           1.3790   -2.1130    0.0000 C.3     1  LIG1        0.0773
@<TRIPOS>BOND
     1     1     2   am
     2     1     5   am
     3     1    12    1
     4     2     3    1
     5     2    11    2
     6     3     4   ar
     7     3    10   ar
     8     4     5    1
     9     4     7   ar
    10     5     6    2
    11     7     8   ar
    12     8     9   ar
    13     9    10   ar
    14    12    13   ar
    15    12    17   ar
    16    13    14   ar
    17    13    21    1
    18    14    15   ar
    19    15    16   ar
    20    15    20    1
    21    16    17   ar
    22    16    18    1
    23    18    19    1
    24    19    20    1
    25    21    22    2
    26    21    23    1
