@<TRIPOS>MOLECULE
37386_ChemDiv_C612-1273
 29 32 0 0 0
SMALL
GASTEIGER
Energy = 0

@<TRIPOS>ATOM
      1 N          -0.2630   -1.0750    0.0000 N.ar    1  LIG1       -0.1836
      2 C          -0.2630   -0.0750    0.0000 C.ar    1  LIG1        0.1629
      3 C          -1.2210    0.2250    0.0000 C.ar    1  LIG1        0.1278
      4 C          -1.8000   -0.5750    0.0000 C.ar    1  LIG1        0.1101
      5 N          -1.2210   -1.3960    0.0000 N.ar    1  LIG1       -0.1633
      6 C          -2.7960   -0.5750    0.0000 C.ar    1  LIG1        0.0197
      7 C          -3.2960    0.2920    0.0000 C.ar    1  LIG1        0.0024
      8 C          -4.2960    0.2920    0.0000 C.ar    1  LIG1        0.0114
      9 C          -4.7960   -0.5750    0.0000 C.ar    1  LIG1        0.0577
     10 C          -4.2960   -1.4500    0.0000 C.ar    1  LIG1        0.0114
     11 C          -3.2960   -1.4420    0.0000 C.ar    1  LIG1        0.0024
     12 CL         -5.7960   -0.5750    0.0000 Cl      1  LIG1       -0.0822
     13 C          -1.5210    1.1830    0.0000 C.2     1  LIG1        0.3455
     14 O          -0.8540    1.9250    0.0000 O.2     1  LIG1       -0.2447
     15 O          -2.4920    1.3920    0.0000 O.3     1  LIG1       -0.4453
     16 C          -2.8000    2.3500    0.0000 C.3     1  LIG1        0.2089
     17 C          -2.1460    3.0920    0.0000 C.3     1  LIG1        0.0513
     18 N           0.6000    0.4250    0.0000 N.pl3   1  LIG1       -0.1633
     19 C           1.4630   -0.0750    0.0000 C.3     1  LIG1        0.2648
     20 N           1.4630   -1.0750    0.0000 N.4     1  LIG1        0.4142
     21 C           0.6000   -1.5750    0.0000 C.3     1  LIG1        0.2789
     22 C           2.3380   -1.5750    0.0000 C.3     1  LIG1        0.1488
     23 C           3.2040   -1.0750    0.0000 C.3     1  LIG1        0.0892
     24 C           4.0710   -1.5880    0.0000 C.ar    1  LIG1       -0.0162
     25 C           4.0540   -2.5880    0.0000 C.ar    1  LIG1       -0.0041
     26 C           4.9170   -3.0880    0.0000 C.ar    1  LIG1       -0.0003
     27 C           5.7920   -2.5920    0.0000 C.ar    1  LIG1       -0.0000
     28 C           5.7920   -1.5880    0.0000 C.ar    1  LIG1       -0.0003
     29 C           4.9290   -1.0880    0.0000 C.ar    1  LIG1       -0.0041
@<TRIPOS>BOND
     1     1     2   ar
     2     1     5   ar
     3     1    21    1
     4     2     3   ar
     5     2    18    1
     6     3     4   ar
     7     3    13    1
     8     4     5   ar
     9     4     6    1
    10     6     7   ar
    11     6    11   ar
    12     7     8   ar
    13     8     9   ar
    14     9    10   ar
    15     9    12    1
    16    10    11   ar
    17    13    14    2
    18    13    15    1
    19    15    16    1
    20    16    17    1
    21    18    19    1
    22    19    20    1
    23    20    21    1
    24    20    22    1
    25    22    23    1
    26    23    24    1
    27    24    25   ar
    28    24    29   ar
    29    25    26   ar
    30    26    27   ar
    31    27    28   ar
    32    28    29   ar
