@<TRIPOS>MOLECULE
37382_ChemDiv_C612-0770
 22 24 0 0 0
SMALL
GASTEIGER
Energy = 0

@<TRIPOS>ATOM
      1 N          -0.6420   -0.3170    0.0000 N.am    1  LIG1       -0.1955
      2 C          -1.2250   -1.1210    0.0000 C.2     1  LIG1        0.2783
      3 C          -2.1750   -0.8170    0.0000 C.ar    1  LIG1        0.1574
      4 C          -2.1750    0.1830    0.0000 C.ar    1  LIG1        0.1574
      5 C          -1.2250    0.4880    0.0000 C.2     1  LIG1        0.2783
      6 O          -0.9170    1.4460    0.0000 O.2     1  LIG1       -0.2674
      7 N          -3.0380    0.6830    0.0000 N.ar    1  LIG1       -0.2359
      8 C          -3.9040    0.1830    0.0000 C.ar    1  LIG1        0.1196
      9 C          -3.9040   -0.8170    0.0000 C.ar    1  LIG1        0.1196
     10 N          -3.0380   -1.3170    0.0000 N.ar    1  LIG1       -0.2359
     11 O          -0.9170   -2.0750    0.0000 O.2     1  LIG1       -0.2674
     12 C           0.3670   -0.3750    0.0000 C.ar    1  LIG1        0.0962
     13 C           0.8380   -1.2580    0.0000 C.ar    1  LIG1        0.0329
     14 C           1.8380   -1.3040    0.0000 C.ar    1  LIG1        0.0930
     15 C           2.3710   -0.4500    0.0000 C.ar    1  LIG1        0.1523
     16 C           1.9000    0.4290    0.0000 C.ar    1  LIG1        0.0759
     17 C           0.9000    0.4710    0.0000 C.ar    1  LIG1        0.1557
     18 O           0.4420    1.3540    0.0000 O.3     1  LIG1       -0.4701
     19 C           0.9790    2.1960    0.0000 C.3     1  LIG1        0.2525
     20 O           3.3710   -0.4830    0.0000 O.3     1  LIG1       -0.4705
     21 C           3.9000    0.3630    0.0000 C.3     1  LIG1        0.2525
     22 CL          2.2960   -2.1920    0.0000 Cl      1  LIG1       -0.0790
@<TRIPOS>BOND
     1     1     2   am
     2     1     5   am
     3     1    12    1
     4     2     3    1
     5     2    11    2
     6     3     4   ar
     7     3    10   ar
     8     4     5    1
     9     4     7   ar
    10     5     6    2
    11     7     8   ar
    12     8     9   ar
    13     9    10   ar
    14    12    13   ar
    15    12    17   ar
    16    13    14   ar
    17    14    15   ar
    18    14    22    1
    19    15    16   ar
    20    15    20    1
    21    16    17   ar
    22    17    18    1
    23    18    19    1
    24    20    21    1
