@<TRIPOS>MOLECULE
37383_ChemDiv_C470-0175
 35 39 0 0 0
SMALL
GASTEIGER
Energy = 0

@<TRIPOS>ATOM
      1 C          -0.9920    1.4290    0.0000 C.ar    1  LIG1        0.1528
      2 C          -0.9880    0.4330    0.0000 C.ar    1  LIG1        0.1694
      3 N          -1.8580   -0.0670    0.0000 N.ar    1  LIG1       -0.2628
      4 C          -2.7170    0.4290    0.0000 C.ar    1  LIG1        0.3350
      5 N          -2.7170    1.4290    0.0000 N.ar    1  LIG1       -0.2454
      6 C          -1.8580    1.9460    0.0000 C.ar    1  LIG1        0.2832
      7 O          -1.8580    2.9420    0.0000 O.2     1  LIG1       -0.2652
      8 C          -3.5880    1.9330    0.0000 C.3     1  LIG1        0.1383
      9 O          -3.5880   -0.0710    0.0000 O.2     1  LIG1       -0.2461
     10 C          -1.8580   -1.0670    0.0000 C.3     1  LIG1        0.1366
     11 N          -0.0380    0.1290    0.0000 N.ar    1  LIG1       -0.2076
     12 C           0.5460    0.9460    0.0000 C.ar    1  LIG1        0.1803
     13 N          -0.0460    1.7500    0.0000 N.ar    1  LIG1       -0.3010
     14 C           0.2580    2.7040    0.0000 C.3     1  LIG1        0.1339
     15 C          -0.4170    3.4330    0.0000 C.ar    1  LIG1       -0.0035
     16 C          -0.1080    4.3710    0.0000 C.ar    1  LIG1       -0.0240
     17 C           0.8670    4.5960    0.0000 C.3     1  LIG1        0.0308
     18 C          -0.7880    5.1130    0.0000 C.ar    1  LIG1       -0.0045
     19 C          -1.7670    4.9000    0.0000 C.ar    1  LIG1       -0.0003
     20 C          -2.0710    3.9580    0.0000 C.ar    1  LIG1       -0.0003
     21 C          -1.3960    3.2170    0.0000 C.ar    1  LIG1       -0.0027
     22 C           1.5500    0.9500    0.0000 C.3     1  LIG1        0.2036
     23 N           2.0500    0.0960    0.0000 N.4     1  LIG1        0.3831
     24 C           1.5580   -0.7790    0.0000 C.3     1  LIG1        0.1392
     25 C           2.0670   -1.6460    0.0000 C.3     1  LIG1        0.0633
     26 C           3.0670   -1.6500    0.0000 C.3     1  LIG1        0.0162
     27 C           3.5710   -2.5130    0.0000 C.3     1  LIG1        0.0268
     28 C           3.0790   -3.3830    0.0000 C.ar    1  LIG1       -0.0222
     29 C           2.0750   -3.3790    0.0000 C.ar    1  LIG1       -0.0043
     30 C           1.5790   -4.2420    0.0000 C.ar    1  LIG1       -0.0003
     31 C           2.0960   -5.1130    0.0000 C.ar    1  LIG1       -0.0000
     32 C           3.0830   -5.1000    0.0000 C.ar    1  LIG1       -0.0003
     33 C           3.5830   -4.2330    0.0000 C.ar    1  LIG1       -0.0043
     34 C           3.5540   -0.7710    0.0000 C.3     1  LIG1        0.0633
     35 C           3.0540    0.0960    0.0000 C.3     1  LIG1        0.1392
@<TRIPOS>BOND
     1     1     2   ar
     2     1     6   ar
     3     1    13   ar
     4     2     3   ar
     5     2    11   ar
     6     3     4   ar
     7     3    10    1
     8     4     5   ar
     9     4     9    2
    10     5     6   ar
    11     5     8    1
    12     6     7    2
    13    11    12   ar
    14    12    13   ar
    15    12    22    1
    16    13    14    1
    17    14    15    1
    18    15    16   ar
    19    15    21   ar
    20    16    17    1
    21    16    18   ar
    22    18    19   ar
    23    19    20   ar
    24    20    21   ar
    25    22    23    1
    26    23    24    1
    27    23    35    1
    28    24    25    1
    29    25    26    1
    30    26    27    1
    31    26    34    1
    32    27    28    1
    33    28    29   ar
    34    28    33   ar
    35    29    30   ar
    36    30    31   ar
    37    31    32   ar
    38    32    33   ar
    39    34    35    1
