@<TRIPOS>MOLECULE
37384_ChemDiv_C612-1256
 25 28 0 0 0
SMALL
GASTEIGER
Energy = 0

@<TRIPOS>ATOM
      1 C          -2.6210    0.2880    0.0000 C.ar    1  LIG1        0.1551
      2 N          -2.6210   -0.7080    0.0000 N.ar    1  LIG1       -0.2192
      3 N          -3.5710   -1.0250    0.0000 N.ar    1  LIG1       -0.1650
      4 C          -4.1630   -0.2080    0.0000 C.ar    1  LIG1        0.1295
      5 C          -3.5710    0.5960    0.0000 C.ar    1  LIG1        0.1291
      6 C          -3.8790    1.5540    0.0000 C.2     1  LIG1        0.3457
      7 O          -3.2130    2.2960    0.0000 O.2     1  LIG1       -0.2447
      8 O          -4.8540    1.7670    0.0000 O.3     1  LIG1       -0.4412
      9 C          -5.1630    2.7170    0.0000 C.3     1  LIG1        0.2560
     10 C          -1.7630   -1.2130    0.0000 C.3     1  LIG1        0.2057
     11 N          -0.8880   -0.7080    0.0000 N.3     1  LIG1       -0.2279
     12 C          -0.8880    0.2880    0.0000 C.3     1  LIG1        0.1905
     13 N          -1.7630    0.7880    0.0000 N.pl3   1  LIG1       -0.2020
     14 C          -0.0210   -1.2130    0.0000 C.3     1  LIG1        0.1385
     15 C           0.8420   -0.7080    0.0000 C.3     1  LIG1        0.1568
     16 N           1.7040   -1.2040    0.0000 N.4     1  LIG1        0.3821
     17 C           2.5630   -0.7080    0.0000 C.3     1  LIG1        0.1659
     18 C           3.4330   -1.2040    0.0000 C.ar    1  LIG1        0.0306
     19 C           3.4250   -2.2080    0.0000 C.ar    1  LIG1       -0.0147
     20 C           2.5630   -2.7080    0.0000 C.3     1  LIG1        0.0889
     21 C           1.7000   -2.2080    0.0000 C.3     1  LIG1        0.1438
     22 C           4.2830   -2.7130    0.0000 C.ar    1  LIG1       -0.0042
     23 C           5.1580   -2.2130    0.0000 C.ar    1  LIG1       -0.0003
     24 C           5.1580   -1.2040    0.0000 C.ar    1  LIG1       -0.0001
     25 C           4.2880   -0.7080    0.0000 C.ar    1  LIG1        0.0011
@<TRIPOS>BOND
     1     1     2   ar
     2     1     5   ar
     3     1    13    1
     4     2     3   ar
     5     2    10    1
     6     3     4   ar
     7     4     5   ar
     8     5     6    1
     9     6     7    2
    10     6     8    1
    11     8     9    1
    12    10    11    1
    13    11    12    1
    14    11    14    1
    15    12    13    1
    16    14    15    1
    17    15    16    1
    18    16    17    1
    19    16    21    1
    20    17    18    1
    21    18    19   ar
    22    18    25   ar
    23    19    20    1
    24    19    22   ar
    25    20    21    1
    26    22    23   ar
    27    23    24   ar
    28    24    25   ar
