@<TRIPOS>MOLECULE
37381_ChemDiv_C692-0623
 24 26 0 0 0
SMALL
GASTEIGER
Energy = 0

@<TRIPOS>ATOM
      1 C          -0.9540   -0.3380    0.0000 C.ar    1  LIG1        0.1545
      2 C          -0.9540    0.6750    0.0000 C.ar    1  LIG1        0.1695
      3 N          -0.0080    0.9710    0.0000 N.ar    1  LIG1       -0.2076
      4 C           0.5630    0.1630    0.0000 C.ar    1  LIG1        0.1803
      5 N          -0.0080   -0.6380    0.0000 N.ar    1  LIG1       -0.3003
      6 C           0.3210   -1.6000    0.0000 C.3     1  LIG1        0.1443
      7 C           1.3040   -1.7920    0.0000 C.2     1  LIG1        0.1715
      8 O           1.6040   -2.7420    0.0000 O.2     1  LIG1       -0.2941
      9 C           1.9580   -1.0630    0.0000 C.3     1  LIG1        0.0743
     10 C          -0.3420   -2.3630    0.0000 C.3     1  LIG1        0.0326
     11 C           1.5670    0.1420    0.0000 C.3     1  LIG1        0.2038
     12 N           2.0580    1.0040    0.0000 N.4     1  LIG1        0.3871
     13 C           3.0670    1.0040    0.0000 C.3     1  LIG1        0.1719
     14 C           3.5630    1.8540    0.0000 C.3     1  LIG1        0.2048
     15 O           3.0670    2.7330    0.0000 O.3     1  LIG1       -0.3411
     16 C           2.0580    2.7460    0.0000 C.3     1  LIG1        0.2048
     17 C           1.5670    1.8750    0.0000 C.3     1  LIG1        0.1719
     18 N          -1.8130    1.1630    0.0000 N.ar    1  LIG1       -0.2614
     19 C          -2.6830    0.6750    0.0000 C.ar    1  LIG1        0.3540
     20 N          -2.6830   -0.3380    0.0000 N.ar    1  LIG1       -0.1518
     21 C          -1.8130   -0.8290    0.0000 C.ar    1  LIG1        0.3019
     22 O          -1.8130   -1.8380    0.0000 O.2     1  LIG1       -0.2634
     23 O          -3.5670    1.1630    0.0000 O.2     1  LIG1       -0.2443
     24 C          -1.8130    2.1750    0.0000 C.3     1  LIG1        0.1367
@<TRIPOS>BOND
     1     1     2   ar
     2     1     5   ar
     3     1    21   ar
     4     2     3   ar
     5     2    18   ar
     6     3     4   ar
     7     4     5   ar
     8     4    11    1
     9     5     6    1
    10     6     7    1
    11     6    10    1
    12     7     8    2
    13     7     9    1
    14    11    12    1
    15    12    13    1
    16    12    17    1
    17    13    14    1
    18    14    15    1
    19    15    16    1
    20    16    17    1
    21    18    19   ar
    22    18    24    1
    23    19    20   ar
    24    19    23    2
    25    20    21   ar
    26    21    22    2
