@<TRIPOS>MOLECULE
37393_ChemDiv_C527-1036
 30 32 0 0 0
SMALL
GASTEIGER
Energy = 0

@<TRIPOS>ATOM
      1 N           1.3330   -2.4500    0.0000 N.ar    1  LIG1       -0.2120
      2 C           2.1420   -1.8580    0.0000 C.ar    1  LIG1        0.1058
      3 C           2.9420   -2.4500    0.0000 C.ar    1  LIG1        0.1395
      4 O           2.6330   -3.4000    0.0000 O.2     1  LIG1       -0.4392
      5 C           1.6500   -3.4000    0.0000 C.ar    1  LIG1        0.2290
      6 C           1.0580   -4.2040    0.0000 C.ar    1  LIG1        0.0536
      7 C           0.0540   -4.0960    0.0000 C.ar    1  LIG1        0.0055
      8 C          -0.5250   -4.9040    0.0000 C.ar    1  LIG1        0.0115
      9 C          -0.1290   -5.8170    0.0000 C.ar    1  LIG1        0.0577
     10 C           0.8790   -5.9170    0.0000 C.ar    1  LIG1        0.0115
     11 C           1.4500   -5.1000    0.0000 C.ar    1  LIG1        0.0055
     12 CL         -0.7130   -6.6500    0.0000 Cl      1  LIG1       -0.0822
     13 C           3.9000   -2.1330    0.0000 C.3     1  LIG1        0.0739
     14 C           2.1580   -0.8580    0.0000 C.3     1  LIG1        0.1406
     15 S           1.3000   -0.3420    0.0000 S.O     1  LIG1        0.0573
     16 C           1.3130    0.6580    0.0000 C.3     1  LIG1        0.1785
     17 C           0.4460    1.1670    0.0000 C.2     1  LIG1        0.2551
     18 O          -0.4210    0.6580    0.0000 O.2     1  LIG1       -0.2723
     19 N           0.4330    2.1670    0.0000 N.am    1  LIG1       -0.2031
     20 C          -0.4330    2.6580    0.0000 C.3     1  LIG1        0.1324
     21 C          -0.4330    3.6540    0.0000 C.3     1  LIG1        0.0961
     22 N          -1.3040    4.1630    0.0000 N.3     1  LIG1       -0.2611
     23 C          -2.1710    3.6670    0.0000 C.3     1  LIG1        0.1359
     24 C          -3.0330    4.1540    0.0000 C.3     1  LIG1        0.1563
     25 N          -3.0330    5.1420    0.0000 N.4     1  LIG1        0.3794
     26 C          -2.1710    5.6500    0.0000 C.3     1  LIG1        0.1563
     27 C          -1.3000    5.1670    0.0000 C.3     1  LIG1        0.1359
     28 C          -3.9040    5.6420    0.0000 C.3     1  LIG1        0.1389
     29 C          -3.9040    6.6500    0.0000 C.3     1  LIG1        0.0688
     30 O           0.4330   -0.8380    0.0000 O.2     1  LIG1       -0.2550
@<TRIPOS>BOND
     1     1     2   ar
     2     1     5   ar
     3     2     3   ar
     4     2    14    1
     5     3     4   ar
     6     3    13    1
     7     4     5   ar
     8     5     6    1
     9     6     7   ar
    10     6    11   ar
    11     7     8   ar
    12     8     9   ar
    13     9    10   ar
    14     9    12    1
    15    10    11   ar
    16    14    15    1
    17    15    16    1
    18    15    30    2
    19    16    17    1
    20    17    18    2
    21    17    19   am
    22    19    20    1
    23    20    21    1
    24    21    22    1
    25    22    23    1
    26    22    27    1
    27    23    24    1
    28    24    25    1
    29    25    26    1
    30    25    28    1
    31    26    27    1
    32    28    29    1
