@<TRIPOS>MOLECULE
37396_ChemDiv_C548-3299
 31 34 0 0 0
SMALL
GASTEIGER
Energy = 0

@<TRIPOS>ATOM
      1 S           1.7130    0.7500    0.0000 S.O2    1  LIG1        0.0652
      2 C           2.3960    0.0080    0.0000 C.ar    1  LIG1        0.1419
      3 C           3.3630    0.2250    0.0000 C.ar    1  LIG1        0.1273
      4 N           3.8500    1.1000    0.0000 N.ar    1  LIG1       -0.1888
      5 S           4.8380    0.9040    0.0000 S.2     1  LIG1        0.1165
      6 N           4.9630   -0.0880    0.0000 N.ar    1  LIG1       -0.1901
      7 C           4.0460   -0.5080    0.0000 C.ar    1  LIG1        0.1102
      8 C           3.7460   -1.4670    0.0000 C.ar    1  LIG1        0.0214
      9 C           2.7670   -1.6750    0.0000 C.ar    1  LIG1        0.0030
     10 C           2.0960   -0.9420    0.0000 C.ar    1  LIG1        0.0216
     11 N           1.0540    1.4920    0.0000 N.3     1  LIG1       -0.1481
     12 C           0.0540    1.3880    0.0000 C.3     1  LIG1        0.1556
     13 C          -0.4500    0.5210    0.0000 C.2     1  LIG1        0.2420
     14 N          -1.4500    0.5210    0.0000 N.am    1  LIG1       -0.2743
     15 C          -1.9540    1.3880    0.0000 C.3     1  LIG1        0.1202
     16 C          -2.9540    1.3580    0.0000 C.ar    1  LIG1       -0.0023
     17 C          -3.4790    2.2250    0.0000 C.ar    1  LIG1       -0.0026
     18 C          -4.4790    2.2040    0.0000 C.ar    1  LIG1       -0.0003
     19 C          -4.9670    1.3380    0.0000 C.ar    1  LIG1       -0.0000
     20 C          -4.4420    0.4710    0.0000 C.ar    1  LIG1       -0.0003
     21 C          -3.4290    0.4920    0.0000 C.ar    1  LIG1       -0.0026
     22 C          -1.9540   -0.3420    0.0000 C.3     1  LIG1        0.0938
     23 C          -1.4830   -1.2080    0.0000 C.3     1  LIG1        0.0215
     24 C          -1.9670   -2.0880    0.0000 C.3     1  LIG1        0.0018
     25 C          -1.5000   -2.9630    0.0000 C.3     1  LIG1        0.0001
     26 O           0.0540   -0.3420    0.0000 O.2     1  LIG1       -0.2734
     27 C          -0.3580    2.3040    0.0000 C.3     1  LIG1        0.0285
     28 C           0.3830    2.9670    0.0000 C.3     1  LIG1        0.0211
     29 C           1.2500    2.4710    0.0000 C.3     1  LIG1        0.0964
     30 O           0.9830    0.0790    0.0000 O.2     1  LIG1       -0.1527
     31 O           2.4580    1.4210    0.0000 O.2     1  LIG1       -0.1527
@<TRIPOS>BOND
     1     1     2    1
     2     1    11    1
     3     1    30    2
     4     1    31    2
     5     2     3   ar
     6     2    10   ar
     7     3     4   ar
     8     3     7   ar
     9     4     5   ar
    10     5     6   ar
    11     6     7   ar
    12     7     8   ar
    13     8     9   ar
    14     9    10   ar
    15    11    12    1
    16    11    29    1
    17    12    13    1
    18    12    27    1
    19    13    14   am
    20    13    26    2
    21    14    15    1
    22    14    22    1
    23    15    16    1
    24    16    17   ar
    25    16    21   ar
    26    17    18   ar
    27    18    19   ar
    28    19    20   ar
    29    20    21   ar
    30    22    23    1
    31    23    24    1
    32    24    25    1
    33    27    28    1
    34    28    29    1
