@<TRIPOS>MOLECULE
37390_ChemDiv_C612-1363
 20 22 0 0 0
SMALL
GASTEIGER
Energy = 0

@<TRIPOS>ATOM
      1 N          -0.3750   -0.4130    0.0000 N.am    1  LIG1       -0.2159
      2 C          -0.9540   -1.2170    0.0000 C.2     1  LIG1        0.2747
      3 C          -1.9040   -0.9130    0.0000 C.ar    1  LIG1        0.1571
      4 C          -1.9040    0.0880    0.0000 C.ar    1  LIG1        0.1571
      5 C          -0.9540    0.3920    0.0000 C.2     1  LIG1        0.2747
      6 O          -0.6500    1.3460    0.0000 O.2     1  LIG1       -0.2678
      7 N          -2.7670    0.5830    0.0000 N.ar    1  LIG1       -0.2359
      8 C          -3.6380    0.0880    0.0000 C.ar    1  LIG1        0.1196
      9 C          -3.6380   -0.9130    0.0000 C.ar    1  LIG1        0.1196
     10 N          -2.7670   -1.4130    0.0000 N.ar    1  LIG1       -0.2359
     11 O          -0.6500   -2.1710    0.0000 O.2     1  LIG1       -0.2678
     12 C           0.6250   -0.4250    0.0000 C.3     1  LIG1        0.1311
     13 C           1.1250    0.4380    0.0000 C.ar    1  LIG1        0.0321
     14 C           2.1330    0.4380    0.0000 C.ar    1  LIG1        0.1363
     15 O           2.6330   -0.4250    0.0000 O.3     1  LIG1       -0.4717
     16 C           3.6330   -0.4290    0.0000 C.3     1  LIG1        0.2525
     17 C           2.6330    1.3000    0.0000 C.ar    1  LIG1        0.0366
     18 C           2.1330    2.1750    0.0000 C.ar    1  LIG1        0.0031
     19 C           1.1250    2.1750    0.0000 C.ar    1  LIG1       -0.0001
     20 C           0.6250    1.3130    0.0000 C.ar    1  LIG1        0.0004
@<TRIPOS>BOND
     1     1     2   am
     2     1     5   am
     3     1    12    1
     4     2     3    1
     5     2    11    2
     6     3     4   ar
     7     3    10   ar
     8     4     5    1
     9     4     7   ar
    10     5     6    2
    11     7     8   ar
    12     8     9   ar
    13     9    10   ar
    14    12    13    1
    15    13    14   ar
    16    13    20   ar
    17    14    15    1
    18    14    17   ar
    19    15    16    1
    20    17    18   ar
    21    18    19   ar
    22    19    20   ar
