@<TRIPOS>MOLECULE
37397_ChemDiv_C527-1645
 33 36 0 0 0
SMALL
GASTEIGER
Energy = 0

@<TRIPOS>ATOM
      1 N           0.4540   -2.4040    0.0000 N.ar    1  LIG1       -0.2120
      2 C           1.2040   -1.7380    0.0000 C.ar    1  LIG1        0.1058
      3 C           2.0630   -2.2330    0.0000 C.ar    1  LIG1        0.1395
      4 O           1.8540   -3.2080    0.0000 O.2     1  LIG1       -0.4392
      5 C           0.8580   -3.3080    0.0000 C.ar    1  LIG1        0.2291
      6 C           0.3170   -4.1420    0.0000 C.ar    1  LIG1        0.0568
      7 C           0.7670   -5.0210    0.0000 C.ar    1  LIG1        0.0447
      8 C           0.2130   -5.8670    0.0000 C.ar    1  LIG1        0.1725
      9 C          -0.7830   -5.8040    0.0000 C.ar    1  LIG1        0.1724
     10 C          -1.2420   -4.9170    0.0000 C.ar    1  LIG1        0.0402
     11 C          -0.6960   -4.0750    0.0000 C.ar    1  LIG1        0.0080
     12 O          -1.3330   -6.6460    0.0000 O.3     1  LIG1       -0.4684
     13 C          -2.3290   -6.5960    0.0000 C.3     1  LIG1        0.2526
     14 O           0.6670   -6.7750    0.0000 O.3     1  LIG1       -0.4684
     15 C           1.6710   -6.8380    0.0000 C.3     1  LIG1        0.2526
     16 C           2.9920   -1.8290    0.0000 C.3     1  LIG1        0.0739
     17 C           1.2040   -0.7290    0.0000 C.3     1  LIG1        0.1406
     18 S           0.3330   -0.2290    0.0000 S.O     1  LIG1        0.0573
     19 C           0.3330    0.7670    0.0000 C.3     1  LIG1        0.1785
     20 C          -0.5330    1.2670    0.0000 C.2     1  LIG1        0.2554
     21 N          -0.5330    2.2710    0.0000 N.am    1  LIG1       -0.1997
     22 C          -1.3920    2.7710    0.0000 C.3     1  LIG1        0.1416
     23 C          -1.3920    3.7670    0.0000 C.ar    1  LIG1        0.0027
     24 C          -2.2540    4.2630    0.0000 C.ar    1  LIG1        0.0376
     25 C          -2.2540    5.2710    0.0000 C.ar    1  LIG1        0.1762
     26 C          -1.3920    5.7670    0.0000 C.ar    1  LIG1        0.1764
     27 O          -1.6000    6.7380    0.0000 O.3     1  LIG1       -0.4346
     28 C          -2.6000    6.8380    0.0000 C.3     1  LIG1        0.4294
     29 O          -2.9960    5.9460    0.0000 O.3     1  LIG1       -0.4346
     30 C          -0.5330    5.2710    0.0000 C.ar    1  LIG1        0.0399
     31 C          -0.5330    4.2630    0.0000 C.ar    1  LIG1        0.0008
     32 O          -1.3920    0.7670    0.0000 O.2     1  LIG1       -0.2723
     33 O          -0.5330   -0.7290    0.0000 O.2     1  LIG1       -0.2550
@<TRIPOS>BOND
     1     1     2   ar
     2     1     5   ar
     3     2     3   ar
     4     2    17    1
     5     3     4   ar
     6     3    16    1
     7     4     5   ar
     8     5     6    1
     9     6     7   ar
    10     6    11   ar
    11     7     8   ar
    12     8     9   ar
    13     8    14    1
    14     9    10   ar
    15     9    12    1
    16    10    11   ar
    17    12    13    1
    18    14    15    1
    19    17    18    1
    20    18    19    1
    21    18    33    2
    22    19    20    1
    23    20    21   am
    24    20    32    2
    25    21    22    1
    26    22    23    1
    27    23    24   ar
    28    23    31   ar
    29    24    25   ar
    30    25    26   ar
    31    25    29    1
    32    26    27    1
    33    26    30   ar
    34    27    28    1
    35    28    29    1
    36    30    31   ar
