@<TRIPOS>MOLECULE
37394_ChemDiv_C548-3274
 30 33 0 0 0
SMALL
GASTEIGER
Energy = 0

@<TRIPOS>ATOM
      1 S           2.4500    0.1040    0.0000 S.O2    1  LIG1        0.0652
      2 C           3.1330   -0.6380    0.0000 C.ar    1  LIG1        0.1419
      3 C           4.1000   -0.4210    0.0000 C.ar    1  LIG1        0.1273
      4 N           4.5880    0.4540    0.0000 N.ar    1  LIG1       -0.1888
      5 S           5.5750    0.2580    0.0000 S.2     1  LIG1        0.1165
      6 N           5.7000   -0.7290    0.0000 N.ar    1  LIG1       -0.1901
      7 C           4.7830   -1.1540    0.0000 C.ar    1  LIG1        0.1102
      8 C           4.4830   -2.1130    0.0000 C.ar    1  LIG1        0.0214
      9 C           3.5040   -2.3170    0.0000 C.ar    1  LIG1        0.0030
     10 C           2.8330   -1.5880    0.0000 C.ar    1  LIG1        0.0216
     11 N           1.7920    0.8460    0.0000 N.3     1  LIG1       -0.1480
     12 C           0.7920    0.7460    0.0000 C.3     1  LIG1        0.1571
     13 C           0.2880   -0.1210    0.0000 C.2     1  LIG1        0.2578
     14 N          -0.7130   -0.1210    0.0000 N.am    1  LIG1       -0.1994
     15 C          -1.2000   -0.9880    0.0000 C.3     1  LIG1        0.1415
     16 C          -2.1880   -0.9880    0.0000 C.ar    1  LIG1       -0.0006
     17 C          -2.6920   -0.1210    0.0000 C.ar    1  LIG1       -0.0025
     18 C          -3.7040   -0.1210    0.0000 C.ar    1  LIG1        0.0009
     19 C          -4.2000   -0.9880    0.0000 C.ar    1  LIG1        0.0140
     20 C          -5.1880   -0.9670    0.0000 C.2     1  LIG1        0.0729
     21 O          -5.7040   -1.8330    0.0000 O.co2   1  LIG1       -0.5446
     22 O          -5.7040   -0.1000    0.0000 O.co2   1  LIG1       -0.5446
     23 C          -3.6830   -1.8540    0.0000 C.ar    1  LIG1        0.0009
     24 C          -2.6920   -1.8540    0.0000 C.ar    1  LIG1       -0.0025
     25 O           0.7920   -0.9880    0.0000 O.2     1  LIG1       -0.2718
     26 C           0.3790    1.6630    0.0000 C.3     1  LIG1        0.0286
     27 C           1.1210    2.3210    0.0000 C.3     1  LIG1        0.0211
     28 C           1.9880    1.8250    0.0000 C.3     1  LIG1        0.0964
     29 O           3.1960    0.7750    0.0000 O.2     1  LIG1       -0.1527
     30 O           1.7210   -0.5670    0.0000 O.2     1  LIG1       -0.1527
@<TRIPOS>BOND
     1     1     2    1
     2     1    11    1
     3     1    29    2
     4     1    30    2
     5     2     3   ar
     6     2    10   ar
     7     3     4   ar
     8     3     7   ar
     9     4     5   ar
    10     5     6   ar
    11     6     7   ar
    12     7     8   ar
    13     8     9   ar
    14     9    10   ar
    15    11    12    1
    16    11    28    1
    17    12    13    1
    18    12    26    1
    19    13    14   am
    20    13    25    2
    21    14    15    1
    22    15    16    1
    23    16    17   ar
    24    16    24   ar
    25    17    18   ar
    26    18    19   ar
    27    19    20    1
    28    19    23   ar
    29    20    21   ar
    30    20    22   ar
    31    23    24   ar
    32    26    27    1
    33    27    28    1
