@<TRIPOS>MOLECULE
37399_ChemDiv_C527-1650
 29 30 0 0 0
SMALL
GASTEIGER
Energy = 0

@<TRIPOS>ATOM
      1 N           0.8960   -0.0130    0.0000 N.ar    1  LIG1       -0.2120
      2 C           1.7080    0.5790    0.0000 C.ar    1  LIG1        0.1058
      3 C           2.5080   -0.0130    0.0000 C.ar    1  LIG1        0.1395
      4 O           2.2040   -0.9580    0.0000 O.2     1  LIG1       -0.4392
      5 C           1.2080   -0.9580    0.0000 C.ar    1  LIG1        0.2291
      6 C           0.6250   -1.7670    0.0000 C.ar    1  LIG1        0.0568
      7 C           1.0170   -2.6790    0.0000 C.ar    1  LIG1        0.0447
      8 C           0.4250   -3.4960    0.0000 C.ar    1  LIG1        0.1725
      9 C          -0.5630   -3.3960    0.0000 C.ar    1  LIG1        0.1724
     10 C          -0.9630   -2.4830    0.0000 C.ar    1  LIG1        0.0402
     11 C          -0.3790   -1.6750    0.0000 C.ar    1  LIG1        0.0080
     12 O          -1.1630   -4.2040    0.0000 O.3     1  LIG1       -0.4684
     13 C          -0.7500   -5.1130    0.0000 C.3     1  LIG1        0.2526
     14 O           0.8330   -4.4170    0.0000 O.3     1  LIG1       -0.4684
     15 C           1.8290   -4.5210    0.0000 C.3     1  LIG1        0.2526
     16 C           3.4670    0.3040    0.0000 C.3     1  LIG1        0.0739
     17 C           1.7250    1.5830    0.0000 C.3     1  LIG1        0.1406
     18 S           0.8670    2.0960    0.0000 S.O     1  LIG1        0.0573
     19 C           0.8750    3.1000    0.0000 C.3     1  LIG1        0.1785
     20 C           0.0080    3.6040    0.0000 C.2     1  LIG1        0.2552
     21 N           0.0000    4.6040    0.0000 N.am    1  LIG1       -0.1992
     22 C          -0.8710    5.0960    0.0000 C.3     1  LIG1        0.1762
     23 C          -1.7210    4.6080    0.0000 C.3     1  LIG1        0.2579
     24 O          -1.7380    3.6170    0.0000 O.3     1  LIG1       -0.3265
     25 C          -2.6130    3.1290    0.0000 C.3     1  LIG1        0.1769
     26 O          -2.6040    5.1130    0.0000 O.3     1  LIG1       -0.3265
     27 C          -3.4710    4.6210    0.0000 C.3     1  LIG1        0.1769
     28 O          -0.8580    3.1000    0.0000 O.2     1  LIG1       -0.2723
     29 O           0.0000    1.6000    0.0000 O.2     1  LIG1       -0.2550
@<TRIPOS>BOND
     1     1     2   ar
     2     1     5   ar
     3     2     3   ar
     4     2    17    1
     5     3     4   ar
     6     3    16    1
     7     4     5   ar
     8     5     6    1
     9     6     7   ar
    10     6    11   ar
    11     7     8   ar
    12     8     9   ar
    13     8    14    1
    14     9    10   ar
    15     9    12    1
    16    10    11   ar
    17    12    13    1
    18    14    15    1
    19    17    18    1
    20    18    19    1
    21    18    29    2
    22    19    20    1
    23    20    21   am
    24    20    28    2
    25    21    22    1
    26    22    23    1
    27    23    24    1
    28    23    26    1
    29    24    25    1
    30    26    27    1
