@<TRIPOS>MOLECULE
37395_ChemDiv_C527-1606
 29 31 0 0 0
SMALL
GASTEIGER
Energy = 0

@<TRIPOS>ATOM
      1 N          -0.2580   -1.2630    0.0000 N.ar    1  LIG1       -0.2120
      2 C           0.5580   -0.6710    0.0000 C.ar    1  LIG1        0.1058
      3 C           1.3500   -1.2630    0.0000 C.ar    1  LIG1        0.1395
      4 O           1.0460   -2.2080    0.0000 O.2     1  LIG1       -0.4392
      5 C           0.0540   -2.2080    0.0000 C.ar    1  LIG1        0.2291
      6 C          -0.5290   -3.0130    0.0000 C.ar    1  LIG1        0.0568
      7 C          -0.1380   -3.9250    0.0000 C.ar    1  LIG1        0.0447
      8 C          -0.7330   -4.7460    0.0000 C.ar    1  LIG1        0.1725
      9 C          -1.7210   -4.6420    0.0000 C.ar    1  LIG1        0.1724
     10 C          -2.1130   -3.7290    0.0000 C.ar    1  LIG1        0.0402
     11 C          -1.5380   -2.9250    0.0000 C.ar    1  LIG1        0.0080
     12 O          -2.3130   -5.4500    0.0000 O.3     1  LIG1       -0.4684
     13 C          -1.9000   -6.3540    0.0000 C.3     1  LIG1        0.2526
     14 O          -0.3170   -5.6630    0.0000 O.3     1  LIG1       -0.4684
     15 C           0.6790   -5.7670    0.0000 C.3     1  LIG1        0.2526
     16 C           2.3080   -0.9460    0.0000 C.3     1  LIG1        0.0739
     17 C           0.5750    0.3330    0.0000 C.3     1  LIG1        0.1406
     18 S          -0.2880    0.8420    0.0000 S.O     1  LIG1        0.0573
     19 C          -0.2750    1.8460    0.0000 C.3     1  LIG1        0.1769
     20 C          -1.1460    2.3500    0.0000 C.2     1  LIG1        0.2397
     21 N          -1.1540    3.3540    0.0000 N.am    1  LIG1       -0.2673
     22 C          -2.0130    3.8330    0.0000 C.3     1  LIG1        0.1565
     23 C          -2.0210    4.8380    0.0000 C.3     1  LIG1        0.1608
     24 N          -1.1460    5.3380    0.0000 N.4     1  LIG1        0.3847
     25 C          -0.2880    4.8500    0.0000 C.3     1  LIG1        0.1608
     26 C          -0.2880    3.8460    0.0000 C.3     1  LIG1        0.1565
     27 C          -1.1630    6.3540    0.0000 C.3     1  LIG1        0.2024
     28 O          -2.0130    1.8460    0.0000 O.2     1  LIG1       -0.2738
     29 O          -1.1540    0.3460    0.0000 O.2     1  LIG1       -0.2550
@<TRIPOS>BOND
     1     1     2   ar
     2     1     5   ar
     3     2     3   ar
     4     2    17    1
     5     3     4   ar
     6     3    16    1
     7     4     5   ar
     8     5     6    1
     9     6     7   ar
    10     6    11   ar
    11     7     8   ar
    12     8     9   ar
    13     8    14    1
    14     9    10   ar
    15     9    12    1
    16    10    11   ar
    17    12    13    1
    18    14    15    1
    19    17    18    1
    20    18    19    1
    21    18    29    2
    22    19    20    1
    23    20    21   am
    24    20    28    2
    25    21    22    1
    26    21    26    1
    27    22    23    1
    28    23    24    1
    29    24    25    1
    30    24    27    1
    31    25    26    1
