@<TRIPOS>MOLECULE
37409_ChemDiv_C470-0362
 32 36 0 0 0
SMALL
GASTEIGER
Energy = 0

@<TRIPOS>ATOM
      1 C          -0.9790   -0.8920    0.0000 C.ar    1  LIG1        0.1528
      2 C          -0.9750   -1.8880    0.0000 C.ar    1  LIG1        0.1694
      3 N          -1.8420   -2.3880    0.0000 N.ar    1  LIG1       -0.2628
      4 C          -2.7040   -1.8920    0.0000 C.ar    1  LIG1        0.3350
      5 N          -2.7040   -0.8920    0.0000 N.ar    1  LIG1       -0.2454
      6 C          -1.8420   -0.3750    0.0000 C.ar    1  LIG1        0.2832
      7 O          -1.8420    0.6170    0.0000 O.2     1  LIG1       -0.2652
      8 C          -3.5750   -0.3920    0.0000 C.3     1  LIG1        0.1383
      9 O          -3.5750   -2.3920    0.0000 O.2     1  LIG1       -0.2461
     10 C          -1.8420   -3.3920    0.0000 C.3     1  LIG1        0.1366
     11 N          -0.0210   -2.1920    0.0000 N.ar    1  LIG1       -0.2076
     12 C           0.5630   -1.3750    0.0000 C.ar    1  LIG1        0.1803
     13 N          -0.0290   -0.5710    0.0000 N.ar    1  LIG1       -0.3010
     14 C           0.2710    0.3880    0.0000 C.3     1  LIG1        0.1343
     15 C          -0.4000    1.1080    0.0000 C.ar    1  LIG1        0.0004
     16 C          -0.0960    2.0540    0.0000 C.ar    1  LIG1       -0.0021
     17 C          -0.7670    2.7960    0.0000 C.ar    1  LIG1       -0.0002
     18 C          -1.7380    2.6000    0.0000 C.ar    1  LIG1       -0.0000
     19 C          -2.0500    1.6540    0.0000 C.ar    1  LIG1       -0.0003
     20 C          -1.3830    0.8960    0.0000 C.ar    1  LIG1       -0.0024
     21 C          -0.4460    3.7540    0.0000 C.ar    1  LIG1       -0.0000
     22 C           0.5330    3.9630    0.0000 C.ar    1  LIG1       -0.0000
     23 C           1.1960    3.2170    0.0000 C.ar    1  LIG1       -0.0000
     24 C           0.8790    2.2630    0.0000 C.ar    1  LIG1       -0.0003
     25 C           1.5630   -1.3710    0.0000 C.3     1  LIG1        0.2033
     26 N           2.0670   -2.2250    0.0000 N.4     1  LIG1        0.3788
     27 C           1.5750   -3.0920    0.0000 C.3     1  LIG1        0.0877
     28 C           0.5630   -3.1080    0.0000 C.3     1  LIG1        0.0626
     29 C           2.0790   -3.9580    0.0000 C.3     1  LIG1        0.0569
     30 C           3.0830   -3.9580    0.0000 C.3     1  LIG1        0.0120
     31 C           3.5710   -3.0920    0.0000 C.3     1  LIG1        0.0629
     32 C           3.0630   -2.2250    0.0000 C.3     1  LIG1        0.1389
@<TRIPOS>BOND
     1     1     2   ar
     2     1     6   ar
     3     1    13   ar
     4     2     3   ar
     5     2    11   ar
     6     3     4   ar
     7     3    10    1
     8     4     5   ar
     9     4     9    2
    10     5     6   ar
    11     5     8    1
    12     6     7    2
    13    11    12   ar
    14    12    13   ar
    15    12    25    1
    16    13    14    1
    17    14    15    1
    18    15    16   ar
    19    15    20   ar
    20    16    17   ar
    21    16    24   ar
    22    17    18   ar
    23    17    21   ar
    24    18    19   ar
    25    19    20   ar
    26    21    22   ar
    27    22    23   ar
    28    23    24   ar
    29    25    26    1
    30    26    27    1
    31    26    32    1
    32    27    28    1
    33    27    29    1
    34    29    30    1
    35    30    31    1
    36    31    32    1
