@<TRIPOS>MOLECULE
37405_ChemDiv_C527-2041
 28 31 0 0 0
SMALL
GASTEIGER
Energy = 0

@<TRIPOS>ATOM
      1 N           0.4540   -2.9920    0.0000 N.ar    1  LIG1       -0.2116
      2 C           1.2080   -2.3170    0.0000 C.ar    1  LIG1        0.1058
      3 C           2.0710   -2.8130    0.0000 C.ar    1  LIG1        0.1395
      4 O           1.8540   -3.7920    0.0000 O.2     1  LIG1       -0.4388
      5 C           0.8630   -3.8880    0.0000 C.ar    1  LIG1        0.2351
      6 C           0.3130   -4.7210    0.0000 C.ar    1  LIG1        0.0830
      7 S          -0.6920   -4.7210    0.0000 S.2     1  LIG1       -0.0818
      8 C          -1.0000   -5.6670    0.0000 C.ar    1  LIG1        0.0356
      9 C          -0.1880   -6.2670    0.0000 C.ar    1  LIG1        0.0076
     10 C           0.6170   -5.6750    0.0000 C.ar    1  LIG1        0.0117
     11 C           2.9960   -2.4040    0.0000 C.3     1  LIG1        0.0739
     12 C           1.2080   -1.3130    0.0000 C.3     1  LIG1        0.1406
     13 S           0.3330   -0.8130    0.0000 S.O     1  LIG1        0.0573
     14 C           0.3330    0.1920    0.0000 C.3     1  LIG1        0.1785
     15 C          -0.5290    0.6960    0.0000 C.2     1  LIG1        0.2554
     16 N          -0.5290    1.6920    0.0000 N.am    1  LIG1       -0.1997
     17 C          -1.3920    2.1920    0.0000 C.3     1  LIG1        0.1416
     18 C          -1.3920    3.1880    0.0000 C.ar    1  LIG1        0.0027
     19 C          -2.2500    3.6920    0.0000 C.ar    1  LIG1        0.0376
     20 C          -2.2500    4.6880    0.0000 C.ar    1  LIG1        0.1762
     21 C          -1.3920    5.1830    0.0000 C.ar    1  LIG1        0.1764
     22 O          -1.6000    6.1630    0.0000 O.3     1  LIG1       -0.4346
     23 C          -2.6000    6.2670    0.0000 C.3     1  LIG1        0.4294
     24 O          -3.0000    5.3630    0.0000 O.3     1  LIG1       -0.4346
     25 C          -0.5290    4.6880    0.0000 C.ar    1  LIG1        0.0399
     26 C          -0.5290    3.6920    0.0000 C.ar    1  LIG1        0.0008
     27 O          -1.3920    0.1920    0.0000 O.2     1  LIG1       -0.2723
     28 O          -0.5290   -1.3130    0.0000 O.2     1  LIG1       -0.2550
@<TRIPOS>BOND
     1     1     2   ar
     2     1     5   ar
     3     2     3   ar
     4     2    12    1
     5     3     4   ar
     6     3    11    1
     7     4     5   ar
     8     5     6    1
     9     6     7   ar
    10     6    10   ar
    11     7     8   ar
    12     8     9   ar
    13     9    10   ar
    14    12    13    1
    15    13    14    1
    16    13    28    2
    17    14    15    1
    18    15    16   am
    19    15    27    2
    20    16    17    1
    21    17    18    1
    22    18    19   ar
    23    18    26   ar
    24    19    20   ar
    25    20    21   ar
    26    20    24    1
    27    21    22    1
    28    21    25   ar
    29    22    23    1
    30    23    24    1
    31    25    26   ar
