@<TRIPOS>MOLECULE
37404_ChemDiv_C561-0862
 33 37 0 0 0
SMALL
GASTEIGER
Energy = 0

@<TRIPOS>ATOM
      1 N           2.3500   -0.0130    0.0000 N.ar    1  LIG1       -0.2165
      2 C           2.3500   -1.0000    0.0000 C.ar    1  LIG1        0.1645
      3 N           1.4710   -1.4960    0.0000 N.ar    1  LIG1       -0.2311
      4 C           0.6210   -1.0000    0.0000 C.ar    1  LIG1        0.0582
      5 C           0.6250    0.0000    0.0000 C.ar    1  LIG1        0.0056
      6 C           1.4880    0.5000    0.0000 C.ar    1  LIG1        0.0596
      7 C           1.4880    1.4960    0.0000 C.3     1  LIG1        0.0519
      8 C          -0.2380    0.5000    0.0000 C.3     1  LIG1        0.0384
      9 C          -1.1040    0.0000    0.0000 C.3     1  LIG1        0.0916
     10 C          -1.9750    0.5000    0.0000 C.2     1  LIG1        0.2420
     11 N          -2.8380    0.0000    0.0000 N.am    1  LIG1       -0.2005
     12 C          -3.7040    0.5130    0.0000 C.3     1  LIG1        0.1416
     13 C          -4.5750    0.0170    0.0000 C.ar    1  LIG1        0.0027
     14 C          -5.4420    0.5170    0.0000 C.ar    1  LIG1        0.0376
     15 C          -6.3080    0.0210    0.0000 C.ar    1  LIG1        0.1762
     16 C          -6.3080   -0.9830    0.0000 C.ar    1  LIG1        0.1764
     17 O          -7.2670   -1.2960    0.0000 O.3     1  LIG1       -0.4346
     18 C          -7.8670   -0.4710    0.0000 C.3     1  LIG1        0.4294
     19 O          -7.2670    0.3330    0.0000 O.3     1  LIG1       -0.4346
     20 C          -5.4420   -1.4830    0.0000 C.ar    1  LIG1        0.0399
     21 C          -4.5750   -0.9830    0.0000 C.ar    1  LIG1        0.0008
     22 O          -1.9750    1.5000    0.0000 O.2     1  LIG1       -0.2733
     23 C          -0.2500   -1.4960    0.0000 C.3     1  LIG1        0.0518
     24 C           3.2880   -1.3130    0.0000 C.ar    1  LIG1        0.0596
     25 C           3.8750   -0.5080    0.0000 C.ar    1  LIG1        0.1044
     26 N           3.2960    0.3000    0.0000 N.ar    1  LIG1       -0.1640
     27 C           4.8710   -0.5080    0.0000 C.ar    1  LIG1        0.0195
     28 C           5.3710    0.3540    0.0000 C.ar    1  LIG1        0.0024
     29 C           6.3630    0.3630    0.0000 C.ar    1  LIG1        0.0114
     30 C           6.8670   -0.5080    0.0000 C.ar    1  LIG1        0.0577
     31 C           6.3710   -1.3750    0.0000 C.ar    1  LIG1        0.0114
     32 C           5.3710   -1.3750    0.0000 C.ar    1  LIG1        0.0024
     33 CL          7.8670   -0.5080    0.0000 Cl      1  LIG1       -0.0822
@<TRIPOS>BOND
     1     1     2   ar
     2     1     6   ar
     3     1    26   ar
     4     2     3   ar
     5     2    24   ar
     6     3     4   ar
     7     4     5   ar
     8     4    23    1
     9     5     6   ar
    10     5     8    1
    11     6     7    1
    12     8     9    1
    13     9    10    1
    14    10    11   am
    15    10    22    2
    16    11    12    1
    17    12    13    1
    18    13    14   ar
    19    13    21   ar
    20    14    15   ar
    21    15    16   ar
    22    15    19    1
    23    16    17    1
    24    16    20   ar
    25    17    18    1
    26    18    19    1
    27    20    21   ar
    28    24    25   ar
    29    25    26   ar
    30    25    27    1
    31    27    28   ar
    32    27    32   ar
    33    28    29   ar
    34    29    30   ar
    35    30    31   ar
    36    30    33    1
    37    31    32   ar
