@<TRIPOS>MOLECULE
37408_ChemDiv_C561-1513
 37 40 0 0 0
SMALL
GASTEIGER
Energy = 0

@<TRIPOS>ATOM
      1 N          -1.3380    2.1920    0.0000 N.ar    1  LIG1       -0.2165
      2 C          -1.3500    3.1920    0.0000 C.ar    1  LIG1        0.1645
      3 C          -2.3080    3.4830    0.0000 C.ar    1  LIG1        0.0597
      4 C          -2.8670    2.6630    0.0000 C.ar    1  LIG1        0.1073
      5 N          -2.2750    1.8750    0.0000 N.ar    1  LIG1       -0.1639
      6 C          -3.8670    2.6330    0.0000 C.ar    1  LIG1        0.0536
      7 C          -4.3380    1.7580    0.0000 C.ar    1  LIG1        0.1432
      8 C          -5.3380    1.7210    0.0000 C.ar    1  LIG1        0.0738
      9 C          -5.8710    2.5880    0.0000 C.ar    1  LIG1        0.1418
     10 C          -5.3830    3.4670    0.0000 C.ar    1  LIG1        0.0372
     11 C          -4.3830    3.4960    0.0000 C.ar    1  LIG1        0.0077
     12 O          -6.8670    2.5580    0.0000 O.3     1  LIG1       -0.4713
     13 C          -7.3830    3.4040    0.0000 C.3     1  LIG1        0.2525
     14 O          -3.8130    0.9080    0.0000 O.3     1  LIG1       -0.4713
     15 C          -4.2830    0.0250    0.0000 C.3     1  LIG1        0.2525
     16 N          -0.4880    3.7080    0.0000 N.ar    1  LIG1       -0.2311
     17 C           0.3880    3.2250    0.0000 C.ar    1  LIG1        0.0582
     18 C           0.4040    2.2250    0.0000 C.ar    1  LIG1        0.0056
     19 C          -0.4580    1.7080    0.0000 C.ar    1  LIG1        0.0596
     20 C          -0.4330    0.7080    0.0000 C.3     1  LIG1        0.0519
     21 C           1.2880    1.7210    0.0000 C.3     1  LIG1        0.0384
     22 C           1.3000    0.7210    0.0000 C.3     1  LIG1        0.0916
     23 C           2.1750    0.2420    0.0000 C.2     1  LIG1        0.2417
     24 N           2.1960   -0.7630    0.0000 N.am    1  LIG1       -0.2071
     25 C           3.0580   -1.2500    0.0000 C.3     1  LIG1        0.0987
     26 C           3.0710   -2.2500    0.0000 C.3     1  LIG1        0.0433
     27 C           3.9330   -2.7330    0.0000 C.3     1  LIG1        0.0985
     28 N           4.7880   -2.2330    0.0000 N.am    1  LIG1       -0.2459
     29 C           5.6670   -2.7330    0.0000 C.2     1  LIG1        0.4049
     30 O           5.6670   -3.7330    0.0000 O.2     1  LIG1       -0.2262
     31 O           6.5330   -2.2290    0.0000 O.3     1  LIG1       -0.4345
     32 C           6.5290   -1.2290    0.0000 C.3     1  LIG1        0.2102
     33 C           7.3830   -0.7170    0.0000 C.3     1  LIG1        0.0513
     34 C           4.7880   -1.2330    0.0000 C.3     1  LIG1        0.0985
     35 C           3.9210   -0.7420    0.0000 C.3     1  LIG1        0.0433
     36 O           3.0290    0.7580    0.0000 O.2     1  LIG1       -0.2733
     37 C           1.2500    3.7380    0.0000 C.3     1  LIG1        0.0518
@<TRIPOS>BOND
     1     1     2   ar
     2     1     5   ar
     3     1    19   ar
     4     2     3   ar
     5     2    16   ar
     6     3     4   ar
     7     4     5   ar
     8     4     6    1
     9     6     7   ar
    10     6    11   ar
    11     7     8   ar
    12     7    14    1
    13     8     9   ar
    14     9    10   ar
    15     9    12    1
    16    10    11   ar
    17    12    13    1
    18    14    15    1
    19    16    17   ar
    20    17    18   ar
    21    17    37    1
    22    18    19   ar
    23    18    21    1
    24    19    20    1
    25    21    22    1
    26    22    23    1
    27    23    24   am
    28    23    36    2
    29    24    25    1
    30    25    26    1
    31    25    35    1
    32    26    27    1
    33    27    28    1
    34    28    29   am
    35    28    34    1
    36    29    30    2
    37    29    31    1
    38    31    32    1
    39    32    33    1
    40    34    35    1
