@<TRIPOS>MOLECULE
37407_ChemDiv_C528-0423
 33 37 0 0 0
SMALL
GASTEIGER
Energy = 0

@<TRIPOS>ATOM
      1 C           1.8080   -2.2380    0.0000 C.ar    1  LIG1        0.1161
      2 N           0.8080   -2.3170    0.0000 N.ar    1  LIG1       -0.2112
      3 C           0.5710   -3.2960    0.0000 C.ar    1  LIG1        0.2290
      4 O           1.4290   -3.8130    0.0000 O.2     1  LIG1       -0.4392
      5 C           2.1880   -3.1580    0.0000 C.ar    1  LIG1        0.1403
      6 C           3.1580   -3.3750    0.0000 C.3     1  LIG1        0.0739
      7 C          -0.3540   -3.6330    0.0000 C.ar    1  LIG1        0.0535
      8 C          -1.1210   -2.9960    0.0000 C.ar    1  LIG1        0.0043
      9 C          -2.0500   -3.3460    0.0000 C.ar    1  LIG1       -0.0041
     10 C          -2.2250   -4.3250    0.0000 C.ar    1  LIG1       -0.0218
     11 C          -1.4580   -4.9630    0.0000 C.ar    1  LIG1       -0.0041
     12 C          -0.5330   -4.6170    0.0000 C.ar    1  LIG1        0.0043
     13 C          -3.1630   -4.6630    0.0000 C.3     1  LIG1        0.0310
     14 C           2.3380   -1.3790    0.0000 C.3     1  LIG1        0.1996
     15 S           1.8540   -0.5040    0.0000 S.O2    1  LIG1        0.0048
     16 C           1.3580    0.3750    0.0000 C.3     1  LIG1        0.2373
     17 C           1.8830    1.2380    0.0000 C.2     1  LIG1        0.2654
     18 N           1.4000    2.1130    0.0000 N.am    1  LIG1       -0.2057
     19 C           0.3920    2.1460    0.0000 C.3     1  LIG1        0.0953
     20 C          -0.0920    3.0000    0.0000 C.3     1  LIG1        0.0185
     21 C           0.5830    3.7420    0.0000 C.3     1  LIG1        0.0017
     22 C           0.1330    4.6170    0.0000 C.3     1  LIG1        0.0001
     23 C          -0.9080    4.4630    0.0000 C.3     1  LIG1        0.0000
     24 C          -1.5750    3.6830    0.0000 C.3     1  LIG1        0.0001
     25 C          -1.1380    2.8040    0.0000 C.3     1  LIG1        0.0017
     26 C          -2.4830    4.1170    0.0000 C.3     1  LIG1        0.0000
     27 C          -1.3540    4.2330    0.0000 C.3     1  LIG1        0.0001
     28 C          -0.9250    3.4330    0.0000 C.3     1  LIG1        0.0017
     29 C          -0.7170    4.9630    0.0000 C.3     1  LIG1        0.0000
     30 C          -0.1290    1.2830    0.0000 C.3     1  LIG1        0.0234
     31 O           2.8880    1.2210    0.0000 O.2     1  LIG1       -0.2714
     32 O           0.9670   -0.9960    0.0000 O.2     1  LIG1       -0.1721
     33 O           2.7330   -0.0170    0.0000 O.2     1  LIG1       -0.1721
@<TRIPOS>BOND
     1     1     2   ar
     2     1     5   ar
     3     1    14    1
     4     2     3   ar
     5     3     4   ar
     6     3     7    1
     7     4     5   ar
     8     5     6    1
     9     7     8   ar
    10     7    12   ar
    11     8     9   ar
    12     9    10   ar
    13    10    11   ar
    14    10    13    1
    15    11    12   ar
    16    14    15    1
    17    15    16    1
    18    15    32    2
    19    15    33    2
    20    16    17    1
    21    17    18   am
    22    17    31    2
    23    18    19    1
    24    19    20    1
    25    19    30    1
    26    20    21    1
    27    20    25    1
    28    20    28    1
    29    21    22    1
    30    22    23    1
    31    22    29    1
    32    23    24    1
    33    24    25    1
    34    24    26    1
    35    26    27    1
    36    27    28    1
    37    27    29    1
