@<TRIPOS>MOLECULE
37400_ChemDiv_C548-3436
 34 38 0 0 0
SMALL
GASTEIGER
Energy = 0

@<TRIPOS>ATOM
      1 S           3.4540    0.8750    0.0000 S.O2    1  LIG1        0.0784
      2 C           3.9330    1.7170    0.0000 C.ar    1  LIG1        0.1432
      3 C           3.4540    2.5380    0.0000 C.ar    1  LIG1        0.1274
      4 N           2.5080    2.7420    0.0000 N.ar    1  LIG1       -0.1888
      5 S           2.4000    3.6920    0.0000 S.2     1  LIG1        0.1165
      6 N           3.2830    4.0920    0.0000 N.ar    1  LIG1       -0.1901
      7 C           3.9330    3.3830    0.0000 C.ar    1  LIG1        0.1102
      8 C           4.8960    3.3830    0.0000 C.ar    1  LIG1        0.0214
      9 C           5.3790    2.5380    0.0000 C.ar    1  LIG1        0.0030
     10 C           4.8960    1.7080    0.0000 C.ar    1  LIG1        0.0216
     11 N           2.9630    0.0540    0.0000 N.3     1  LIG1       -0.0777
     12 C           2.0000    0.0630    0.0000 C.3     1  LIG1        0.1154
     13 C           1.5170   -0.7710    0.0000 C.3     1  LIG1        0.0194
     14 C           0.5540   -0.7500    0.0000 C.3     1  LIG1        0.0020
     15 C           0.0630   -1.5830    0.0000 C.3     1  LIG1        0.0092
     16 C           0.5330   -2.4170    0.0000 C.3     1  LIG1        0.0786
     17 C           0.0420   -3.2460    0.0000 C.2     1  LIG1        0.2468
     18 N          -0.9210   -3.2460    0.0000 N.am    1  LIG1       -0.1543
     19 C          -1.4000   -2.4170    0.0000 C.ar    1  LIG1        0.1858
     20 N          -2.3750   -2.3460    0.0000 N.ar    1  LIG1       -0.2225
     21 C          -2.8170   -1.4830    0.0000 C.ar    1  LIG1        0.0895
     22 C          -2.2420   -0.6210    0.0000 C.ar    1  LIG1        0.0528
     23 S          -0.8290   -1.5420    0.0000 S.2     1  LIG1       -0.0496
     24 C          -2.7170    0.2830    0.0000 C.ar    1  LIG1        0.0450
     25 C          -3.7460    0.3830    0.0000 C.ar    1  LIG1        0.1393
     26 C          -4.3210   -0.4790    0.0000 C.ar    1  LIG1        0.0385
     27 C          -3.8170   -1.3830    0.0000 C.ar    1  LIG1        0.0228
     28 O          -4.1710    1.1880    0.0000 O.3     1  LIG1       -0.4714
     29 C          -5.3830    1.2960    0.0000 C.3     1  LIG1        0.2525
     30 O           0.5130   -4.0920    0.0000 O.2     1  LIG1       -0.2729
     31 C           1.4960   -2.4250    0.0000 C.3     1  LIG1        0.0092
     32 C           1.9880   -1.6040    0.0000 C.3     1  LIG1        0.0020
     33 O           4.2830    0.4040    0.0000 O.2     1  LIG1       -0.1515
     34 O           2.6210    1.3670    0.0000 O.2     1  LIG1       -0.1515
@<TRIPOS>BOND
     1     1     2    1
     2     1    11    1
     3     1    33    2
     4     1    34    2
     5     2     3   ar
     6     2    10   ar
     7     3     4   ar
     8     3     7   ar
     9     4     5   ar
    10     5     6   ar
    11     6     7   ar
    12     7     8   ar
    13     8     9   ar
    14     9    10   ar
    15    11    12    1
    16    12    13    1
    17    13    14    1
    18    13    32    1
    19    14    15    1
    20    15    16    1
    21    16    17    1
    22    16    31    1
    23    17    18   am
    24    17    30    2
    25    18    19    1
    26    19    20   ar
    27    19    23   ar
    28    20    21   ar
    29    21    22   ar
    30    21    27   ar
    31    22    23   ar
    32    22    24   ar
    33    24    25   ar
    34    25    26   ar
    35    25    28    1
    36    26    27   ar
    37    28    29    1
    38    31    32    1
