@<TRIPOS>MOLECULE
37414_ChemDiv_C613-0018
 20 22 0 0 0
SMALL
GASTEIGER
Energy = 0

@<TRIPOS>ATOM
      1 C          -1.3630   -0.8040    0.0000 C.ar    1  LIG1        0.1575
      2 N          -1.9460   -1.6210    0.0000 N.ar    1  LIG1       -0.1604
      3 N          -2.8920   -1.3210    0.0000 N.ar    1  LIG1       -0.2281
      4 C          -2.9000   -0.3210    0.0000 C.ar    1  LIG1        0.0846
      5 C          -1.9540   -0.0040    0.0000 C.ar    1  LIG1        0.0447
      6 C          -3.7670    0.1920    0.0000 C.ar    1  LIG1        0.0193
      7 C          -4.6330   -0.3210    0.0000 C.ar    1  LIG1        0.0031
      8 C          -4.6330   -1.3210    0.0000 C.ar    1  LIG1        0.0207
      9 C          -3.7670   -1.8170    0.0000 C.ar    1  LIG1        0.1004
     10 C          -0.3630   -0.8040    0.0000 C.2     1  LIG1        0.2843
     11 O           0.1460   -1.6670    0.0000 O.2     1  LIG1       -0.2666
     12 N           0.1380    0.0670    0.0000 N.am    1  LIG1       -0.2000
     13 C           1.1460    0.0670    0.0000 C.3     1  LIG1        0.1202
     14 C           1.6380    0.9330    0.0000 C.3     1  LIG1        0.0498
     15 C           2.6330    0.9420    0.0000 C.ar    1  LIG1       -0.0204
     16 C           3.1330    0.0790    0.0000 C.ar    1  LIG1       -0.0042
     17 C           4.1290    0.0830    0.0000 C.ar    1  LIG1       -0.0003
     18 C           4.6290    0.9500    0.0000 C.ar    1  LIG1       -0.0000
     19 C           4.1170    1.8210    0.0000 C.ar    1  LIG1       -0.0003
     20 C           3.1250    1.8080    0.0000 C.ar    1  LIG1       -0.0042
@<TRIPOS>BOND
     1     1     2   ar
     2     1     5   ar
     3     1    10    1
     4     2     3   ar
     5     3     4   ar
     6     3     9   ar
     7     4     5   ar
     8     4     6   ar
     9     6     7   ar
    10     7     8   ar
    11     8     9   ar
    12    10    11    2
    13    10    12   am
    14    12    13    1
    15    13    14    1
    16    14    15    1
    17    15    16   ar
    18    15    20   ar
    19    16    17   ar
    20    17    18   ar
    21    18    19   ar
    22    19    20   ar
