@<TRIPOS>MOLECULE
37411_ChemDiv_C470-0369
 33 37 0 0 0
SMALL
GASTEIGER
Energy = 0

@<TRIPOS>ATOM
      1 C          -1.4790   -0.4500    0.0000 C.ar    1  LIG1        0.1528
      2 C          -1.4750   -1.4460    0.0000 C.ar    1  LIG1        0.1694
      3 N          -2.3420   -1.9460    0.0000 N.ar    1  LIG1       -0.2628
      4 C          -3.2040   -1.4500    0.0000 C.ar    1  LIG1        0.3350
      5 N          -3.2040   -0.4500    0.0000 N.ar    1  LIG1       -0.2454
      6 C          -2.3420    0.0670    0.0000 C.ar    1  LIG1        0.2832
      7 O          -2.3420    1.0580    0.0000 O.2     1  LIG1       -0.2652
      8 C          -4.0750    0.0500    0.0000 C.3     1  LIG1        0.1383
      9 O          -4.0750   -1.9500    0.0000 O.2     1  LIG1       -0.2461
     10 C          -2.3420   -2.9500    0.0000 C.3     1  LIG1        0.1366
     11 N          -0.5210   -1.7500    0.0000 N.ar    1  LIG1       -0.2076
     12 C           0.0580   -0.9380    0.0000 C.ar    1  LIG1        0.1803
     13 N          -0.5330   -0.1330    0.0000 N.ar    1  LIG1       -0.3010
     14 C          -0.2290    0.8250    0.0000 C.3     1  LIG1        0.1343
     15 C          -0.9040    1.5500    0.0000 C.ar    1  LIG1        0.0004
     16 C          -0.5960    2.4920    0.0000 C.ar    1  LIG1       -0.0021
     17 C          -1.2670    3.2380    0.0000 C.ar    1  LIG1       -0.0002
     18 C          -2.2380    3.0380    0.0000 C.ar    1  LIG1       -0.0000
     19 C          -2.5500    2.0920    0.0000 C.ar    1  LIG1       -0.0003
     20 C          -1.8830    1.3380    0.0000 C.ar    1  LIG1       -0.0024
     21 C          -0.9500    4.1880    0.0000 C.ar    1  LIG1       -0.0000
     22 C           0.0290    4.3960    0.0000 C.ar    1  LIG1       -0.0000
     23 C           0.6920    3.6540    0.0000 C.ar    1  LIG1       -0.0000
     24 C           0.3790    2.7040    0.0000 C.ar    1  LIG1       -0.0003
     25 C           1.0630   -0.9330    0.0000 C.3     1  LIG1        0.2038
     26 N           1.5630   -1.7880    0.0000 N.4     1  LIG1        0.3870
     27 C           2.5630   -1.7880    0.0000 C.3     1  LIG1        0.1691
     28 C           3.0670   -2.6460    0.0000 C.3     1  LIG1        0.1719
     29 O           2.5830   -3.5170    0.0000 O.3     1  LIG1       -0.3466
     30 C           1.5750   -3.5250    0.0000 C.3     1  LIG1        0.1719
     31 C           1.0630   -2.6670    0.0000 C.3     1  LIG1        0.1691
     32 C           1.0750   -4.3960    0.0000 C.3     1  LIG1        0.0385
     33 C           4.0710   -2.6380    0.0000 C.3     1  LIG1        0.0385
@<TRIPOS>BOND
     1     1     2   ar
     2     1     6   ar
     3     1    13   ar
     4     2     3   ar
     5     2    11   ar
     6     3     4   ar
     7     3    10    1
     8     4     5   ar
     9     4     9    2
    10     5     6   ar
    11     5     8    1
    12     6     7    2
    13    11    12   ar
    14    12    13   ar
    15    12    25    1
    16    13    14    1
    17    14    15    1
    18    15    16   ar
    19    15    20   ar
    20    16    17   ar
    21    16    24   ar
    22    17    18   ar
    23    17    21   ar
    24    18    19   ar
    25    19    20   ar
    26    21    22   ar
    27    22    23   ar
    28    23    24   ar
    29    25    26    1
    30    26    27    1
    31    26    31    1
    32    27    28    1
    33    28    29    1
    34    28    33    1
    35    29    30    1
    36    30    31    1
    37    30    32    1
