@<TRIPOS>MOLECULE
37418_ChemDiv_C613-0036
 26 28 0 0 0
SMALL
GASTEIGER
Energy = 0

@<TRIPOS>ATOM
      1 C          -2.1080    0.8040    0.0000 C.ar    1  LIG1        0.1575
      2 N          -2.7000   -0.0130    0.0000 N.ar    1  LIG1       -0.1604
      3 N          -3.6790    0.2960    0.0000 N.ar    1  LIG1       -0.2281
      4 C          -3.6790    1.2960    0.0000 C.ar    1  LIG1        0.0846
      5 C          -2.7000    1.6080    0.0000 C.ar    1  LIG1        0.0447
      6 C          -4.5290    1.7830    0.0000 C.ar    1  LIG1        0.0193
      7 C          -5.4040    1.2960    0.0000 C.ar    1  LIG1        0.0031
      8 C          -5.4040    0.2960    0.0000 C.ar    1  LIG1        0.0207
      9 C          -4.5290   -0.1880    0.0000 C.ar    1  LIG1        0.1004
     10 C          -1.0960    0.8040    0.0000 C.2     1  LIG1        0.2843
     11 O          -0.5880    1.6630    0.0000 O.2     1  LIG1       -0.2666
     12 N          -0.5880   -0.0580    0.0000 N.am    1  LIG1       -0.2000
     13 C           0.4130   -0.0580    0.0000 C.3     1  LIG1        0.1203
     14 C           0.9170   -0.9170    0.0000 C.3     1  LIG1        0.0530
     15 C           1.9130   -0.9170    0.0000 C.ar    1  LIG1        0.0168
     16 C           2.3920   -0.0460    0.0000 C.ar    1  LIG1        0.1715
     17 C           3.3920   -0.0460    0.0000 C.ar    1  LIG1        0.2057
     18 C           3.9040   -0.9130    0.0000 C.ar    1  LIG1        0.1754
     19 C           3.4080   -1.7670    0.0000 C.ar    1  LIG1        0.0399
     20 C           2.4130   -1.7790    0.0000 C.ar    1  LIG1        0.0021
     21 O           4.9000   -0.9130    0.0000 O.3     1  LIG1       -0.4683
     22 C           5.4000   -0.0380    0.0000 C.3     1  LIG1        0.2526
     23 O           3.8880    0.8250    0.0000 O.3     1  LIG1       -0.4654
     24 C           3.3920    1.6960    0.0000 C.3     1  LIG1        0.2528
     25 O           1.8920    0.8080    0.0000 O.3     1  LIG1       -0.4686
     26 C           0.8960    0.8040    0.0000 C.3     1  LIG1        0.2526
@<TRIPOS>BOND
     1     1     2   ar
     2     1     5   ar
     3     1    10    1
     4     2     3   ar
     5     3     4   ar
     6     3     9   ar
     7     4     5   ar
     8     4     6   ar
     9     6     7   ar
    10     7     8   ar
    11     8     9   ar
    12    10    11    2
    13    10    12   am
    14    12    13    1
    15    13    14    1
    16    14    15    1
    17    15    16   ar
    18    15    20   ar
    19    16    17   ar
    20    16    25    1
    21    17    18   ar
    22    17    23    1
    23    18    19   ar
    24    18    21    1
    25    19    20   ar
    26    21    22    1
    27    23    24    1
    28    25    26    1
