@<TRIPOS>MOLECULE
37412_ChemDiv_C613-0016
 24 26 0 0 0
SMALL
GASTEIGER
Energy = 0

@<TRIPOS>ATOM
      1 C          -2.1170   -1.6580    0.0000 C.ar    1  LIG1        0.1575
      2 N          -2.6960   -2.4830    0.0000 N.ar    1  LIG1       -0.1604
      3 N          -3.6460   -2.1790    0.0000 N.ar    1  LIG1       -0.2281
      4 C          -3.6540   -1.1790    0.0000 C.ar    1  LIG1        0.0846
      5 C          -2.7040   -0.8580    0.0000 C.ar    1  LIG1        0.0447
      6 C          -4.5210   -0.6710    0.0000 C.ar    1  LIG1        0.0193
      7 C          -5.3880   -1.1790    0.0000 C.ar    1  LIG1        0.0031
      8 C          -5.3880   -2.1790    0.0000 C.ar    1  LIG1        0.0207
      9 C          -4.5210   -2.6750    0.0000 C.ar    1  LIG1        0.1004
     10 C          -1.1130   -1.6580    0.0000 C.2     1  LIG1        0.2843
     11 O          -0.6040   -2.5250    0.0000 O.2     1  LIG1       -0.2666
     12 N          -0.6170   -0.7920    0.0000 N.am    1  LIG1       -0.2000
     13 C           0.3920   -0.7920    0.0000 C.3     1  LIG1        0.1203
     14 C           0.8880    0.0750    0.0000 C.3     1  LIG1        0.0528
     15 C           1.8830    0.0830    0.0000 C.ar    1  LIG1        0.0138
     16 C           2.3710    0.9500    0.0000 C.ar    1  LIG1        0.1378
     17 C           3.3710    0.9630    0.0000 C.ar    1  LIG1        0.0734
     18 C           3.8790    0.0960    0.0000 C.ar    1  LIG1        0.1417
     19 C           3.3830   -0.7750    0.0000 C.ar    1  LIG1        0.0368
     20 C           2.3880   -0.7750    0.0000 C.ar    1  LIG1        0.0019
     21 O           4.8790    0.1040    0.0000 O.3     1  LIG1       -0.4713
     22 C           5.3830   -0.7580    0.0000 C.3     1  LIG1        0.2525
     23 O           1.8630    1.8130    0.0000 O.3     1  LIG1       -0.4716
     24 C           2.3500    2.6790    0.0000 C.3     1  LIG1        0.2525
@<TRIPOS>BOND
     1     1     2   ar
     2     1     5   ar
     3     1    10    1
     4     2     3   ar
     5     3     4   ar
     6     3     9   ar
     7     4     5   ar
     8     4     6   ar
     9     6     7   ar
    10     7     8   ar
    11     8     9   ar
    12    10    11    2
    13    10    12   am
    14    12    13    1
    15    13    14    1
    16    14    15    1
    17    15    16   ar
    18    15    20   ar
    19    16    17   ar
    20    16    23    1
    21    17    18   ar
    22    18    19   ar
    23    18    21    1
    24    19    20   ar
    25    21    22    1
    26    23    24    1
