@<TRIPOS>MOLECULE
37416_ChemDiv_C613-0031
 26 28 0 0 0
SMALL
GASTEIGER
Energy = 0

@<TRIPOS>ATOM
      1 C           0.1380    2.9580    0.0000 C.ar    1  LIG1        0.1575
      2 N          -0.4540    2.1380    0.0000 N.ar    1  LIG1       -0.1604
      3 N          -1.4080    2.4460    0.0000 N.ar    1  LIG1       -0.2281
      4 C          -1.4080    3.4540    0.0000 C.ar    1  LIG1        0.0846
      5 C          -0.4540    3.7630    0.0000 C.ar    1  LIG1        0.0447
      6 C          -2.2750    3.9540    0.0000 C.ar    1  LIG1        0.0193
      7 C          -3.1380    3.4540    0.0000 C.ar    1  LIG1        0.0031
      8 C          -3.1380    2.4460    0.0000 C.ar    1  LIG1        0.0207
      9 C          -2.2750    1.9460    0.0000 C.ar    1  LIG1        0.1004
     10 C           1.1330    2.9580    0.0000 C.2     1  LIG1        0.2843
     11 O           1.6330    3.8210    0.0000 O.2     1  LIG1       -0.2666
     12 N           1.6330    2.0960    0.0000 N.am    1  LIG1       -0.2000
     13 C           2.6330    2.1000    0.0000 C.3     1  LIG1        0.1202
     14 C           3.1330    1.2330    0.0000 C.3     1  LIG1        0.0499
     15 C           2.6330    0.3670    0.0000 C.ar    1  LIG1       -0.0172
     16 C           1.6330    0.3710    0.0000 C.ar    1  LIG1        0.0358
     17 C           1.1290   -0.4920    0.0000 C.ar    1  LIG1        0.1719
     18 C           1.6290   -1.3580    0.0000 C.ar    1  LIG1        0.1722
     19 C           2.6330   -1.3580    0.0000 C.ar    1  LIG1        0.0397
     20 C           3.1330   -0.4960    0.0000 C.ar    1  LIG1       -0.0009
     21 O           1.1330   -2.2210    0.0000 O.3     1  LIG1       -0.4724
     22 C           1.6290   -3.0880    0.0000 C.3     1  LIG1        0.2057
     23 C           1.1290   -3.9500    0.0000 C.3     1  LIG1        0.0512
     24 O           0.1380   -0.4920    0.0000 O.3     1  LIG1       -0.4724
     25 C          -0.3630   -1.3580    0.0000 C.3     1  LIG1        0.2057
     26 C          -1.3670   -1.3460    0.0000 C.3     1  LIG1        0.0512
@<TRIPOS>BOND
     1     1     2   ar
     2     1     5   ar
     3     1    10    1
     4     2     3   ar
     5     3     4   ar
     6     3     9   ar
     7     4     5   ar
     8     4     6   ar
     9     6     7   ar
    10     7     8   ar
    11     8     9   ar
    12    10    11    2
    13    10    12   am
    14    12    13    1
    15    13    14    1
    16    14    15    1
    17    15    16   ar
    18    15    20   ar
    19    16    17   ar
    20    17    18   ar
    21    17    24    1
    22    18    19   ar
    23    18    21    1
    24    19    20   ar
    25    21    22    1
    26    22    23    1
    27    24    25    1
    28    25    26    1
