@<TRIPOS>MOLECULE
37413_ChemDiv_C470-0373
 34 38 0 0 0
SMALL
GASTEIGER
Energy = 0

@<TRIPOS>ATOM
      1 C          -0.9920    0.4130    0.0000 C.ar    1  LIG1        0.1527
      2 C          -0.9880   -0.5830    0.0000 C.ar    1  LIG1        0.1692
      3 N          -1.8580   -1.0830    0.0000 N.ar    1  LIG1       -0.2628
      4 C          -2.7170   -0.5880    0.0000 C.ar    1  LIG1        0.3350
      5 N          -2.7170    0.4130    0.0000 N.ar    1  LIG1       -0.2454
      6 C          -1.8580    0.9290    0.0000 C.ar    1  LIG1        0.2832
      7 O          -1.8580    1.9210    0.0000 O.2     1  LIG1       -0.2652
      8 C          -3.5880    0.9130    0.0000 C.3     1  LIG1        0.1383
      9 O          -3.5880   -1.0880    0.0000 O.2     1  LIG1       -0.2461
     10 C          -1.8580   -2.0880    0.0000 C.3     1  LIG1        0.1366
     11 N          -0.0330   -0.8830    0.0000 N.ar    1  LIG1       -0.2121
     12 C           0.5460   -0.0710    0.0000 C.ar    1  LIG1        0.1388
     13 N          -0.0460    0.7330    0.0000 N.ar    1  LIG1       -0.3046
     14 C           0.2580    1.6880    0.0000 C.3     1  LIG1        0.1341
     15 C          -0.4170    2.4130    0.0000 C.ar    1  LIG1        0.0004
     16 C          -0.1130    3.3580    0.0000 C.ar    1  LIG1       -0.0021
     17 C          -0.7830    4.0960    0.0000 C.ar    1  LIG1       -0.0002
     18 C          -1.7500    3.9000    0.0000 C.ar    1  LIG1       -0.0000
     19 C          -2.0670    2.9580    0.0000 C.ar    1  LIG1       -0.0003
     20 C          -1.3960    2.2000    0.0000 C.ar    1  LIG1       -0.0024
     21 C          -0.4630    5.0500    0.0000 C.ar    1  LIG1       -0.0000
     22 C           0.5170    5.2630    0.0000 C.ar    1  LIG1       -0.0000
     23 C           1.1790    4.5170    0.0000 C.ar    1  LIG1       -0.0000
     24 C           0.8630    3.5670    0.0000 C.ar    1  LIG1       -0.0003
     25 C           1.5500   -0.0670    0.0000 C.3     1  LIG1        0.1374
     26 N           2.0500   -0.9210    0.0000 N.3     1  LIG1       -0.2562
     27 C           3.0540   -0.9210    0.0000 C.3     1  LIG1        0.1362
     28 C           3.5540   -1.7880    0.0000 C.3     1  LIG1        0.1564
     29 N           3.0670   -2.6630    0.0000 N.4     1  LIG1        0.3815
     30 C           2.0670   -2.6630    0.0000 C.3     1  LIG1        0.1564
     31 C           1.5580   -1.7960    0.0000 C.3     1  LIG1        0.1362
     32 C           3.5710   -3.5290    0.0000 C.3     1  LIG1        0.1749
     33 C           3.0790   -4.4000    0.0000 C.3     1  LIG1        0.2442
     34 O           3.5830   -5.2630    0.0000 O.3     1  LIG1       -0.2137
@<TRIPOS>BOND
     1     1     2   ar
     2     1     6   ar
     3     1    13   ar
     4     2     3   ar
     5     2    11   ar
     6     3     4   ar
     7     3    10    1
     8     4     5   ar
     9     4     9    2
    10     5     6   ar
    11     5     8    1
    12     6     7    2
    13    11    12   ar
    14    12    13   ar
    15    12    25    1
    16    13    14    1
    17    14    15    1
    18    15    16   ar
    19    15    20   ar
    20    16    17   ar
    21    16    24   ar
    22    17    18   ar
    23    17    21   ar
    24    18    19   ar
    25    19    20   ar
    26    21    22   ar
    27    22    23   ar
    28    23    24   ar
    29    25    26    1
    30    26    27    1
    31    26    31    1
    32    27    28    1
    33    28    29    1
    34    29    30    1
    35    29    32    1
    36    30    31    1
    37    32    33    1
    38    33    34    1
