@<TRIPOS>MOLECULE
37424_ChemDiv_C627-0021
 21 23 0 0 0
SMALL
GASTEIGER
Energy = 0

@<TRIPOS>ATOM
      1 C           1.4670    1.0630    0.0000 C.ar    1  LIG1        0.1575
      2 N           1.0540    1.9750    0.0000 N.ar    1  LIG1       -0.1604
      3 N           1.7960    2.6420    0.0000 N.ar    1  LIG1       -0.2281
      4 C           2.6630    2.1420    0.0000 C.ar    1  LIG1        0.0846
      5 C           2.4540    1.1630    0.0000 C.ar    1  LIG1        0.0447
      6 C           3.5330    2.6420    0.0000 C.ar    1  LIG1        0.0193
      7 C           3.5330    3.6420    0.0000 C.ar    1  LIG1        0.0031
      8 C           2.6630    4.1330    0.0000 C.ar    1  LIG1        0.0207
      9 C           1.7960    3.6420    0.0000 C.ar    1  LIG1        0.1004
     10 C           0.9630    0.1920    0.0000 C.2     1  LIG1        0.2843
     11 O           1.4670   -0.6750    0.0000 O.2     1  LIG1       -0.2666
     12 N          -0.0380    0.1920    0.0000 N.am    1  LIG1       -0.2000
     13 C          -0.5380   -0.6750    0.0000 C.3     1  LIG1        0.1202
     14 C          -1.5420   -0.6750    0.0000 C.3     1  LIG1        0.0498
     15 C          -2.0330   -1.5380    0.0000 C.ar    1  LIG1       -0.0204
     16 C          -1.5420   -2.4040    0.0000 C.ar    1  LIG1       -0.0033
     17 C          -2.0330   -3.2710    0.0000 C.ar    1  LIG1        0.0111
     18 C          -3.0380   -3.2710    0.0000 C.ar    1  LIG1        0.0577
     19 CL         -3.5380   -4.1330    0.0000 Cl      1  LIG1       -0.0822
     20 C          -3.5380   -2.4040    0.0000 C.ar    1  LIG1        0.0111
     21 C          -3.0380   -1.5380    0.0000 C.ar    1  LIG1       -0.0033
@<TRIPOS>BOND
     1     1     2   ar
     2     1     5   ar
     3     1    10    1
     4     2     3   ar
     5     3     4   ar
     6     3     9   ar
     7     4     5   ar
     8     4     6   ar
     9     6     7   ar
    10     7     8   ar
    11     8     9   ar
    12    10    11    2
    13    10    12   am
    14    12    13    1
    15    13    14    1
    16    14    15    1
    17    15    16   ar
    18    15    21   ar
    19    16    17   ar
    20    17    18   ar
    21    18    19    1
    22    18    20   ar
    23    20    21   ar
