@<TRIPOS>MOLECULE
37428_ChemDiv_C561-2222
 40 43 0 0 0
SMALL
GASTEIGER
Energy = 0

@<TRIPOS>ATOM
      1 N          -2.9080    0.9380    0.0000 N.ar    1  LIG1       -0.1785
      2 C          -2.9080    1.9420    0.0000 C.ar    1  LIG1        0.1498
      3 C          -3.8630    2.2580    0.0000 C.ar    1  LIG1        0.0581
      4 C          -4.4540    1.4460    0.0000 C.ar    1  LIG1        0.1073
      5 N          -3.8630    0.6290    0.0000 N.ar    1  LIG1       -0.1610
      6 C          -5.4500    1.4460    0.0000 C.ar    1  LIG1        0.0534
      7 C          -5.9500    2.3080    0.0000 C.ar    1  LIG1        0.1401
      8 O          -5.4500    3.1710    0.0000 O.3     1  LIG1       -0.4714
      9 C          -5.9500    4.0370    0.0000 C.3     1  LIG1        0.2525
     10 C          -6.9500    2.3080    0.0000 C.ar    1  LIG1        0.0370
     11 C          -7.4500    1.4460    0.0000 C.ar    1  LIG1        0.0031
     12 C          -6.9420    0.5670    0.0000 C.ar    1  LIG1        0.0003
     13 C          -5.9420    0.5750    0.0000 C.ar    1  LIG1        0.0046
     14 N          -2.0460    2.4460    0.0000 N.ar    1  LIG1       -0.3163
     15 C          -1.1830    1.9420    0.0000 C.ar    1  LIG1        0.0394
     16 C          -1.1830    0.9380    0.0000 C.ar    1  LIG1        0.0479
     17 C          -2.0460    0.4460    0.0000 C.ar    1  LIG1        0.2786
     18 O          -2.0460   -0.5580    0.0000 O.2     1  LIG1       -0.2654
     19 C          -0.3080    0.4380    0.0000 C.3     1  LIG1        0.0420
     20 C          -0.3130   -0.5630    0.0000 C.3     1  LIG1        0.0917
     21 C           0.5500   -1.0630    0.0000 C.2     1  LIG1        0.2417
     22 O           0.5460   -2.0710    0.0000 O.2     1  LIG1       -0.2733
     23 N           1.4130   -0.5630    0.0000 N.am    1  LIG1       -0.2051
     24 C           2.2750   -1.0630    0.0000 C.3     1  LIG1        0.1198
     25 C           3.1330   -0.5630    0.0000 C.3     1  LIG1        0.0500
     26 C           3.9960   -1.0630    0.0000 C.ar    1  LIG1       -0.0142
     27 C           3.9960   -2.0580    0.0000 C.ar    1  LIG1        0.0360
     28 C           4.8670   -2.5540    0.0000 C.ar    1  LIG1        0.1751
     29 C           5.7290   -2.0460    0.0000 C.ar    1  LIG1        0.2060
     30 C           5.7170   -1.0500    0.0000 C.ar    1  LIG1        0.1751
     31 C           4.8500   -0.5580    0.0000 C.ar    1  LIG1        0.0360
     32 O           6.5750   -0.5460    0.0000 O.3     1  LIG1       -0.4683
     33 C           6.5630    0.4540    0.0000 C.3     1  LIG1        0.2526
     34 O           6.5880   -2.5380    0.0000 O.3     1  LIG1       -0.4654
     35 C           7.4500   -2.0290    0.0000 C.3     1  LIG1        0.2528
     36 O           4.8670   -3.5420    0.0000 O.3     1  LIG1       -0.4683
     37 C           5.7330   -4.0370    0.0000 C.3     1  LIG1        0.2526
     38 C          -0.3080    2.4420    0.0000 C.3     1  LIG1        0.0499
     39 C          -2.0460    3.4540    0.0000 C.3     1  LIG1        0.1072
     40 C          -1.1750    3.9500    0.0000 C.3     1  LIG1        0.0265
@<TRIPOS>BOND
     1     1     2   ar
     2     1     5   ar
     3     1    17   ar
     4     2     3   ar
     5     2    14   ar
     6     3     4   ar
     7     4     5   ar
     8     4     6    1
     9     6     7   ar
    10     6    13   ar
    11     7     8    1
    12     7    10   ar
    13     8     9    1
    14    10    11   ar
    15    11    12   ar
    16    12    13   ar
    17    14    15   ar
    18    14    39    1
    19    15    16   ar
    20    15    38    1
    21    16    17   ar
    22    16    19    1
    23    17    18    2
    24    19    20    1
    25    20    21    1
    26    21    22    2
    27    21    23   am
    28    23    24    1
    29    24    25    1
    30    25    26    1
    31    26    27   ar
    32    26    31   ar
    33    27    28   ar
    34    28    29   ar
    35    28    36    1
    36    29    30   ar
    37    29    34    1
    38    30    31   ar
    39    30    32    1
    40    32    33    1
    41    34    35    1
    42    36    37    1
    43    39    40    1
