@<TRIPOS>MOLECULE
37427_ChemDiv_C528-1449
 32 34 0 0 0
SMALL
GASTEIGER
Energy = 0

@<TRIPOS>ATOM
      1 C           0.3080   -1.7330    0.0000 C.ar    1  LIG1        0.2312
      2 N           0.5460   -0.7540    0.0000 N.ar    1  LIG1       -0.2112
      3 C           1.5420   -0.6750    0.0000 C.ar    1  LIG1        0.1161
      4 C           2.0710    0.1790    0.0000 C.3     1  LIG1        0.1996
      5 S           1.5880    1.0580    0.0000 S.O2    1  LIG1        0.0048
      6 C           1.0960    1.9330    0.0000 C.3     1  LIG1        0.2373
      7 C           1.6210    2.7960    0.0000 C.2     1  LIG1        0.2655
      8 O           2.6210    2.7790    0.0000 O.2     1  LIG1       -0.2714
      9 N           1.1380    3.6710    0.0000 N.am    1  LIG1       -0.2037
     10 C           0.1290    3.7000    0.0000 C.3     1  LIG1        0.1214
     11 C          -0.3830    2.8380    0.0000 C.3     1  LIG1        0.0861
     12 C          -1.3830    2.8710    0.0000 C.3     1  LIG1        0.1404
     13 N          -1.9000    2.0000    0.0000 N.4     1  LIG1        0.3777
     14 C          -1.4250    1.1210    0.0000 C.3     1  LIG1        0.0872
     15 C          -0.4170    1.1040    0.0000 C.3     1  LIG1        0.0567
     16 C           0.0670    0.2250    0.0000 C.3     1  LIG1        0.0059
     17 C          -0.4580   -0.6290    0.0000 C.3     1  LIG1        0.0004
     18 C          -1.4460   -0.6040    0.0000 C.3     1  LIG1        0.0059
     19 C          -1.9290    0.2710    0.0000 C.3     1  LIG1        0.0567
     20 C          -2.8960    2.0250    0.0000 C.3     1  LIG1        0.2019
     21 O           2.4710    1.5420    0.0000 O.2     1  LIG1       -0.1721
     22 O           0.7040    0.5630    0.0000 O.2     1  LIG1       -0.1721
     23 C           1.9210   -1.5960    0.0000 C.ar    1  LIG1        0.1403
     24 O           1.1670   -2.2500    0.0000 O.2     1  LIG1       -0.4391
     25 C           2.8920   -1.8130    0.0000 C.3     1  LIG1        0.0739
     26 C          -0.6170   -2.0710    0.0000 C.ar    1  LIG1        0.0809
     27 C          -0.7920   -3.0500    0.0000 C.ar    1  LIG1        0.1446
     28 F          -0.0210   -3.6960    0.0000 F       1  LIG1       -0.2040
     29 C          -1.7290   -3.4000    0.0000 C.ar    1  LIG1        0.0298
     30 C          -2.4830   -2.7580    0.0000 C.ar    1  LIG1        0.0023
     31 C          -2.3080   -1.7830    0.0000 C.ar    1  LIG1        0.0003
     32 C          -1.3830   -1.4330    0.0000 C.ar    1  LIG1        0.0069
@<TRIPOS>BOND
     1     1     2   ar
     2     1    24   ar
     3     1    26    1
     4     2     3   ar
     5     3     4    1
     6     3    23   ar
     7     4     5    1
     8     5     6    1
     9     5    21    2
    10     5    22    2
    11     6     7    1
    12     7     8    2
    13     7     9   am
    14     9    10    1
    15    10    11    1
    16    11    12    1
    17    12    13    1
    18    13    14    1
    19    13    20    1
    20    14    15    1
    21    14    19    1
    22    15    16    1
    23    16    17    1
    24    17    18    1
    25    18    19    1
    26    23    24   ar
    27    23    25    1
    28    26    27   ar
    29    26    32   ar
    30    27    28    1
    31    27    29   ar
    32    29    30   ar
    33    30    31   ar
    34    31    32   ar
