@<TRIPOS>MOLECULE
37429_ChemDiv_C700-1440
 39 42 0 0 0
SMALL
GASTEIGER
Energy = 0

@<TRIPOS>ATOM
      1 C          -2.5250    1.3290    0.0000 C.ar    1  LIG1        0.2298
      2 N          -1.6040    1.7380    0.0000 N.ar    1  LIG1       -0.2112
      3 C          -0.9380    0.9920    0.0000 C.ar    1  LIG1        0.1161
      4 C           0.0580    1.1000    0.0000 C.3     1  LIG1        0.1996
      5 S           0.4630    2.0210    0.0000 S.O2    1  LIG1        0.0048
      6 C           0.8750    2.9330    0.0000 C.3     1  LIG1        0.2358
      7 C           1.8420    3.1880    0.0000 C.2     1  LIG1        0.2501
      8 N           2.5460    2.4960    0.0000 N.am    1  LIG1       -0.2667
      9 C           2.2920    1.5380    0.0000 C.3     1  LIG1        0.1565
     10 C           3.0000    0.8250    0.0000 C.3     1  LIG1        0.1610
     11 N           3.9750    1.0830    0.0000 N.4     1  LIG1        0.3835
     12 C           4.6790    0.3790    0.0000 C.3     1  LIG1        0.1695
     13 C           4.4290   -0.5790    0.0000 C.ar    1  LIG1        0.0715
     14 C           3.4580   -0.8380    0.0000 C.ar    1  LIG1        0.1769
     15 C           3.2040   -1.8040    0.0000 C.ar    1  LIG1        0.2059
     16 C           3.9130   -2.5000    0.0000 C.ar    1  LIG1        0.1754
     17 C           4.8790   -2.2380    0.0000 C.ar    1  LIG1        0.0401
     18 C           5.1210   -1.2750    0.0000 C.ar    1  LIG1        0.0078
     19 O           3.6580   -3.4630    0.0000 O.3     1  LIG1       -0.4683
     20 C           4.3670   -4.1630    0.0000 C.3     1  LIG1        0.2526
     21 O           2.2460   -2.0630    0.0000 O.3     1  LIG1       -0.4654
     22 C           1.9920   -3.0250    0.0000 C.3     1  LIG1        0.2528
     23 O           2.7580   -0.1420    0.0000 O.3     1  LIG1       -0.4684
     24 C           1.7960   -0.4000    0.0000 C.3     1  LIG1        0.2526
     25 C           4.2290    2.0540    0.0000 C.3     1  LIG1        0.1610
     26 C           3.5210    2.7630    0.0000 C.3     1  LIG1        0.1565
     27 O           2.1000    4.1630    0.0000 O.2     1  LIG1       -0.2730
     28 O          -0.4540    2.4420    0.0000 O.2     1  LIG1       -0.1721
     29 O           1.3580    1.6000    0.0000 O.2     1  LIG1       -0.1721
     30 C          -1.4380    0.1210    0.0000 C.ar    1  LIG1        0.1403
     31 O          -2.4210    0.3330    0.0000 O.2     1  LIG1       -0.4392
     32 C          -1.0210   -0.7920    0.0000 C.3     1  LIG1        0.0739
     33 C          -3.3880    1.8250    0.0000 C.ar    1  LIG1        0.0641
     34 C          -3.3880    2.8380    0.0000 C.ar    1  LIG1        0.0621
     35 CL         -2.5250    3.3380    0.0000 Cl      1  LIG1       -0.0821
     36 C          -4.2540    3.3380    0.0000 C.ar    1  LIG1        0.0115
     37 C          -5.1250    2.8250    0.0000 C.ar    1  LIG1        0.0009
     38 C          -5.1250    1.8250    0.0000 C.ar    1  LIG1        0.0002
     39 C          -4.2540    1.3250    0.0000 C.ar    1  LIG1        0.0055
@<TRIPOS>BOND
     1     1     2   ar
     2     1    31   ar
     3     1    33    1
     4     2     3   ar
     5     3     4    1
     6     3    30   ar
     7     4     5    1
     8     5     6    1
     9     5    28    2
    10     5    29    2
    11     6     7    1
    12     7     8   am
    13     7    27    2
    14     8     9    1
    15     8    26    1
    16     9    10    1
    17    10    11    1
    18    11    12    1
    19    11    25    1
    20    12    13    1
    21    13    14   ar
    22    13    18   ar
    23    14    15   ar
    24    14    23    1
    25    15    16   ar
    26    15    21    1
    27    16    17   ar
    28    16    19    1
    29    17    18   ar
    30    19    20    1
    31    21    22    1
    32    23    24    1
    33    25    26    1
    34    30    31   ar
    35    30    32    1
    36    33    34   ar
    37    33    39   ar
    38    34    35    1
    39    34    36   ar
    40    36    37   ar
    41    37    38   ar
    42    38    39   ar
