@<TRIPOS>MOLECULE
37425_ChemDiv_C528-0997
 33 36 0 0 0
SMALL
GASTEIGER
Energy = 0

@<TRIPOS>ATOM
      1 C           1.3380   -2.1580    0.0000 C.ar    1  LIG1        0.1161
      2 N           0.3420   -2.2420    0.0000 N.ar    1  LIG1       -0.2112
      3 C           0.1040   -3.2170    0.0000 C.ar    1  LIG1        0.2291
      4 O           0.9580   -3.7380    0.0000 O.2     1  LIG1       -0.4392
      5 C           1.7170   -3.0830    0.0000 C.ar    1  LIG1        0.1403
      6 C           2.6880   -3.3000    0.0000 C.3     1  LIG1        0.0739
      7 C          -0.8250   -3.5540    0.0000 C.ar    1  LIG1        0.0566
      8 C          -1.0000   -4.5380    0.0000 C.ar    1  LIG1        0.0415
      9 C          -1.9380   -4.8830    0.0000 C.ar    1  LIG1        0.1389
     10 O          -2.1040   -5.8670    0.0000 O.3     1  LIG1       -0.4714
     11 C          -1.3960   -6.5750    0.0000 C.3     1  LIG1        0.2525
     12 C          -2.6920   -4.2460    0.0000 C.ar    1  LIG1        0.0369
     13 C          -2.5170   -3.2670    0.0000 C.ar    1  LIG1        0.0033
     14 C          -1.5880   -2.9210    0.0000 C.ar    1  LIG1        0.0049
     15 C           1.8670   -1.3040    0.0000 C.3     1  LIG1        0.1996
     16 S           1.3830   -0.4250    0.0000 S.O2    1  LIG1        0.0048
     17 C           0.8920    0.4500    0.0000 C.3     1  LIG1        0.2358
     18 C           1.4130    1.3130    0.0000 C.2     1  LIG1        0.2498
     19 N           0.9290    2.1880    0.0000 N.am    1  LIG1       -0.2746
     20 C           1.4500    3.0460    0.0000 C.3     1  LIG1        0.1149
     21 C           0.9670    3.9210    0.0000 C.3     1  LIG1        0.1137
     22 N          -0.0170    3.9380    0.0000 N.pl3   1  LIG1       -0.2897
     23 C          -0.5170    4.8080    0.0000 C.ar    1  LIG1        0.1318
     24 N          -1.5170    4.8330    0.0000 N.ar    1  LIG1       -0.2292
     25 C          -2.0130    5.7000    0.0000 C.ar    1  LIG1        0.1003
     26 C          -1.4830    6.5750    0.0000 C.ar    1  LIG1        0.0208
     27 C          -0.4880    6.5500    0.0000 C.ar    1  LIG1        0.0045
     28 C           0.0000    5.6670    0.0000 C.ar    1  LIG1        0.0343
     29 C          -0.5460    3.0750    0.0000 C.3     1  LIG1        0.1137
     30 C          -0.0630    2.2210    0.0000 C.3     1  LIG1        0.1149
     31 O           2.4170    1.2960    0.0000 O.2     1  LIG1       -0.2730
     32 O           0.4960   -0.9210    0.0000 O.2     1  LIG1       -0.1721
     33 O           2.2670    0.0580    0.0000 O.2     1  LIG1       -0.1721
@<TRIPOS>BOND
     1     1     2   ar
     2     1     5   ar
     3     1    15    1
     4     2     3   ar
     5     3     4   ar
     6     3     7    1
     7     4     5   ar
     8     5     6    1
     9     7     8   ar
    10     7    14   ar
    11     8     9   ar
    12     9    10    1
    13     9    12   ar
    14    10    11    1
    15    12    13   ar
    16    13    14   ar
    17    15    16    1
    18    16    17    1
    19    16    32    2
    20    16    33    2
    21    17    18    1
    22    18    19   am
    23    18    31    2
    24    19    20    1
    25    19    30    1
    26    20    21    1
    27    21    22    1
    28    22    23    1
    29    22    29    1
    30    23    24   ar
    31    23    28   ar
    32    24    25   ar
    33    25    26   ar
    34    26    27   ar
    35    27    28   ar
    36    29    30    1
