@<TRIPOS>MOLECULE
37423_ChemDiv_C548-3175
 30 34 0 0 0
SMALL
GASTEIGER
Energy = 0

@<TRIPOS>ATOM
      1 S           2.4040    0.3380    0.0000 S.O2    1  LIG1        0.0652
      2 C           3.0630   -0.3830    0.0000 C.ar    1  LIG1        0.1419
      3 C           4.0000   -0.1710    0.0000 C.ar    1  LIG1        0.1273
      4 N           4.4670    0.6750    0.0000 N.ar    1  LIG1       -0.1888
      5 S           5.4250    0.4880    0.0000 S.2     1  LIG1        0.1165
      6 N           5.5460   -0.4710    0.0000 N.ar    1  LIG1       -0.1901
      7 C           4.6580   -0.8790    0.0000 C.ar    1  LIG1        0.1102
      8 C           4.3670   -1.8080    0.0000 C.ar    1  LIG1        0.0214
      9 C           3.4210   -2.0080    0.0000 C.ar    1  LIG1        0.0030
     10 C           2.7710   -1.3000    0.0000 C.ar    1  LIG1        0.0216
     11 N           1.7630    1.0540    0.0000 N.3     1  LIG1       -0.1480
     12 C           0.7960    0.9540    0.0000 C.3     1  LIG1        0.1571
     13 C           0.3080    0.1170    0.0000 C.2     1  LIG1        0.2578
     14 N          -0.6630    0.1170    0.0000 N.am    1  LIG1       -0.1994
     15 C          -1.1210   -0.7330    0.0000 C.3     1  LIG1        0.1416
     16 C          -2.0380   -0.7420    0.0000 C.ar    1  LIG1        0.0027
     17 C          -2.5250   -1.6000    0.0000 C.ar    1  LIG1        0.0376
     18 C          -3.5540   -1.6080    0.0000 C.ar    1  LIG1        0.1762
     19 C          -4.0750   -0.7130    0.0000 C.ar    1  LIG1        0.1764
     20 O          -5.5500   -1.5710    0.0000 O.3     1  LIG1       -0.4346
     21 C          -5.0330   -2.4670    0.0000 C.3     1  LIG1        0.4294
     22 O          -4.0540   -2.4790    0.0000 O.3     1  LIG1       -0.4346
     23 C          -3.5330    0.1580    0.0000 C.ar    1  LIG1        0.0399
     24 C          -2.5580    0.1670    0.0000 C.ar    1  LIG1        0.0008
     25 O           0.7960   -0.7210    0.0000 O.2     1  LIG1       -0.2718
     26 C           0.3960    1.8420    0.0000 C.3     1  LIG1        0.0286
     27 C           1.1170    2.4830    0.0000 C.3     1  LIG1        0.0211
     28 C           1.9540    2.0040    0.0000 C.3     1  LIG1        0.0964
     29 O           3.1210    0.9830    0.0000 O.2     1  LIG1       -0.1527
     30 O           1.6960   -0.3130    0.0000 O.2     1  LIG1       -0.1527
@<TRIPOS>BOND
     1     1     2    1
     2     1    11    1
     3     1    29    2
     4     1    30    2
     5     2     3   ar
     6     2    10   ar
     7     3     4   ar
     8     3     7   ar
     9     4     5   ar
    10     5     6   ar
    11     6     7   ar
    12     7     8   ar
    13     8     9   ar
    14     9    10   ar
    15    11    12    1
    16    11    28    1
    17    12    13    1
    18    12    26    1
    19    13    14   am
    20    13    25    2
    21    14    15    1
    22    15    16    1
    23    16    17   ar
    24    16    24   ar
    25    17    18   ar
    26    18    19   ar
    27    18    22    1
    28    19    20    1
    29    19    23   ar
    30    20    21    1
    31    21    22    1
    32    23    24   ar
    33    26    27    1
    34    27    28    1
