@<TRIPOS>MOLECULE
37421_ChemDiv_C481-0633
 34 38 0 0 0
SMALL
GASTEIGER
Energy = 0

@<TRIPOS>ATOM
      1 S          -2.4130   -0.8210    0.0000 S.O2    1  LIG1        0.0788
      2 C          -2.9130   -1.6630    0.0000 C.ar    1  LIG1        0.1433
      3 C          -3.8880   -1.6630    0.0000 C.ar    1  LIG1        0.1274
      4 N          -4.5460   -0.9500    0.0000 N.ar    1  LIG1       -0.1888
      5 S          -5.4290   -1.3420    0.0000 S.2     1  LIG1        0.1165
      6 N          -5.3290   -2.3080    0.0000 N.ar    1  LIG1       -0.1901
      7 C          -4.3710   -2.5080    0.0000 C.ar    1  LIG1        0.1102
      8 C          -3.8790   -3.3540    0.0000 C.ar    1  LIG1        0.0214
      9 C          -2.9040   -3.3460    0.0000 C.ar    1  LIG1        0.0030
     10 C          -2.4290   -2.4920    0.0000 C.ar    1  LIG1        0.0216
     11 N          -1.9210    0.0170    0.0000 N.3     1  LIG1       -0.0695
     12 C          -0.9540    0.0170    0.0000 C.3     1  LIG1        0.1794
     13 C          -0.4630   -0.8330    0.0000 C.2     1  LIG1        0.2598
     14 N           0.5040   -0.8330    0.0000 N.am    1  LIG1       -0.1993
     15 C           0.9670    0.0250    0.0000 C.3     1  LIG1        0.1416
     16 C           1.8880    0.0330    0.0000 C.ar    1  LIG1        0.0027
     17 C           2.3790    0.8920    0.0000 C.ar    1  LIG1        0.0376
     18 C           3.4130    0.9080    0.0000 C.ar    1  LIG1        0.1762
     19 C           3.9290    0.0080    0.0000 C.ar    1  LIG1        0.1764
     20 O           5.4250    0.8630    0.0000 O.3     1  LIG1       -0.4346
     21 C           4.8960    1.7670    0.0000 C.3     1  LIG1        0.4294
     22 O           3.9130    1.7750    0.0000 O.3     1  LIG1       -0.4346
     23 C           3.3920   -0.8670    0.0000 C.ar    1  LIG1        0.0399
     24 C           2.4170   -0.8670    0.0000 C.ar    1  LIG1        0.0008
     25 O          -0.9540   -1.6710    0.0000 O.2     1  LIG1       -0.2718
     26 C          -0.4630    0.8540    0.0000 C.3     1  LIG1        0.0551
     27 C          -0.9460    1.6920    0.0000 C.ar    1  LIG1       -0.0202
     28 C          -1.9130    1.6920    0.0000 C.ar    1  LIG1       -0.0042
     29 C          -2.3960    2.5290    0.0000 C.ar    1  LIG1       -0.0003
     30 C          -1.9040    3.3580    0.0000 C.ar    1  LIG1       -0.0000
     31 C          -0.9380    3.3580    0.0000 C.ar    1  LIG1       -0.0003
     32 C          -0.4630    2.5210    0.0000 C.ar    1  LIG1       -0.0042
     33 O          -1.5750   -1.3250    0.0000 O.2     1  LIG1       -0.1515
     34 O          -3.2580   -0.3290    0.0000 O.2     1  LIG1       -0.1515
@<TRIPOS>BOND
     1     1     2    1
     2     1    11    1
     3     1    33    2
     4     1    34    2
     5     2     3   ar
     6     2    10   ar
     7     3     4   ar
     8     3     7   ar
     9     4     5   ar
    10     5     6   ar
    11     6     7   ar
    12     7     8   ar
    13     8     9   ar
    14     9    10   ar
    15    11    12    1
    16    12    13    1
    17    12    26    1
    18    13    14   am
    19    13    25    2
    20    14    15    1
    21    15    16    1
    22    16    17   ar
    23    16    24   ar
    24    17    18   ar
    25    18    19   ar
    26    18    22    1
    27    19    20    1
    28    19    23   ar
    29    20    21    1
    30    21    22    1
    31    23    24   ar
    32    26    27    1
    33    27    28   ar
    34    27    32   ar
    35    28    29   ar
    36    29    30   ar
    37    30    31   ar
    38    31    32   ar
