@<TRIPOS>MOLECULE
37426_ChemDiv_C561-1542
 40 43 0 0 0
SMALL
GASTEIGER
Energy = 0

@<TRIPOS>ATOM
      1 N           0.8750   -2.6420    0.0000 N.ar    1  LIG1       -0.2165
      2 C           0.8750   -3.6380    0.0000 C.ar    1  LIG1        0.1645
      3 C           1.8290   -3.9500    0.0000 C.ar    1  LIG1        0.0597
      4 C           2.4130   -3.1380    0.0000 C.ar    1  LIG1        0.1073
      5 N           1.8290   -2.3380    0.0000 N.ar    1  LIG1       -0.1639
      6 C           3.4130   -3.1330    0.0000 C.ar    1  LIG1        0.0536
      7 C           3.9130   -3.9960    0.0000 C.ar    1  LIG1        0.1432
      8 C           4.9130   -3.9880    0.0000 C.ar    1  LIG1        0.0738
      9 C           5.4000   -3.1250    0.0000 C.ar    1  LIG1        0.1418
     10 C           4.8960   -2.2540    0.0000 C.ar    1  LIG1        0.0372
     11 C           3.9000   -2.2630    0.0000 C.ar    1  LIG1        0.0077
     12 O           6.4000   -3.1210    0.0000 O.3     1  LIG1       -0.4713
     13 C           6.9080   -3.9830    0.0000 C.3     1  LIG1        0.2525
     14 O           3.4130   -4.8670    0.0000 O.3     1  LIG1       -0.4713
     15 C           2.4130   -4.8670    0.0000 C.3     1  LIG1        0.2525
     16 N           0.0130   -4.1380    0.0000 N.ar    1  LIG1       -0.2311
     17 C          -0.8540   -3.6380    0.0000 C.ar    1  LIG1        0.0582
     18 C          -0.8540   -2.6420    0.0000 C.ar    1  LIG1        0.0056
     19 C           0.0130   -2.1420    0.0000 C.ar    1  LIG1        0.0596
     20 C           0.0130   -1.1420    0.0000 C.3     1  LIG1        0.0519
     21 C          -1.7290   -2.1330    0.0000 C.3     1  LIG1        0.0384
     22 C          -1.7210   -1.1250    0.0000 C.3     1  LIG1        0.0916
     23 C          -2.5830   -0.6250    0.0000 C.2     1  LIG1        0.2420
     24 N          -2.5830    0.3710    0.0000 N.am    1  LIG1       -0.2021
     25 C          -3.4460    0.8710    0.0000 C.3     1  LIG1        0.1286
     26 C          -3.4420    1.8710    0.0000 C.3     1  LIG1        0.1356
     27 C          -2.5790    2.3710    0.0000 C.2     1  LIG1        0.3191
     28 O          -1.7170    1.8710    0.0000 O.2     1  LIG1       -0.2500
     29 O          -2.5790    3.3710    0.0000 O.3     1  LIG1       -0.4484
     30 C          -3.4420    3.8710    0.0000 C.3     1  LIG1        0.2086
     31 C          -3.4420    4.8670    0.0000 C.3     1  LIG1        0.0513
     32 C          -4.3210    0.3710    0.0000 C.ar    1  LIG1       -0.0020
     33 C          -5.1830    0.8790    0.0000 C.ar    1  LIG1       -0.0029
     34 C          -6.0460    0.3790    0.0000 C.ar    1  LIG1       -0.0045
     35 C          -6.0460   -0.6250    0.0000 C.ar    1  LIG1       -0.0219
     36 C          -5.1830   -1.1250    0.0000 C.ar    1  LIG1       -0.0045
     37 C          -4.3080   -0.6250    0.0000 C.ar    1  LIG1       -0.0029
     38 C          -6.9080   -1.1250    0.0000 C.3     1  LIG1        0.0310
     39 O          -3.4460   -1.1250    0.0000 O.2     1  LIG1       -0.2733
     40 C          -1.7290   -4.1380    0.0000 C.3     1  LIG1        0.0518
@<TRIPOS>BOND
     1     1     2   ar
     2     1     5   ar
     3     1    19   ar
     4     2     3   ar
     5     2    16   ar
     6     3     4   ar
     7     4     5   ar
     8     4     6    1
     9     6     7   ar
    10     6    11   ar
    11     7     8   ar
    12     7    14    1
    13     8     9   ar
    14     9    10   ar
    15     9    12    1
    16    10    11   ar
    17    12    13    1
    18    14    15    1
    19    16    17   ar
    20    17    18   ar
    21    17    40    1
    22    18    19   ar
    23    18    21    1
    24    19    20    1
    25    21    22    1
    26    22    23    1
    27    23    24   am
    28    23    39    2
    29    24    25    1
    30    25    26    1
    31    25    32    1
    32    26    27    1
    33    27    28    2
    34    27    29    1
    35    29    30    1
    36    30    31    1
    37    32    33   ar
    38    32    37   ar
    39    33    34   ar
    40    34    35   ar
    41    35    36   ar
    42    35    38    1
    43    36    37   ar
