@<TRIPOS>MOLECULE
37420_ChemDiv_C627-0006
 23 25 0 0 0
SMALL
GASTEIGER
Energy = 0

@<TRIPOS>ATOM
      1 C           1.9630    1.0630    0.0000 C.ar    1  LIG1        0.1575
      2 N           1.5540    1.9750    0.0000 N.ar    1  LIG1       -0.1604
      3 N           2.2960    2.6420    0.0000 N.ar    1  LIG1       -0.2281
      4 C           3.1630    2.1420    0.0000 C.ar    1  LIG1        0.0846
      5 C           2.9540    1.1630    0.0000 C.ar    1  LIG1        0.0447
      6 C           4.0330    2.6420    0.0000 C.ar    1  LIG1        0.0193
      7 C           4.0330    3.6460    0.0000 C.ar    1  LIG1        0.0031
      8 C           3.1630    4.1380    0.0000 C.ar    1  LIG1        0.0207
      9 C           2.2960    3.6460    0.0000 C.ar    1  LIG1        0.1004
     10 C           1.4630    0.1920    0.0000 C.2     1  LIG1        0.2842
     11 N           0.4630    0.1920    0.0000 N.am    1  LIG1       -0.2020
     12 C          -0.0380   -0.6750    0.0000 C.3     1  LIG1        0.0991
     13 C           0.4630   -1.5420    0.0000 C.3     1  LIG1        0.0433
     14 C          -0.0380   -2.4040    0.0000 C.3     1  LIG1        0.0985
     15 N          -1.0420   -2.4040    0.0000 N.am    1  LIG1       -0.2459
     16 C          -1.5380   -3.2710    0.0000 C.2     1  LIG1        0.4049
     17 O          -1.0420   -4.1380    0.0000 O.2     1  LIG1       -0.2262
     18 O          -2.5420   -3.2710    0.0000 O.3     1  LIG1       -0.4345
     19 C          -3.0380   -4.1380    0.0000 C.3     1  LIG1        0.2102
     20 C          -4.0370   -4.1380    0.0000 C.3     1  LIG1        0.0513
     21 C          -1.5380   -1.5420    0.0000 C.3     1  LIG1        0.0985
     22 C          -1.0420   -0.6750    0.0000 C.3     1  LIG1        0.0433
     23 O           1.9630   -0.6750    0.0000 O.2     1  LIG1       -0.2666
@<TRIPOS>BOND
     1     1     2   ar
     2     1     5   ar
     3     1    10    1
     4     2     3   ar
     5     3     4   ar
     6     3     9   ar
     7     4     5   ar
     8     4     6   ar
     9     6     7   ar
    10     7     8   ar
    11     8     9   ar
    12    10    11   am
    13    10    23    2
    14    11    12    1
    15    12    13    1
    16    12    22    1
    17    13    14    1
    18    14    15    1
    19    15    16   am
    20    15    21    1
    21    16    17    2
    22    16    18    1
    23    18    19    1
    24    19    20    1
    25    21    22    1
