@<TRIPOS>MOLECULE
37422_ChemDiv_C627-0018
 20 22 0 0 0
SMALL
GASTEIGER
Energy = 0

@<TRIPOS>ATOM
      1 C           1.4670    0.1960    0.0000 C.ar    1  LIG1        0.1575
      2 N           1.0540    1.1080    0.0000 N.ar    1  LIG1       -0.1604
      3 N           1.7960    1.7750    0.0000 N.ar    1  LIG1       -0.2281
      4 C           2.6630    1.2750    0.0000 C.ar    1  LIG1        0.0846
      5 C           2.4540    0.3000    0.0000 C.ar    1  LIG1        0.0447
      6 C           3.5330    1.7750    0.0000 C.ar    1  LIG1        0.0193
      7 C           3.5330    2.7790    0.0000 C.ar    1  LIG1        0.0031
      8 C           2.6630    3.2750    0.0000 C.ar    1  LIG1        0.0207
      9 C           1.7960    2.7790    0.0000 C.ar    1  LIG1        0.1004
     10 C           0.9630   -0.6750    0.0000 C.2     1  LIG1        0.2846
     11 N          -0.0380   -0.6750    0.0000 N.am    1  LIG1       -0.1954
     12 C          -0.5380   -1.5380    0.0000 C.3     1  LIG1        0.1427
     13 C          -1.5380   -1.5380    0.0000 C.ar    1  LIG1        0.0100
     14 C          -2.0330   -2.4040    0.0000 C.ar    1  LIG1        0.0554
     15 CL         -1.5380   -3.2710    0.0000 Cl      1  LIG1       -0.0825
     16 C          -3.0380   -2.4040    0.0000 C.ar    1  LIG1        0.0111
     17 C          -3.5380   -1.5380    0.0000 C.ar    1  LIG1        0.0008
     18 C          -3.0380   -0.6750    0.0000 C.ar    1  LIG1       -0.0002
     19 C          -2.0330   -0.6750    0.0000 C.ar    1  LIG1       -0.0017
     20 O           1.4670   -1.5380    0.0000 O.2     1  LIG1       -0.2666
@<TRIPOS>BOND
     1     1     2   ar
     2     1     5   ar
     3     1    10    1
     4     2     3   ar
     5     3     4   ar
     6     3     9   ar
     7     4     5   ar
     8     4     6   ar
     9     6     7   ar
    10     7     8   ar
    11     8     9   ar
    12    10    11   am
    13    10    20    2
    14    11    12    1
    15    12    13    1
    16    13    14   ar
    17    13    19   ar
    18    14    15    1
    19    14    16   ar
    20    16    17   ar
    21    17    18   ar
    22    18    19   ar
