@<TRIPOS>MOLECULE
37435_ChemDiv_K788-6999
 34 38 0 0 0
SMALL
GASTEIGER
Energy = 0

@<TRIPOS>ATOM
      1 N          -2.9080    1.2500    0.0000 N.ar    1  LIG1       -0.2121
      2 C          -3.8250    0.8420    0.0000 C.ar    1  LIG1        0.2289
      3 O          -3.7170   -0.1580    0.0000 O.2     1  LIG1       -0.4392
      4 C          -2.7380   -0.3670    0.0000 C.ar    1  LIG1        0.1394
      5 C          -2.2380    0.5040    0.0000 C.ar    1  LIG1        0.1032
      6 C          -1.2710    0.2460    0.0000 C.3     1  LIG1        0.1065
      7 S          -0.5630    0.9580    0.0000 S.3     1  LIG1       -0.1240
      8 C           0.4040    0.6960    0.0000 C.3     1  LIG1        0.1430
      9 C           1.1130    1.4080    0.0000 C.2     1  LIG1        0.2370
     10 N           2.0710    1.1630    0.0000 N.am    1  LIG1       -0.2674
     11 C           2.3330    0.1960    0.0000 C.3     1  LIG1        0.1565
     12 C           3.2960   -0.0580    0.0000 C.3     1  LIG1        0.1610
     13 N           3.9960    0.6500    0.0000 N.4     1  LIG1        0.3834
     14 C           4.9580    0.3920    0.0000 C.3     1  LIG1        0.1664
     15 C           5.2170   -0.5750    0.0000 C.ar    1  LIG1        0.0376
     16 C           4.5040   -1.2710    0.0000 C.ar    1  LIG1        0.0416
     17 C           4.7500   -2.2380    0.0000 C.ar    1  LIG1        0.1763
     18 C           5.7040   -2.5000    0.0000 C.ar    1  LIG1        0.1764
     19 O           5.7630   -3.4920    0.0000 O.3     1  LIG1       -0.4346
     20 C           4.8250   -3.8460    0.0000 C.3     1  LIG1        0.4294
     21 O           4.2040   -3.0670    0.0000 O.3     1  LIG1       -0.4346
     22 C           6.4250   -1.7960    0.0000 C.ar    1  LIG1        0.0401
     23 C           6.1710   -0.8290    0.0000 C.ar    1  LIG1        0.0048
     24 C           3.7330    1.6130    0.0000 C.3     1  LIG1        0.1610
     25 C           2.7710    1.8750    0.0000 C.3     1  LIG1        0.1565
     26 O           0.8420    2.3750    0.0000 O.2     1  LIG1       -0.2739
     27 C          -2.3250   -1.2830    0.0000 C.3     1  LIG1        0.0739
     28 C          -4.6960    1.3380    0.0000 C.ar    1  LIG1        0.0532
     29 C          -4.6960    2.3460    0.0000 C.ar    1  LIG1        0.0004
     30 C          -5.5710    2.8460    0.0000 C.ar    1  LIG1       -0.0217
     31 C          -6.4250    2.3460    0.0000 C.ar    1  LIG1       -0.0043
     32 C          -6.4250    1.3380    0.0000 C.ar    1  LIG1       -0.0002
     33 C          -5.5710    0.8330    0.0000 C.ar    1  LIG1        0.0046
     34 C          -5.5710    3.8500    0.0000 C.3     1  LIG1        0.0310
@<TRIPOS>BOND
     1     1     2   ar
     2     1     5   ar
     3     2     3   ar
     4     2    28    1
     5     3     4   ar
     6     4     5   ar
     7     4    27    1
     8     5     6    1
     9     6     7    1
    10     7     8    1
    11     8     9    1
    12     9    10   am
    13     9    26    2
    14    10    11    1
    15    10    25    1
    16    11    12    1
    17    12    13    1
    18    13    14    1
    19    13    24    1
    20    14    15    1
    21    15    16   ar
    22    15    23   ar
    23    16    17   ar
    24    17    18   ar
    25    17    21    1
    26    18    19    1
    27    18    22   ar
    28    19    20    1
    29    20    21    1
    30    22    23   ar
    31    24    25    1
    32    28    29   ar
    33    28    33   ar
    34    29    30   ar
    35    30    31   ar
    36    30    34    1
    37    31    32   ar
    38    32    33   ar
