@<TRIPOS>MOLECULE
37437_ChemDiv_K788-7002
 35 39 0 0 0
SMALL
GASTEIGER
Energy = 0

@<TRIPOS>ATOM
      1 N          -2.0420    1.7580    0.0000 N.ar    1  LIG1       -0.2121
      2 C          -2.9580    1.3460    0.0000 C.ar    1  LIG1        0.2289
      3 O          -2.8500    0.3500    0.0000 O.2     1  LIG1       -0.4392
      4 C          -1.8670    0.1420    0.0000 C.ar    1  LIG1        0.1394
      5 C          -1.3670    1.0170    0.0000 C.ar    1  LIG1        0.1032
      6 C          -0.4040    0.7580    0.0000 C.3     1  LIG1        0.1065
      7 S           0.3000    1.4630    0.0000 S.3     1  LIG1       -0.1240
      8 C           1.2670    1.2040    0.0000 C.3     1  LIG1        0.1430
      9 C           1.9710    1.9130    0.0000 C.2     1  LIG1        0.2370
     10 N           2.9290    1.6630    0.0000 N.am    1  LIG1       -0.2674
     11 C           3.1920    0.7040    0.0000 C.3     1  LIG1        0.1565
     12 C           4.1500    0.4500    0.0000 C.3     1  LIG1        0.1610
     13 N           4.8500    1.1580    0.0000 N.4     1  LIG1        0.3834
     14 C           5.8210    0.9040    0.0000 C.3     1  LIG1        0.1664
     15 C           6.0750   -0.0630    0.0000 C.ar    1  LIG1        0.0376
     16 C           5.3710   -0.7670    0.0000 C.ar    1  LIG1        0.0416
     17 C           5.6290   -1.7250    0.0000 C.ar    1  LIG1        0.1763
     18 C           6.5920   -1.9790    0.0000 C.ar    1  LIG1        0.1764
     19 O           6.6540   -2.9830    0.0000 O.3     1  LIG1       -0.4346
     20 C           5.7210   -3.3460    0.0000 C.3     1  LIG1        0.4294
     21 O           5.0830   -2.5710    0.0000 O.3     1  LIG1       -0.4346
     22 C           7.2960   -1.2830    0.0000 C.ar    1  LIG1        0.0401
     23 C           7.0420   -0.3170    0.0000 C.ar    1  LIG1        0.0048
     24 C           4.5920    2.1250    0.0000 C.3     1  LIG1        0.1610
     25 C           3.6210    2.3750    0.0000 C.3     1  LIG1        0.1565
     26 O           1.7080    2.8790    0.0000 O.2     1  LIG1       -0.2739
     27 C          -1.4630   -0.7710    0.0000 C.3     1  LIG1        0.0739
     28 C          -3.8290    1.8380    0.0000 C.ar    1  LIG1        0.0536
     29 C          -4.6960    1.3460    0.0000 C.ar    1  LIG1        0.0052
     30 C          -5.5630    1.8380    0.0000 C.ar    1  LIG1        0.0063
     31 C          -5.5630    2.8420    0.0000 C.ar    1  LIG1        0.0252
     32 S          -6.4290    3.3460    0.0000 S.3     1  LIG1       -0.1127
     33 C          -7.2960    2.8420    0.0000 C.3     1  LIG1        0.0742
     34 C          -4.6960    3.3500    0.0000 C.ar    1  LIG1        0.0063
     35 C          -3.8290    2.8460    0.0000 C.ar    1  LIG1        0.0052
@<TRIPOS>BOND
     1     1     2   ar
     2     1     5   ar
     3     2     3   ar
     4     2    28    1
     5     3     4   ar
     6     4     5   ar
     7     4    27    1
     8     5     6    1
     9     6     7    1
    10     7     8    1
    11     8     9    1
    12     9    10   am
    13     9    26    2
    14    10    11    1
    15    10    25    1
    16    11    12    1
    17    12    13    1
    18    13    14    1
    19    13    24    1
    20    14    15    1
    21    15    16   ar
    22    15    23   ar
    23    16    17   ar
    24    17    18   ar
    25    17    21    1
    26    18    19    1
    27    18    22   ar
    28    19    20    1
    29    20    21    1
    30    22    23   ar
    31    24    25    1
    32    28    29   ar
    33    28    35   ar
    34    29    30   ar
    35    30    31   ar
    36    31    32    1
    37    31    34   ar
    38    32    33    1
    39    34    35   ar
