@<TRIPOS>MOLECULE
37436_ChemDiv_C563-0559
 30 32 0 0 0
SMALL
GASTEIGER
Energy = 0

@<TRIPOS>ATOM
      1 S          -2.5460   -0.1420    0.0000 S.O2    1  LIG1        0.0766
      2 N          -3.5420   -0.1420    0.0000 N.pl3   1  LIG1       -0.1906
      3 C          -4.0370   -1.0170    0.0000 C.ar    1  LIG1        0.0688
      4 C          -3.5170   -1.9170    0.0000 C.ar    1  LIG1        0.0161
      5 C          -4.0370   -2.8080    0.0000 C.ar    1  LIG1        0.0013
      6 C          -5.0580   -2.8080    0.0000 C.ar    1  LIG1        0.0001
      7 C          -5.5790   -1.9040    0.0000 C.ar    1  LIG1        0.0013
      8 C          -5.0920   -0.9830    0.0000 C.ar    1  LIG1        0.0161
      9 C          -4.0830    0.7500    0.0000 C.3     1  LIG1        0.1158
     10 C          -3.7290    1.3540    0.0000 C.3     1  LIG1        0.0234
     11 C          -4.1210    1.9460    0.0000 C.3     1  LIG1        0.0018
     12 C          -3.6330    2.8130    0.0000 C.3     1  LIG1        0.0001
     13 C          -1.5380   -0.1420    0.0000 C.ar    1  LIG1        0.1252
     14 C          -1.0380    0.7250    0.0000 C.ar    1  LIG1        0.0172
     15 C          -0.0420    0.7380    0.0000 C.ar    1  LIG1       -0.0054
     16 C           0.4670   -0.1420    0.0000 C.ar    1  LIG1        0.0500
     17 N           1.4380    0.0750    0.0000 N.am    1  LIG1       -0.2586
     18 C           2.1830   -0.5920    0.0000 C.2     1  LIG1        0.2297
     19 O           1.9710   -1.5630    0.0000 O.2     1  LIG1       -0.2745
     20 C           3.1330   -0.2830    0.0000 C.3     1  LIG1        0.0915
     21 C           3.8790   -0.9460    0.0000 C.3     1  LIG1        0.0513
     22 C           4.8290   -0.6380    0.0000 C.2     1  LIG1        0.0508
     23 O           5.0290    0.3460    0.0000 O.co2   1  LIG1       -0.5492
     24 O           5.5750   -1.3130    0.0000 O.co2   1  LIG1       -0.5492
     25 C           1.5460    1.0670    0.0000 C.3     1  LIG1        0.1029
     26 C           0.6210    1.4710    0.0000 C.3     1  LIG1        0.0495
     27 C          -0.0420   -1.0170    0.0000 C.ar    1  LIG1        0.0160
     28 C          -1.0380   -1.0170    0.0000 C.ar    1  LIG1        0.0214
     29 O          -2.6880   -1.3250    0.0000 O.2     1  LIG1       -0.1497
     30 O          -2.3290    0.9380    0.0000 O.2     1  LIG1       -0.1497
@<TRIPOS>BOND
     1     1     2    1
     2     1    13    1
     3     1    29    2
     4     1    30    2
     5     2     3    1
     6     2     9    1
     7     3     4   ar
     8     3     8   ar
     9     4     5   ar
    10     5     6   ar
    11     6     7   ar
    12     7     8   ar
    13     9    10    1
    14    10    11    1
    15    11    12    1
    16    13    14   ar
    17    13    28   ar
    18    14    15   ar
    19    15    16   ar
    20    15    26    1
    21    16    17    1
    22    16    27   ar
    23    17    18   am
    24    17    25    1
    25    18    19    2
    26    18    20    1
    27    20    21    1
    28    21    22    1
    29    22    23   ar
    30    22    24   ar
    31    25    26    1
    32    27    28   ar
