@<TRIPOS>MOLECULE
37431_ChemDiv_K780-0715
 19 20 0 0 0
SMALL
GASTEIGER
Energy = 0

@<TRIPOS>ATOM
      1 N          -0.5630    0.4580    0.0000 N.ar    1  LIG1       -0.2120
      2 C           0.1040   -0.2710    0.0000 C.ar    1  LIG1        0.1058
      3 C          -0.3880   -1.1250    0.0000 C.ar    1  LIG1        0.1395
      4 O          -1.3500   -0.9170    0.0000 O.2     1  LIG1       -0.4392
      5 C          -1.4540    0.0580    0.0000 C.ar    1  LIG1        0.2289
      6 C          -2.3130    0.5420    0.0000 C.ar    1  LIG1        0.0535
      7 C          -2.3130    1.5330    0.0000 C.ar    1  LIG1        0.0046
      8 C          -3.1710    2.0250    0.0000 C.ar    1  LIG1        0.0002
      9 C          -4.0210    1.5330    0.0000 C.ar    1  LIG1        0.0000
     10 C          -4.0210    0.5420    0.0000 C.ar    1  LIG1        0.0002
     11 C          -3.1710    0.0500    0.0000 C.ar    1  LIG1        0.0046
     12 C           0.0170   -2.0210    0.0000 C.3     1  LIG1        0.0739
     13 C           1.0790   -0.1670    0.0000 C.3     1  LIG1        0.1405
     14 S           1.5670    0.6920    0.0000 S.O     1  LIG1        0.0536
     15 C           2.5500    0.6920    0.0000 C.3     1  LIG1        0.1335
     16 C           3.0330   -0.1580    0.0000 C.2     1  LIG1        0.0639
     17 O           4.0170   -0.1580    0.0000 O.co2   1  LIG1       -0.5482
     18 O           2.5420   -1.0080    0.0000 O.co2   1  LIG1       -0.5482
     19 O           0.7040    1.6630    0.0000 O.2     1  LIG1       -0.2552
@<TRIPOS>BOND
     1     1     2   ar
     2     1     5   ar
     3     2     3   ar
     4     2    13    1
     5     3     4   ar
     6     3    12    1
     7     4     5   ar
     8     5     6    1
     9     6     7   ar
    10     6    11   ar
    11     7     8   ar
    12     8     9   ar
    13     9    10   ar
    14    10    11   ar
    15    13    14    1
    16    14    15    1
    17    14    19    2
    18    15    16    1
    19    16    17   ar
    20    16    18   ar
