@<TRIPOS>MOLECULE
37433_ChemDiv_K788-6632
 27 29 0 0 0
SMALL
GASTEIGER
Energy = 0

@<TRIPOS>ATOM
      1 C          -1.6630    1.9710    0.0000 C.ar    1  LIG1        0.2286
      2 N          -0.7460    2.3790    0.0000 N.ar    1  LIG1       -0.2121
      3 C          -0.0750    1.6380    0.0000 C.ar    1  LIG1        0.1032
      4 C          -0.5750    0.7670    0.0000 C.ar    1  LIG1        0.1394
      5 O          -1.5540    0.9750    0.0000 O.2     1  LIG1       -0.4392
      6 C          -0.1670   -0.1460    0.0000 C.3     1  LIG1        0.0739
      7 C           0.9210    1.7460    0.0000 C.3     1  LIG1        0.1065
      8 S           1.6210    1.0380    0.0000 S.3     1  LIG1       -0.1240
      9 C           2.5830    1.2960    0.0000 C.3     1  LIG1        0.1430
     10 C           3.2920    0.5960    0.0000 C.2     1  LIG1        0.2366
     11 N           3.0380   -0.3710    0.0000 N.am    1  LIG1       -0.2788
     12 C           3.7460   -1.0710    0.0000 C.3     1  LIG1        0.0939
     13 C           3.4790   -2.0380    0.0000 C.3     1  LIG1        0.0307
     14 C           2.5170   -2.2920    0.0000 C.3     1  LIG1        0.0833
     15 C           2.2580   -3.2580    0.0000 C.2     1  LIG1        0.2604
     16 O           2.9580   -3.9670    0.0000 O.2     1  LIG1       -0.2717
     17 N           1.2920   -3.5130    0.0000 N.am    1  LIG1       -0.0878
     18 C           1.8170   -1.5880    0.0000 C.3     1  LIG1        0.0307
     19 C           2.0710   -0.6250    0.0000 C.3     1  LIG1        0.0939
     20 O           4.2630    0.8580    0.0000 O.2     1  LIG1       -0.2739
     21 C          -2.5330    2.4630    0.0000 C.ar    1  LIG1        0.0496
     22 C          -2.5330    3.4710    0.0000 C.ar    1  LIG1       -0.0173
     23 C          -1.6670    3.9710    0.0000 C.3     1  LIG1        0.0312
     24 C          -3.3960    3.9710    0.0000 C.ar    1  LIG1       -0.0041
     25 C          -4.2670    3.4630    0.0000 C.ar    1  LIG1       -0.0003
     26 C          -4.2670    2.4630    0.0000 C.ar    1  LIG1        0.0001
     27 C          -3.3960    1.9630    0.0000 C.ar    1  LIG1        0.0043
@<TRIPOS>BOND
     1     1     2   ar
     2     1     5   ar
     3     1    21    1
     4     2     3   ar
     5     3     4   ar
     6     3     7    1
     7     4     5   ar
     8     4     6    1
     9     7     8    1
    10     8     9    1
    11     9    10    1
    12    10    11   am
    13    10    20    2
    14    11    12    1
    15    11    19    1
    16    12    13    1
    17    13    14    1
    18    14    15    1
    19    14    18    1
    20    15    16    2
    21    15    17   am
    22    18    19    1
    23    21    22   ar
    24    21    27   ar
    25    22    23    1
    26    22    24   ar
    27    24    25   ar
    28    25    26   ar
    29    26    27   ar
