@<TRIPOS>MOLECULE
37438_ChemDiv_C564-0210
 28 29 0 0 0
SMALL
GASTEIGER
Energy = 0

@<TRIPOS>ATOM
      1 C          -1.2960    3.2460    0.0000 C.ar    1  LIG1        0.0669
      2 C          -1.2880    4.2540    0.0000 C.ar    1  LIG1        0.2614
      3 N          -0.4130    4.7500    0.0000 N.ar    1  LIG1       -0.2955
      4 C           0.4420    4.2460    0.0000 C.ar    1  LIG1        0.0629
      5 C           0.4330    3.2380    0.0000 C.ar    1  LIG1        0.0217
      6 C          -0.4290    2.7330    0.0000 C.ar    1  LIG1        0.0318
      7 S          -0.4290    1.7380    0.0000 S.3     1  LIG1       -0.1036
      8 C          -1.2960    1.2420    0.0000 C.3     1  LIG1        0.1487
      9 C          -1.3040    0.2460    0.0000 C.2     1  LIG1        0.2527
     10 O          -0.4380   -0.2500    0.0000 O.2     1  LIG1       -0.2724
     11 N          -2.1710   -0.2500    0.0000 N.am    1  LIG1       -0.2045
     12 C          -2.1710   -1.2540    0.0000 C.3     1  LIG1        0.1213
     13 C          -1.3040   -1.7420    0.0000 C.3     1  LIG1        0.0861
     14 C          -1.3040   -2.7460    0.0000 C.3     1  LIG1        0.1404
     15 N          -0.4460   -3.2330    0.0000 N.4     1  LIG1        0.3773
     16 C           0.4170   -2.7380    0.0000 C.3     1  LIG1        0.1388
     17 C           0.4170   -1.7330    0.0000 C.3     1  LIG1        0.0688
     18 C          -0.4460   -4.2460    0.0000 C.3     1  LIG1        0.1385
     19 C           0.4170   -4.7500    0.0000 C.3     1  LIG1        0.0627
     20 C           0.4170   -5.7460    0.0000 C.3     1  LIG1        0.0061
     21 C           1.2830   -6.2420    0.0000 C.3     1  LIG1        0.0002
     22 C           1.3000    2.7330    0.0000 C.ar    1  LIG1        0.0019
     23 C           2.1670    3.2290    0.0000 C.ar    1  LIG1        0.0001
     24 C           2.1670    4.2290    0.0000 C.ar    1  LIG1        0.0015
     25 C           1.3080    4.7330    0.0000 C.ar    1  LIG1        0.0173
     26 C          -0.4130    5.7460    0.0000 C.3     1  LIG1        0.1091
     27 C           0.4540    6.2420    0.0000 C.3     1  LIG1        0.0266
     28 O          -2.1500    4.7580    0.0000 O.2     1  LIG1       -0.2670
@<TRIPOS>BOND
     1     1     2   ar
     2     1     6   ar
     3     2     3   ar
     4     2    28    2
     5     3     4   ar
     6     3    26    1
     7     4     5   ar
     8     4    25   ar
     9     5     6   ar
    10     5    22   ar
    11     6     7    1
    12     7     8    1
    13     8     9    1
    14     9    10    2
    15     9    11   am
    16    11    12    1
    17    12    13    1
    18    13    14    1
    19    14    15    1
    20    15    16    1
    21    15    18    1
    22    16    17    1
    23    18    19    1
    24    19    20    1
    25    20    21    1
    26    22    23   ar
    27    23    24   ar
    28    24    25   ar
    29    26    27    1
