@<TRIPOS>MOLECULE
37439_ChemDiv_K788-7220
 35 39 0 0 0
SMALL
GASTEIGER
Energy = 0

@<TRIPOS>ATOM
      1 N          -1.1500    0.9580    0.0000 N.ar    1  LIG1       -0.2121
      2 C          -1.2540   -0.0460    0.0000 C.ar    1  LIG1        0.2290
      3 O          -0.3330   -0.4500    0.0000 O.2     1  LIG1       -0.4392
      4 C           0.3330    0.2920    0.0000 C.ar    1  LIG1        0.1394
      5 C          -0.1670    1.1710    0.0000 C.ar    1  LIG1        0.1032
      6 C           0.2330    2.0790    0.0000 C.3     1  LIG1        0.1065
      7 S           1.2380    2.0790    0.0000 S.3     1  LIG1       -0.1240
      8 C           1.7330    2.9460    0.0000 C.3     1  LIG1        0.1430
      9 C           2.7250    2.9460    0.0000 C.2     1  LIG1        0.2370
     10 N           3.2250    2.0830    0.0000 N.am    1  LIG1       -0.2674
     11 C           2.7250    1.2210    0.0000 C.3     1  LIG1        0.1565
     12 C           3.2210    0.3630    0.0000 C.3     1  LIG1        0.1610
     13 N           4.2130    0.3630    0.0000 N.4     1  LIG1        0.3834
     14 C           4.7130   -0.5000    0.0000 C.3     1  LIG1        0.1664
     15 C           4.2080   -1.3670    0.0000 C.ar    1  LIG1        0.0376
     16 C           3.2040   -1.3460    0.0000 C.ar    1  LIG1        0.0416
     17 C           2.6960   -2.2040    0.0000 C.ar    1  LIG1        0.1763
     18 C           3.1790   -3.0710    0.0000 C.ar    1  LIG1        0.1764
     19 O           2.5130   -3.8130    0.0000 O.3     1  LIG1       -0.4346
     20 C           1.6000   -3.4000    0.0000 C.3     1  LIG1        0.4294
     21 O           1.7170   -2.4000    0.0000 O.3     1  LIG1       -0.4346
     22 C           4.1830   -3.0830    0.0000 C.ar    1  LIG1        0.0401
     23 C           4.6920   -2.2290    0.0000 C.ar    1  LIG1        0.0048
     24 C           4.7130    1.2290    0.0000 C.3     1  LIG1        0.1610
     25 C           4.2130    2.0960    0.0000 C.3     1  LIG1        0.1565
     26 O           3.2250    3.8170    0.0000 O.2     1  LIG1       -0.2739
     27 C           1.3250    0.1960    0.0000 C.3     1  LIG1        0.0739
     28 C          -2.1130   -0.5460    0.0000 C.ar    1  LIG1        0.0537
     29 C          -2.1130   -1.5580    0.0000 C.ar    1  LIG1        0.0078
     30 C          -2.9880   -2.0630    0.0000 C.ar    1  LIG1        0.0371
     31 C          -3.8540   -1.5580    0.0000 C.ar    1  LIG1        0.1387
     32 C          -3.8540   -0.5580    0.0000 C.ar    1  LIG1        0.0371
     33 C          -2.9880   -0.0460    0.0000 C.ar    1  LIG1        0.0078
     34 O          -4.7170   -2.0500    0.0000 O.3     1  LIG1       -0.4714
     35 C          -4.7170   -3.0540    0.0000 C.3     1  LIG1        0.2525
@<TRIPOS>BOND
     1     1     2   ar
     2     1     5   ar
     3     2     3   ar
     4     2    28    1
     5     3     4   ar
     6     4     5   ar
     7     4    27    1
     8     5     6    1
     9     6     7    1
    10     7     8    1
    11     8     9    1
    12     9    10   am
    13     9    26    2
    14    10    11    1
    15    10    25    1
    16    11    12    1
    17    12    13    1
    18    13    14    1
    19    13    24    1
    20    14    15    1
    21    15    16   ar
    22    15    23   ar
    23    16    17   ar
    24    17    18   ar
    25    17    21    1
    26    18    19    1
    27    18    22   ar
    28    19    20    1
    29    20    21    1
    30    22    23   ar
    31    24    25    1
    32    28    29   ar
    33    28    33   ar
    34    29    30   ar
    35    30    31   ar
    36    31    32   ar
    37    31    34    1
    38    32    33   ar
    39    34    35    1
