@<TRIPOS>MOLECULE
37430_ChemDiv_C999-0649
 32 34 0 0 0
SMALL
GASTEIGER
Energy = 0

@<TRIPOS>ATOM
      1 N           2.2460   -0.1000    0.0000 N.ar    1  LIG1       -0.1785
      2 C           3.2500   -0.1000    0.0000 C.ar    1  LIG1        0.1498
      3 C           3.5580    0.8500    0.0000 C.ar    1  LIG1        0.0581
      4 C           2.7460    1.4380    0.0000 C.ar    1  LIG1        0.1073
      5 N           1.9380    0.8500    0.0000 N.ar    1  LIG1       -0.1610
      6 C           2.7460    2.4330    0.0000 C.ar    1  LIG1        0.0534
      7 C           3.6130    2.9330    0.0000 C.ar    1  LIG1        0.1401
      8 O           4.4790    2.4330    0.0000 O.3     1  LIG1       -0.4714
      9 C           4.4790    1.4380    0.0000 C.3     1  LIG1        0.2525
     10 C           3.6130    3.9380    0.0000 C.ar    1  LIG1        0.0370
     11 C           2.7460    4.4330    0.0000 C.ar    1  LIG1        0.0031
     12 C           1.8830    3.9380    0.0000 C.ar    1  LIG1        0.0003
     13 C           1.8830    2.9330    0.0000 C.ar    1  LIG1        0.0046
     14 N           3.7460   -0.9670    0.0000 N.ar    1  LIG1       -0.3163
     15 C           3.2500   -1.8330    0.0000 C.ar    1  LIG1        0.0394
     16 C           2.2460   -1.8330    0.0000 C.ar    1  LIG1        0.0479
     17 C           1.7500   -0.9670    0.0000 C.ar    1  LIG1        0.2786
     18 O           0.7460   -0.9670    0.0000 O.2     1  LIG1       -0.2654
     19 C           1.7500   -2.7000    0.0000 C.3     1  LIG1        0.0420
     20 C           0.7460   -2.7000    0.0000 C.3     1  LIG1        0.0917
     21 C           0.2460   -3.5580    0.0000 C.2     1  LIG1        0.2417
     22 O           0.7460   -4.4330    0.0000 O.2     1  LIG1       -0.2733
     23 N          -0.7540   -3.5580    0.0000 N.am    1  LIG1       -0.2053
     24 C          -1.2540   -2.7000    0.0000 C.3     1  LIG1        0.1177
     25 C          -2.2580   -2.7000    0.0000 C.3     1  LIG1        0.0555
     26 C          -2.7580   -1.8330    0.0000 C.3     1  LIG1        0.1440
     27 O          -3.7540   -1.8330    0.0000 O.3     1  LIG1       -0.3537
     28 C          -4.2540   -0.9670    0.0000 C.3     1  LIG1        0.1422
     29 C          -5.2540   -0.9670    0.0000 C.3     1  LIG1        0.0346
     30 C           3.7460   -2.7000    0.0000 C.3     1  LIG1        0.0499
     31 C           4.7460   -0.9670    0.0000 C.3     1  LIG1        0.1072
     32 C           5.2500   -0.1000    0.0000 C.3     1  LIG1        0.0265
@<TRIPOS>BOND
     1     1     2   ar
     2     1     5   ar
     3     1    17   ar
     4     2     3   ar
     5     2    14   ar
     6     3     4   ar
     7     4     5   ar
     8     4     6    1
     9     6     7   ar
    10     6    13   ar
    11     7     8    1
    12     7    10   ar
    13     8     9    1
    14    10    11   ar
    15    11    12   ar
    16    12    13   ar
    17    14    15   ar
    18    14    31    1
    19    15    16   ar
    20    15    30    1
    21    16    17   ar
    22    16    19    1
    23    17    18    2
    24    19    20    1
    25    20    21    1
    26    21    22    2
    27    21    23   am
    28    23    24    1
    29    24    25    1
    30    25    26    1
    31    26    27    1
    32    27    28    1
    33    28    29    1
    34    31    32    1
