@<TRIPOS>MOLECULE
37445_ChemDiv_C489-0254
 25 28 0 0 0
SMALL
GASTEIGER
Energy = 0

@<TRIPOS>ATOM
      1 C           0.5080   -3.4460    0.0000 C.ar    1  LIG1        0.2923
      2 N          -0.0830   -2.6460    0.0000 N.ar    1  LIG1       -0.2893
      3 C          -1.0210   -2.9670    0.0000 C.ar    1  LIG1        0.0690
      4 C          -1.0130   -3.9630    0.0000 C.ar    1  LIG1        0.0497
      5 S          -0.1040   -4.2790    0.0000 S.2     1  LIG1       -0.0260
      6 C          -1.8710   -4.4830    0.0000 C.ar    1  LIG1        0.0081
      7 C          -2.7460   -3.9920    0.0000 C.ar    1  LIG1        0.0006
      8 C          -2.7460   -2.9880    0.0000 C.ar    1  LIG1        0.0015
      9 C          -1.8880   -2.4830    0.0000 C.ar    1  LIG1        0.0178
     10 C           0.2080   -1.7040    0.0000 C.3     1  LIG1        0.1192
     11 C           1.1790   -1.4710    0.0000 C.3     1  LIG1        0.1113
     12 C           1.4790   -0.5170    0.0000 C.2     1  LIG1        0.2437
     13 N           2.4500   -0.2920    0.0000 N.am    1  LIG1       -0.2005
     14 C           2.7420    0.6580    0.0000 C.3     1  LIG1        0.1416
     15 C           2.0540    1.3790    0.0000 C.ar    1  LIG1        0.0027
     16 C           2.3460    2.3380    0.0000 C.ar    1  LIG1        0.0376
     17 C           1.6630    3.0790    0.0000 C.ar    1  LIG1        0.1762
     18 C           0.6880    2.8540    0.0000 C.ar    1  LIG1        0.1764
     19 O           0.1630    3.7170    0.0000 O.3     1  LIG1       -0.4346
     20 C           0.8290    4.4830    0.0000 C.3     1  LIG1        0.4294
     21 O           1.7500    4.0710    0.0000 O.3     1  LIG1       -0.4346
     22 C           0.3960    1.9000    0.0000 C.ar    1  LIG1        0.0399
     23 C           1.0710    1.1710    0.0000 C.ar    1  LIG1        0.0008
     24 O           0.7960    0.2130    0.0000 O.2     1  LIG1       -0.2733
     25 O           1.5130   -3.4290    0.0000 O.2     1  LIG1       -0.2594
@<TRIPOS>BOND
     1     1     2   ar
     2     1     5   ar
     3     1    25    2
     4     2     3   ar
     5     2    10    1
     6     3     4   ar
     7     3     9   ar
     8     4     5   ar
     9     4     6   ar
    10     6     7   ar
    11     7     8   ar
    12     8     9   ar
    13    10    11    1
    14    11    12    1
    15    12    13   am
    16    12    24    2
    17    13    14    1
    18    14    15    1
    19    15    16   ar
    20    15    23   ar
    21    16    17   ar
    22    17    18   ar
    23    17    21    1
    24    18    19    1
    25    18    22   ar
    26    19    20    1
    27    20    21    1
    28    22    23   ar
