@<TRIPOS>MOLECULE
37446_ChemDiv_C627-0045
 21 23 0 0 0
SMALL
GASTEIGER
Energy = 0

@<TRIPOS>ATOM
      1 C           2.2170   -0.6670    0.0000 C.ar    1  LIG1        0.1575
      2 N           1.8040    0.2420    0.0000 N.ar    1  LIG1       -0.1604
      3 N           2.5460    0.9130    0.0000 N.ar    1  LIG1       -0.2281
      4 C           3.4130    0.4130    0.0000 C.ar    1  LIG1        0.0846
      5 C           3.2040   -0.5670    0.0000 C.ar    1  LIG1        0.0447
      6 C           4.2830    0.9130    0.0000 C.ar    1  LIG1        0.0193
      7 C           4.2830    1.9130    0.0000 C.ar    1  LIG1        0.0031
      8 C           3.4130    2.4080    0.0000 C.ar    1  LIG1        0.0207
      9 C           2.5460    1.9130    0.0000 C.ar    1  LIG1        0.1004
     10 C           1.7130   -1.5380    0.0000 C.2     1  LIG1        0.2843
     11 O           2.2170   -2.4040    0.0000 O.2     1  LIG1       -0.2666
     12 N           0.7130   -1.5380    0.0000 N.am    1  LIG1       -0.2003
     13 C           0.2130   -0.6670    0.0000 C.3     1  LIG1        0.1159
     14 C          -0.7880   -0.6670    0.0000 C.3     1  LIG1        0.0281
     15 C          -1.2830    0.1960    0.0000 C.3     1  LIG1        0.0282
     16 C          -2.2880    0.1960    0.0000 C.ar    1  LIG1       -0.0221
     17 C          -2.7830   -0.6670    0.0000 C.ar    1  LIG1       -0.0043
     18 C          -3.7830   -0.6670    0.0000 C.ar    1  LIG1       -0.0003
     19 C          -4.2880    0.1960    0.0000 C.ar    1  LIG1       -0.0000
     20 C          -3.7830    1.0630    0.0000 C.ar    1  LIG1       -0.0003
     21 C          -2.7830    1.0630    0.0000 C.ar    1  LIG1       -0.0043
@<TRIPOS>BOND
     1     1     2   ar
     2     1     5   ar
     3     1    10    1
     4     2     3   ar
     5     3     4   ar
     6     3     9   ar
     7     4     5   ar
     8     4     6   ar
     9     6     7   ar
    10     7     8   ar
    11     8     9   ar
    12    10    11    2
    13    10    12   am
    14    12    13    1
    15    13    14    1
    16    14    15    1
    17    15    16    1
    18    16    17   ar
    19    16    21   ar
    20    17    18   ar
    21    18    19   ar
    22    19    20   ar
    23    20    21   ar
