@<TRIPOS>MOLECULE
37444_ChemDiv_C627-0036
 20 22 0 0 0
SMALL
GASTEIGER
Energy = 0

@<TRIPOS>ATOM
      1 C           1.4630   -0.6670    0.0000 C.ar    1  LIG1        0.1561
      2 N           1.0540    0.2420    0.0000 N.ar    1  LIG1       -0.1604
      3 N           1.7960    0.9130    0.0000 N.ar    1  LIG1       -0.2281
      4 C           2.6630    0.4130    0.0000 C.ar    1  LIG1        0.0846
      5 C           2.4540   -0.5670    0.0000 C.ar    1  LIG1        0.0446
      6 C           3.5290    0.9130    0.0000 C.ar    1  LIG1        0.0193
      7 C           3.5290    1.9130    0.0000 C.ar    1  LIG1        0.0031
      8 C           2.6630    2.4080    0.0000 C.ar    1  LIG1        0.0207
      9 C           1.7960    1.9130    0.0000 C.ar    1  LIG1        0.1004
     10 C           0.9630   -1.5380    0.0000 C.2     1  LIG1        0.2685
     11 N          -0.0380   -1.5380    0.0000 N.am    1  LIG1       -0.2748
     12 C          -0.5380   -2.4040    0.0000 C.3     1  LIG1        0.0942
     13 C          -1.5380   -2.4040    0.0000 C.3     1  LIG1        0.0307
     14 C          -2.0330   -1.5380    0.0000 C.3     1  LIG1        0.0833
     15 C          -3.0380   -1.5380    0.0000 C.2     1  LIG1        0.2604
     16 O          -3.5330   -2.4040    0.0000 O.2     1  LIG1       -0.2717
     17 N          -3.5330   -0.6670    0.0000 N.am    1  LIG1       -0.0878
     18 C          -1.5380   -0.6670    0.0000 C.3     1  LIG1        0.0307
     19 C          -0.5380   -0.6670    0.0000 C.3     1  LIG1        0.0942
     20 O           1.4630   -2.4040    0.0000 O.2     1  LIG1       -0.2682
@<TRIPOS>BOND
     1     1     2   ar
     2     1     5   ar
     3     1    10    1
     4     2     3   ar
     5     3     4   ar
     6     3     9   ar
     7     4     5   ar
     8     4     6   ar
     9     6     7   ar
    10     7     8   ar
    11     8     9   ar
    12    10    11   am
    13    10    20    2
    14    11    12    1
    15    11    19    1
    16    12    13    1
    17    13    14    1
    18    14    15    1
    19    14    18    1
    20    15    16    2
    21    15    17   am
    22    18    19    1
