@<TRIPOS>MOLECULE
37442_ChemDiv_C627-0024
 24 26 0 0 0
SMALL
GASTEIGER
Energy = 0

@<TRIPOS>ATOM
      1 C           2.2170   -0.8630    0.0000 C.ar    1  LIG1        0.1575
      2 N           1.8080    0.0500    0.0000 N.ar    1  LIG1       -0.1604
      3 N           2.5500    0.7210    0.0000 N.ar    1  LIG1       -0.2281
      4 C           3.4130    0.2170    0.0000 C.ar    1  LIG1        0.0846
      5 C           3.2040   -0.7580    0.0000 C.ar    1  LIG1        0.0447
      6 C           4.2830    0.7210    0.0000 C.ar    1  LIG1        0.0193
      7 C           4.2830    1.7210    0.0000 C.ar    1  LIG1        0.0031
      8 C           3.4130    2.2170    0.0000 C.ar    1  LIG1        0.0207
      9 C           2.5500    1.7210    0.0000 C.ar    1  LIG1        0.1004
     10 C           1.7130   -1.7330    0.0000 C.2     1  LIG1        0.2843
     11 O           2.2170   -2.5960    0.0000 O.2     1  LIG1       -0.2666
     12 N           0.7130   -1.7330    0.0000 N.am    1  LIG1       -0.2000
     13 C           0.2130   -0.8630    0.0000 C.3     1  LIG1        0.1202
     14 C          -0.7880   -0.8630    0.0000 C.3     1  LIG1        0.0499
     15 C          -1.2830    0.0040    0.0000 C.ar    1  LIG1       -0.0172
     16 C          -2.2880    0.0040    0.0000 C.ar    1  LIG1        0.0358
     17 C          -2.7880    0.8670    0.0000 C.ar    1  LIG1        0.1721
     18 C          -2.2880    1.7380    0.0000 C.ar    1  LIG1        0.1724
     19 C          -1.2830    1.7380    0.0000 C.ar    1  LIG1        0.0397
     20 C          -0.7880    0.8670    0.0000 C.ar    1  LIG1       -0.0009
     21 O          -2.7880    2.6000    0.0000 O.3     1  LIG1       -0.4684
     22 C          -3.7830    2.6000    0.0000 C.3     1  LIG1        0.2526
     23 O          -3.7830    0.8670    0.0000 O.3     1  LIG1       -0.4684
     24 C          -4.2880    0.0040    0.0000 C.3     1  LIG1        0.2526
@<TRIPOS>BOND
     1     1     2   ar
     2     1     5   ar
     3     1    10    1
     4     2     3   ar
     5     3     4   ar
     6     3     9   ar
     7     4     5   ar
     8     4     6   ar
     9     6     7   ar
    10     7     8   ar
    11     8     9   ar
    12    10    11    2
    13    10    12   am
    14    12    13    1
    15    13    14    1
    16    14    15    1
    17    15    16   ar
    18    15    20   ar
    19    16    17   ar
    20    17    18   ar
    21    17    23    1
    22    18    19   ar
    23    18    21    1
    24    19    20   ar
    25    21    22    1
    26    23    24    1
