@<TRIPOS>MOLECULE
37448_ChemDiv_C627-0047
 16 18 0 0 0
SMALL
GASTEIGER
Energy = 0

@<TRIPOS>ATOM
      1 C           0.4830   -0.6710    0.0000 C.ar    1  LIG1        0.1561
      2 N           0.0750    0.2420    0.0000 N.ar    1  LIG1       -0.1604
      3 N           0.8170    0.9130    0.0000 N.ar    1  LIG1       -0.2281
      4 C           1.6830    0.4130    0.0000 C.ar    1  LIG1        0.0846
      5 C           1.4750   -0.5670    0.0000 C.ar    1  LIG1        0.0446
      6 C           2.5540    0.9130    0.0000 C.ar    1  LIG1        0.0193
      7 C           2.5540    1.9130    0.0000 C.ar    1  LIG1        0.0031
      8 C           1.6830    2.4080    0.0000 C.ar    1  LIG1        0.0207
      9 C           0.8170    1.9130    0.0000 C.ar    1  LIG1        0.1004
     10 C          -0.0210   -1.5380    0.0000 C.2     1  LIG1        0.2685
     11 N          -1.0170   -1.5380    0.0000 N.am    1  LIG1       -0.2748
     12 C          -1.6080   -2.3460    0.0000 C.3     1  LIG1        0.0938
     13 C          -2.5580   -2.0330    0.0000 C.3     1  LIG1        0.0233
     14 C          -2.5580   -1.0380    0.0000 C.3     1  LIG1        0.0233
     15 C          -1.6080   -0.7290    0.0000 C.3     1  LIG1        0.0938
     16 O           0.4830   -2.4040    0.0000 O.2     1  LIG1       -0.2682
@<TRIPOS>BOND
     1     1     2   ar
     2     1     5   ar
     3     1    10    1
     4     2     3   ar
     5     3     4   ar
     6     3     9   ar
     7     4     5   ar
     8     4     6   ar
     9     6     7   ar
    10     7     8   ar
    11     8     9   ar
    12    10    11   am
    13    10    16    2
    14    11    12    1
    15    11    15    1
    16    12    13    1
    17    13    14    1
    18    14    15    1
