@<TRIPOS>MOLECULE
37449_ChemDiv_C498-0982
 25 28 0 0 0
SMALL
GASTEIGER
Energy = 0

@<TRIPOS>ATOM
      1 C           0.8670    1.2460    0.0000 C.ar    1  LIG1        0.0243
      2 C          -0.0040    1.7500    0.0000 C.ar    1  LIG1       -0.0029
      3 C           0.0080    2.7670    0.0000 C.ar    1  LIG1        0.0554
      4 N           0.8670    3.2540    0.0000 N.ar    1  LIG1       -0.2500
      5 C           1.7170    2.7500    0.0000 C.ar    1  LIG1        0.0813
      6 C           1.7080    1.7500    0.0000 C.ar    1  LIG1        0.0231
      7 C           2.5830    1.2380    0.0000 C.ar    1  LIG1        0.0020
      8 C           3.4420    1.7420    0.0000 C.ar    1  LIG1        0.0001
      9 C           3.4500    2.7460    0.0000 C.ar    1  LIG1        0.0015
     10 C           2.5880    3.2500    0.0000 C.ar    1  LIG1        0.0191
     11 C          -0.8580    3.2540    0.0000 C.3     1  LIG1        0.0455
     12 C          -1.7330    2.7670    0.0000 C.3     1  LIG1        0.0066
     13 C          -1.7420    1.7500    0.0000 C.3     1  LIG1        0.0051
     14 C          -0.8670    1.2380    0.0000 C.3     1  LIG1        0.0281
     15 S           0.8670    0.2500    0.0000 S.3     1  LIG1       -0.1041
     16 C          -0.0040   -0.2460    0.0000 C.3     1  LIG1        0.1471
     17 C          -0.0040   -1.2420    0.0000 C.2     1  LIG1        0.2370
     18 N          -0.8670   -1.7380    0.0000 N.am    1  LIG1       -0.2788
     19 C          -1.7540   -1.2500    0.0000 C.3     1  LIG1        0.0934
     20 C          -2.6130   -1.7540    0.0000 C.3     1  LIG1        0.0216
     21 C          -2.5920   -2.7460    0.0000 C.3     1  LIG1        0.0034
     22 C          -1.7330   -3.2380    0.0000 C.3     1  LIG1        0.0216
     23 C          -0.8790   -2.7460    0.0000 C.3     1  LIG1        0.0934
     24 C          -3.4540   -3.2500    0.0000 C.3     1  LIG1        0.0001
     25 O           0.8630   -1.7380    0.0000 O.2     1  LIG1       -0.2739
@<TRIPOS>BOND
     1     1     2   ar
     2     1     6   ar
     3     1    15    1
     4     2     3   ar
     5     2    14    1
     6     3     4   ar
     7     3    11    1
     8     4     5   ar
     9     5     6   ar
    10     5    10   ar
    11     6     7   ar
    12     7     8   ar
    13     8     9   ar
    14     9    10   ar
    15    11    12    1
    16    12    13    1
    17    13    14    1
    18    15    16    1
    19    16    17    1
    20    17    18   am
    21    17    25    2
    22    18    19    1
    23    18    23    1
    24    19    20    1
    25    20    21    1
    26    21    22    1
    27    21    24    1
    28    22    23    1
