@<TRIPOS>MOLECULE
37440_ChemDiv_C567-0007
 29 33 0 0 0
SMALL
GASTEIGER
Energy = 0

@<TRIPOS>ATOM
      1 C           0.7790    1.5040    0.0000 C.ar    1  LIG1        0.0950
      2 C          -0.0920    2.0040    0.0000 C.ar    1  LIG1        0.2016
      3 C          -0.9630    1.5040    0.0000 C.ar    1  LIG1        0.0581
      4 C          -0.9670    0.4920    0.0000 C.ar    1  LIG1        0.0665
      5 N          -0.0960   -0.0080    0.0000 N.ar    1  LIG1       -0.3215
      6 C           0.7790    0.4920    0.0000 C.ar    1  LIG1        0.0825
      7 C          -0.0960   -1.0080    0.0000 C.3     1  LIG1        0.1328
      8 C           0.7670   -1.5080    0.0000 C.ar    1  LIG1        0.0004
      9 C           1.6170   -1.0080    0.0000 C.ar    1  LIG1       -0.0024
     10 C           2.4790   -1.5080    0.0000 C.ar    1  LIG1       -0.0003
     11 C           2.4790   -2.5130    0.0000 C.ar    1  LIG1       -0.0000
     12 C           1.6170   -3.0000    0.0000 C.ar    1  LIG1       -0.0003
     13 C           0.7540   -2.5000    0.0000 C.ar    1  LIG1       -0.0024
     14 C          -1.8290    0.0000    0.0000 C.ar    1  LIG1        0.0575
     15 C          -2.6920    0.4920    0.0000 C.ar    1  LIG1        0.1779
     16 C          -2.6920    1.5040    0.0000 C.ar    1  LIG1        0.1766
     17 C          -1.8290    2.0040    0.0000 C.ar    1  LIG1        0.0448
     18 O          -3.6460    1.8080    0.0000 O.3     1  LIG1       -0.4346
     19 C          -4.2330    1.0040    0.0000 C.3     1  LIG1        0.4294
     20 O          -3.6460    0.1880    0.0000 O.3     1  LIG1       -0.4346
     21 O          -0.0920    3.0040    0.0000 O.2     1  LIG1       -0.2864
     22 C           1.6460    1.9920    0.0000 C.2     1  LIG1        0.2001
     23 O           1.6460    2.9920    0.0000 O.2     1  LIG1       -0.2864
     24 C           2.5080    1.4920    0.0000 C.ar    1  LIG1        0.0391
     25 C           3.3670    1.9920    0.0000 C.ar    1  LIG1        0.0032
     26 C           4.2290    1.4920    0.0000 C.ar    1  LIG1        0.0001
     27 C           4.2290    0.4920    0.0000 C.ar    1  LIG1        0.0000
     28 C           3.3540    0.0000    0.0000 C.ar    1  LIG1        0.0001
     29 C           2.4920    0.4920    0.0000 C.ar    1  LIG1        0.0032
@<TRIPOS>BOND
     1     1     2   ar
     2     1     6   ar
     3     1    22    1
     4     2     3   ar
     5     2    21    2
     6     3     4   ar
     7     3    17   ar
     8     4     5   ar
     9     4    14   ar
    10     5     6   ar
    11     5     7    1
    12     7     8    1
    13     8     9   ar
    14     8    13   ar
    15     9    10   ar
    16    10    11   ar
    17    11    12   ar
    18    12    13   ar
    19    14    15   ar
    20    15    16   ar
    21    15    20    1
    22    16    17   ar
    23    16    18    1
    24    18    19    1
    25    19    20    1
    26    22    23    2
    27    22    24    1
    28    24    25   ar
    29    24    29   ar
    30    25    26   ar
    31    26    27   ar
    32    27    28   ar
    33    28    29   ar
