@<TRIPOS>MOLECULE
37447_ChemDiv_C493-0845
 34 38 0 0 0
SMALL
GASTEIGER
Energy = 0

@<TRIPOS>ATOM
      1 N          -1.6750   -1.5380    0.0000 N.am    1  LIG1       -0.2532
      2 C          -0.8080   -1.0380    0.0000 C.2     1  LIG1        0.2401
      3 C          -0.8080   -0.0420    0.0000 C.3     1  LIG1        0.1371
      4 S          -1.6750    0.4580    0.0000 S.3     1  LIG1       -0.1035
      5 C          -2.5330   -0.0420    0.0000 C.ar    1  LIG1        0.0393
      6 C          -2.5330   -1.0380    0.0000 C.ar    1  LIG1        0.0598
      7 C          -3.4000   -1.5380    0.0000 C.ar    1  LIG1        0.0154
      8 C          -4.2710   -1.0380    0.0000 C.ar    1  LIG1        0.0013
      9 C          -4.2710   -0.0420    0.0000 C.ar    1  LIG1        0.0006
     10 C          -3.4000    0.4580    0.0000 C.ar    1  LIG1        0.0074
     11 C           0.0630    0.4670    0.0000 C.3     1  LIG1        0.0972
     12 C           0.0540    1.4670    0.0000 C.2     1  LIG1        0.2425
     13 N           0.9170    1.9670    0.0000 N.am    1  LIG1       -0.2005
     14 C           1.7880    1.4670    0.0000 C.3     1  LIG1        0.1416
     15 C           2.6540    1.9670    0.0000 C.ar    1  LIG1        0.0027
     16 C           2.6540    2.9710    0.0000 C.ar    1  LIG1        0.0376
     17 C           3.5170    3.4670    0.0000 C.ar    1  LIG1        0.1762
     18 C           4.3920    2.9710    0.0000 C.ar    1  LIG1        0.1764
     19 O           5.1330    3.6420    0.0000 O.3     1  LIG1       -0.4346
     20 C           4.7130    4.5460    0.0000 C.3     1  LIG1        0.4294
     21 O           3.7250    4.4420    0.0000 O.3     1  LIG1       -0.4346
     22 C           4.3920    1.9670    0.0000 C.ar    1  LIG1        0.0399
     23 C           3.5170    1.4670    0.0000 C.ar    1  LIG1        0.0008
     24 O          -0.8080    1.9670    0.0000 O.2     1  LIG1       -0.2733
     25 C           0.9290   -0.0290    0.0000 C.3     1  LIG1        0.0110
     26 O           0.0630   -1.5380    0.0000 O.2     1  LIG1       -0.2736
     27 C          -1.6750   -2.5380    0.0000 C.3     1  LIG1        0.1248
     28 C          -2.5330   -3.0330    0.0000 C.ar    1  LIG1       -0.0020
     29 C          -3.4000   -2.5380    0.0000 C.ar    1  LIG1       -0.0029
     30 C          -4.2710   -3.0330    0.0000 C.ar    1  LIG1       -0.0045
     31 C          -4.2710   -4.0370    0.0000 C.ar    1  LIG1       -0.0219
     32 C          -3.4000   -4.5380    0.0000 C.ar    1  LIG1       -0.0045
     33 C          -2.5330   -4.0370    0.0000 C.ar    1  LIG1       -0.0029
     34 C          -5.1380   -4.5460    0.0000 C.3     1  LIG1        0.0310
@<TRIPOS>BOND
     1     1     2   am
     2     1     6    1
     3     1    27    1
     4     2     3    1
     5     2    26    2
     6     3     4    1
     7     3    11    1
     8     4     5    1
     9     5     6   ar
    10     5    10   ar
    11     6     7   ar
    12     7     8   ar
    13     8     9   ar
    14     9    10   ar
    15    11    12    1
    16    11    25    1
    17    12    13   am
    18    12    24    2
    19    13    14    1
    20    14    15    1
    21    15    16   ar
    22    15    23   ar
    23    16    17   ar
    24    17    18   ar
    25    17    21    1
    26    18    19    1
    27    18    22   ar
    28    19    20    1
    29    20    21    1
    30    22    23   ar
    31    27    28    1
    32    28    29   ar
    33    28    33   ar
    34    29    30   ar
    35    30    31   ar
    36    31    32   ar
    37    31    34    1
    38    32    33   ar
