@<TRIPOS>MOLECULE
37441_ChemDiv_C481-0796
 29 31 0 0 0
SMALL
GASTEIGER
Energy = 0

@<TRIPOS>ATOM
      1 S          -2.7330    0.4960    0.0000 S.O2    1  LIG1        0.0653
      2 C          -3.2460    1.3670    0.0000 C.ar    1  LIG1        0.1419
      3 C          -2.7540    2.2420    0.0000 C.ar    1  LIG1        0.1273
      4 N          -1.7830    2.4790    0.0000 N.ar    1  LIG1       -0.1888
      5 S          -1.7000    3.4670    0.0000 S.2     1  LIG1        0.1165
      6 N          -2.6290    3.8580    0.0000 N.ar    1  LIG1       -0.1901
      7 C          -3.2830    3.1000    0.0000 C.ar    1  LIG1        0.1102
      8 C          -4.2830    3.0790    0.0000 C.ar    1  LIG1        0.0214
      9 C          -4.7670    2.1920    0.0000 C.ar    1  LIG1        0.0030
     10 C          -4.2250    1.3330    0.0000 C.ar    1  LIG1        0.0216
     11 N          -2.2330   -0.3710    0.0000 N.3     1  LIG1       -0.1446
     12 C          -1.2420   -0.3790    0.0000 C.3     1  LIG1        0.1825
     13 C          -0.7420    0.4880    0.0000 C.2     1  LIG1        0.2636
     14 N           0.2670    0.4880    0.0000 N.am    1  LIG1       -0.1780
     15 C           0.7710   -0.3790    0.0000 C.ar    1  LIG1        0.0734
     16 C           1.7710   -0.3790    0.0000 C.ar    1  LIG1        0.0168
     17 C           2.2580   -1.2500    0.0000 C.ar    1  LIG1        0.0078
     18 C           1.7710   -2.1170    0.0000 C.ar    1  LIG1        0.0757
     19 C           2.2710   -2.9630    0.0000 C.2     1  LIG1        0.3412
     20 O           1.7580   -3.8210    0.0000 O.2     1  LIG1       -0.2449
     21 O           3.2580   -2.9750    0.0000 O.3     1  LIG1       -0.4454
     22 C           3.7500   -3.8420    0.0000 C.3     1  LIG1        0.2089
     23 C           4.7630   -3.8540    0.0000 C.3     1  LIG1        0.0513
     24 C           0.7790   -2.1080    0.0000 C.ar    1  LIG1        0.0078
     25 C           0.2790   -1.2290    0.0000 C.ar    1  LIG1        0.0168
     26 O          -1.2420    1.3540    0.0000 O.2     1  LIG1       -0.2714
     27 C          -2.7330   -1.2380    0.0000 C.3     1  LIG1        0.1155
     28 O          -1.8670    0.9960    0.0000 O.2     1  LIG1       -0.1527
     29 O          -3.6130   -0.0040    0.0000 O.2     1  LIG1       -0.1527
@<TRIPOS>BOND
     1     1     2    1
     2     1    11    1
     3     1    28    2
     4     1    29    2
     5     2     3   ar
     6     2    10   ar
     7     3     4   ar
     8     3     7   ar
     9     4     5   ar
    10     5     6   ar
    11     6     7   ar
    12     7     8   ar
    13     8     9   ar
    14     9    10   ar
    15    11    12    1
    16    11    27    1
    17    12    13    1
    18    13    14   am
    19    13    26    2
    20    14    15    1
    21    15    16   ar
    22    15    25   ar
    23    16    17   ar
    24    17    18   ar
    25    18    19    1
    26    18    24   ar
    27    19    20    2
    28    19    21    1
    29    21    22    1
    30    22    23    1
    31    24    25   ar
