@<TRIPOS>MOLECULE
37450_ChemDiv_C627-0087
 20 22 0 0 0
SMALL
GASTEIGER
Energy = 0

@<TRIPOS>ATOM
      1 C           1.9630   -0.6670    0.0000 C.ar    1  LIG1        0.1575
      2 N           1.5540    0.2420    0.0000 N.ar    1  LIG1       -0.1604
      3 N           2.2960    0.9130    0.0000 N.ar    1  LIG1       -0.2281
      4 C           3.1580    0.4130    0.0000 C.ar    1  LIG1        0.0846
      5 C           2.9540   -0.5670    0.0000 C.ar    1  LIG1        0.0447
      6 C           4.0290    0.9130    0.0000 C.ar    1  LIG1        0.0193
      7 C           4.0290    1.9130    0.0000 C.ar    1  LIG1        0.0031
      8 C           3.1580    2.4080    0.0000 C.ar    1  LIG1        0.0207
      9 C           2.2960    1.9130    0.0000 C.ar    1  LIG1        0.1004
     10 C           1.4580   -1.5380    0.0000 C.2     1  LIG1        0.2846
     11 N           0.4630   -1.5380    0.0000 N.am    1  LIG1       -0.1955
     12 C          -0.0380   -0.6670    0.0000 C.3     1  LIG1        0.1418
     13 C          -1.0380   -0.6670    0.0000 C.ar    1  LIG1       -0.0004
     14 C          -1.5330    0.1960    0.0000 C.ar    1  LIG1       -0.0002
     15 C          -2.5380    0.1960    0.0000 C.ar    1  LIG1        0.0294
     16 C          -3.0380   -0.6670    0.0000 C.ar    1  LIG1        0.1401
     17 F          -4.0330   -0.6670    0.0000 F       1  LIG1       -0.2042
     18 C          -2.5380   -1.5380    0.0000 C.ar    1  LIG1        0.0294
     19 C          -1.5330   -1.5380    0.0000 C.ar    1  LIG1       -0.0002
     20 O           1.9630   -2.4040    0.0000 O.2     1  LIG1       -0.2666
@<TRIPOS>BOND
     1     1     2   ar
     2     1     5   ar
     3     1    10    1
     4     2     3   ar
     5     3     4   ar
     6     3     9   ar
     7     4     5   ar
     8     4     6   ar
     9     6     7   ar
    10     7     8   ar
    11     8     9   ar
    12    10    11   am
    13    10    20    2
    14    11    12    1
    15    12    13    1
    16    13    14   ar
    17    13    19   ar
    18    14    15   ar
    19    15    16   ar
    20    16    17    1
    21    16    18   ar
    22    18    19   ar
