@<TRIPOS>MOLECULE
37452_ChemDiv_C627-0104
 24 26 0 0 0
SMALL
GASTEIGER
Energy = 0

@<TRIPOS>ATOM
      1 C           1.8960   -1.2960    0.0000 C.ar    1  LIG1        0.1575
      2 N           1.4880   -0.3830    0.0000 N.ar    1  LIG1       -0.1604
      3 N           2.2290    0.2880    0.0000 N.ar    1  LIG1       -0.2281
      4 C           3.0960   -0.2130    0.0000 C.ar    1  LIG1        0.0846
      5 C           2.8880   -1.1920    0.0000 C.ar    1  LIG1        0.0447
      6 C           3.9670    0.2880    0.0000 C.ar    1  LIG1        0.0193
      7 C           3.9670    1.2880    0.0000 C.ar    1  LIG1        0.0031
      8 C           3.0960    1.7830    0.0000 C.ar    1  LIG1        0.0207
      9 C           2.2290    1.2880    0.0000 C.ar    1  LIG1        0.1004
     10 C           1.3920   -2.1630    0.0000 C.2     1  LIG1        0.2843
     11 O           1.8960   -3.0290    0.0000 O.2     1  LIG1       -0.2666
     12 N           0.3960   -2.1630    0.0000 N.am    1  LIG1       -0.2000
     13 C          -0.1040   -1.2960    0.0000 C.3     1  LIG1        0.1202
     14 C          -1.1080   -1.2960    0.0000 C.3     1  LIG1        0.0498
     15 C          -1.6040   -0.4290    0.0000 C.ar    1  LIG1       -0.0203
     16 C          -2.6040   -0.4290    0.0000 C.ar    1  LIG1       -0.0028
     17 C          -3.1040    0.4380    0.0000 C.ar    1  LIG1        0.0197
     18 C          -2.6040    1.3040    0.0000 C.ar    1  LIG1        0.1250
     19 S          -3.1040    2.1670    0.0000 S.O2    1  LIG1        0.0935
     20 O          -3.6040    3.0330    0.0000 O.2     1  LIG1       -0.1503
     21 O          -3.9710    1.6670    0.0000 O.2     1  LIG1       -0.1503
     22 N          -2.2380    2.6630    0.0000 N.3     1  LIG1        0.0392
     23 C          -1.6040    1.3040    0.0000 C.ar    1  LIG1        0.0197
     24 C          -1.1080    0.4380    0.0000 C.ar    1  LIG1       -0.0028
@<TRIPOS>BOND
     1     1     2   ar
     2     1     5   ar
     3     1    10    1
     4     2     3   ar
     5     3     4   ar
     6     3     9   ar
     7     4     5   ar
     8     4     6   ar
     9     6     7   ar
    10     7     8   ar
    11     8     9   ar
    12    10    11    2
    13    10    12   am
    14    12    13    1
    15    13    14    1
    16    14    15    1
    17    15    16   ar
    18    15    24   ar
    19    16    17   ar
    20    17    18   ar
    21    18    19    1
    22    18    23   ar
    23    19    20    2
    24    19    21    2
    25    19    22    1
    26    23    24   ar
