@<TRIPOS>MOLECULE
37453_ChemDiv_C598-0035
 26 29 0 0 0
SMALL
GASTEIGER
Energy = 0

@<TRIPOS>ATOM
      1 C           0.7670    0.4380    0.0000 C.ar    1  LIG1        0.0242
      2 C           0.2670   -0.4290    0.0000 C.ar    1  LIG1        0.0231
      3 C           0.7670   -1.2920    0.0000 C.ar    1  LIG1        0.0815
      4 N           1.7670   -1.2920    0.0000 N.ar    1  LIG1       -0.2500
      5 C           2.2670   -0.4290    0.0000 C.ar    1  LIG1        0.0554
      6 C           1.7670    0.4380    0.0000 C.ar    1  LIG1       -0.0029
      7 C           2.2670    1.3040    0.0000 C.3     1  LIG1        0.0281
      8 C           3.2670    1.3040    0.0000 C.3     1  LIG1        0.0051
      9 C           3.7710    0.4380    0.0000 C.3     1  LIG1        0.0066
     10 C           3.2670   -0.4290    0.0000 C.3     1  LIG1        0.0455
     11 C           0.2670   -2.1580    0.0000 C.ar    1  LIG1        0.0236
     12 C          -0.7330   -2.1580    0.0000 C.ar    1  LIG1        0.0551
     13 C          -1.2330   -3.0250    0.0000 C.2     1  LIG1        0.2491
     14 N          -2.2330   -3.0250    0.0000 N.am    1  LIG1       -0.2761
     15 C          -2.8210   -3.8330    0.0000 C.3     1  LIG1        0.0938
     16 C          -3.7750   -3.5250    0.0000 C.3     1  LIG1        0.0233
     17 C          -3.7750   -2.5250    0.0000 C.3     1  LIG1        0.0233
     18 C          -2.8210   -2.2170    0.0000 C.3     1  LIG1        0.0938
     19 O          -0.7330   -3.8920    0.0000 O.2     1  LIG1       -0.2699
     20 C          -1.2330   -1.2920    0.0000 C.ar    1  LIG1        0.0046
     21 C          -0.7330   -0.4290    0.0000 C.ar    1  LIG1        0.0021
     22 S           0.2670    1.3040    0.0000 S.3     1  LIG1       -0.1078
     23 C           0.7670    2.1750    0.0000 C.3     1  LIG1        0.1036
     24 C           0.2670    3.0380    0.0000 C.2     1  LIG1        0.0616
     25 O          -0.7330    3.0380    0.0000 O.co2   1  LIG1       -0.5483
     26 O           0.7670    3.8960    0.0000 O.co2   1  LIG1       -0.5483
@<TRIPOS>BOND
     1     1     2   ar
     2     1     6   ar
     3     1    22    1
     4     2     3   ar
     5     2    21   ar
     6     3     4   ar
     7     3    11   ar
     8     4     5   ar
     9     5     6   ar
    10     5    10    1
    11     6     7    1
    12     7     8    1
    13     8     9    1
    14     9    10    1
    15    11    12   ar
    16    12    13    1
    17    12    20   ar
    18    13    14   am
    19    13    19    2
    20    14    15    1
    21    14    18    1
    22    15    16    1
    23    16    17    1
    24    17    18    1
    25    20    21   ar
    26    22    23    1
    27    23    24    1
    28    24    25   ar
    29    24    26   ar
