@<TRIPOS>MOLECULE
37455_ChemDiv_C598-0047
 33 37 0 0 0
SMALL
GASTEIGER
Energy = 0

@<TRIPOS>ATOM
      1 C           2.4920    0.4380    0.0000 C.ar    1  LIG1        0.0242
      2 C           1.9920   -0.4290    0.0000 C.ar    1  LIG1        0.0231
      3 C           2.4920   -1.2920    0.0000 C.ar    1  LIG1        0.0815
      4 N           3.4960   -1.2920    0.0000 N.ar    1  LIG1       -0.2500
      5 C           3.9960   -0.4290    0.0000 C.ar    1  LIG1        0.0554
      6 C           3.4960    0.4380    0.0000 C.ar    1  LIG1       -0.0029
      7 C           3.9960    1.3040    0.0000 C.3     1  LIG1        0.0281
      8 C           4.9960    1.3040    0.0000 C.3     1  LIG1        0.0051
      9 C           5.4960    0.4380    0.0000 C.3     1  LIG1        0.0066
     10 C           4.9960   -0.4290    0.0000 C.3     1  LIG1        0.0455
     11 C           1.9920   -2.1580    0.0000 C.ar    1  LIG1        0.0236
     12 C           0.9960   -2.1580    0.0000 C.ar    1  LIG1        0.0551
     13 C           0.4960   -3.0250    0.0000 C.2     1  LIG1        0.2492
     14 N          -0.5040   -3.0250    0.0000 N.am    1  LIG1       -0.2726
     15 C          -1.0040   -2.1580    0.0000 C.3     1  LIG1        0.1151
     16 C          -2.0040   -2.1580    0.0000 C.3     1  LIG1        0.1123
     17 N          -2.5080   -3.0250    0.0000 N.pl3   1  LIG1       -0.3041
     18 C          -2.0040   -3.8920    0.0000 C.3     1  LIG1        0.1123
     19 C          -1.0040   -3.8920    0.0000 C.3     1  LIG1        0.1151
     20 C          -3.5040   -3.0250    0.0000 C.ar    1  LIG1        0.0479
     21 C          -4.0040   -3.8920    0.0000 C.ar    1  LIG1        0.0145
     22 C          -5.0040   -3.8920    0.0000 C.ar    1  LIG1        0.0013
     23 C          -5.5000   -3.0250    0.0000 C.ar    1  LIG1        0.0001
     24 C          -5.0040   -2.1580    0.0000 C.ar    1  LIG1        0.0013
     25 C          -4.0040   -2.1580    0.0000 C.ar    1  LIG1        0.0145
     26 O           0.9960   -3.8920    0.0000 O.2     1  LIG1       -0.2699
     27 C           0.4960   -1.2920    0.0000 C.ar    1  LIG1        0.0046
     28 C           0.9960   -0.4290    0.0000 C.ar    1  LIG1        0.0021
     29 S           1.9920    1.3040    0.0000 S.3     1  LIG1       -0.1078
     30 C           2.4920    2.1750    0.0000 C.3     1  LIG1        0.1036
     31 C           1.9920    3.0380    0.0000 C.2     1  LIG1        0.0616
     32 O           0.9960    3.0380    0.0000 O.co2   1  LIG1       -0.5483
     33 O           2.4920    3.8960    0.0000 O.co2   1  LIG1       -0.5483
@<TRIPOS>BOND
     1     1     2   ar
     2     1     6   ar
     3     1    29    1
     4     2     3   ar
     5     2    28   ar
     6     3     4   ar
     7     3    11   ar
     8     4     5   ar
     9     5     6   ar
    10     5    10    1
    11     6     7    1
    12     7     8    1
    13     8     9    1
    14     9    10    1
    15    11    12   ar
    16    12    13    1
    17    12    27   ar
    18    13    14   am
    19    13    26    2
    20    14    15    1
    21    14    19    1
    22    15    16    1
    23    16    17    1
    24    17    18    1
    25    17    20    1
    26    18    19    1
    27    20    21   ar
    28    20    25   ar
    29    21    22   ar
    30    22    23   ar
    31    23    24   ar
    32    24    25   ar
    33    27    28   ar
    34    29    30    1
    35    30    31    1
    36    31    32   ar
    37    31    33   ar
