@<TRIPOS>MOLECULE
37458_ChemDiv_C567-0017
 30 34 0 0 0
SMALL
GASTEIGER
Energy = 0

@<TRIPOS>ATOM
      1 C           0.3500    1.5040    0.0000 C.ar    1  LIG1        0.0950
      2 C          -0.5250    2.0170    0.0000 C.ar    1  LIG1        0.2016
      3 C          -1.3920    1.5040    0.0000 C.ar    1  LIG1        0.0581
      4 C          -1.4000    0.4960    0.0000 C.ar    1  LIG1        0.0665
      5 N          -0.5290   -0.0040    0.0000 N.ar    1  LIG1       -0.3215
      6 C           0.3500    0.4960    0.0000 C.ar    1  LIG1        0.0825
      7 C          -0.5290   -1.0000    0.0000 C.3     1  LIG1        0.1328
      8 C           0.3380   -1.5040    0.0000 C.ar    1  LIG1        0.0004
      9 C           1.1880   -1.0040    0.0000 C.ar    1  LIG1       -0.0024
     10 C           2.0460   -1.5040    0.0000 C.ar    1  LIG1       -0.0003
     11 C           2.0460   -2.5080    0.0000 C.ar    1  LIG1       -0.0000
     12 C           1.1880   -3.0080    0.0000 C.ar    1  LIG1       -0.0003
     13 C           0.3250   -2.5080    0.0000 C.ar    1  LIG1       -0.0024
     14 C          -2.2630    0.0080    0.0000 C.ar    1  LIG1        0.0575
     15 C          -3.1290    0.5080    0.0000 C.ar    1  LIG1        0.1779
     16 C          -3.1290    1.5040    0.0000 C.ar    1  LIG1        0.1766
     17 C          -2.2630    2.0040    0.0000 C.ar    1  LIG1        0.0448
     18 O          -4.0790    1.8210    0.0000 O.3     1  LIG1       -0.4346
     19 C          -4.6670    1.0040    0.0000 C.3     1  LIG1        0.4294
     20 O          -4.0790    0.1920    0.0000 O.3     1  LIG1       -0.4346
     21 O          -0.5250    3.0130    0.0000 O.2     1  LIG1       -0.2864
     22 C           1.2170    2.0040    0.0000 C.2     1  LIG1        0.2001
     23 C           2.0790    1.5040    0.0000 C.ar    1  LIG1        0.0391
     24 C           2.9330    2.0040    0.0000 C.ar    1  LIG1        0.0029
     25 C           3.7960    1.5040    0.0000 C.ar    1  LIG1       -0.0042
     26 C           3.7960    0.4960    0.0000 C.ar    1  LIG1       -0.0218
     27 C           2.9290    0.0080    0.0000 C.ar    1  LIG1       -0.0042
     28 C           2.0670    0.5080    0.0000 C.ar    1  LIG1        0.0029
     29 C           4.6630   -0.0040    0.0000 C.3     1  LIG1        0.0310
     30 O           1.2170    2.9920    0.0000 O.2     1  LIG1       -0.2864
@<TRIPOS>BOND
     1     1     2   ar
     2     1     6   ar
     3     1    22    1
     4     2     3   ar
     5     2    21    2
     6     3     4   ar
     7     3    17   ar
     8     4     5   ar
     9     4    14   ar
    10     5     6   ar
    11     5     7    1
    12     7     8    1
    13     8     9   ar
    14     8    13   ar
    15     9    10   ar
    16    10    11   ar
    17    11    12   ar
    18    12    13   ar
    19    14    15   ar
    20    15    16   ar
    21    15    20    1
    22    16    17   ar
    23    16    18    1
    24    18    19    1
    25    19    20    1
    26    22    23    1
    27    22    30    2
    28    23    24   ar
    29    23    28   ar
    30    24    25   ar
    31    25    26   ar
    32    26    27   ar
    33    26    29    1
    34    27    28   ar
