@<TRIPOS>MOLECULE
37456_ChemDiv_C627-0152
 23 25 0 0 0
SMALL
GASTEIGER
Energy = 0

@<TRIPOS>ATOM
      1 C           1.4670    1.9290    0.0000 C.ar    1  LIG1        0.1575
      2 N           1.0540    2.8420    0.0000 N.ar    1  LIG1       -0.1604
      3 N           1.7960    3.5080    0.0000 N.ar    1  LIG1       -0.2281
      4 C           2.6630    3.0080    0.0000 C.ar    1  LIG1        0.0846
      5 C           2.4540    2.0290    0.0000 C.ar    1  LIG1        0.0447
      6 C           3.5330    3.5080    0.0000 C.ar    1  LIG1        0.0193
      7 C           3.5330    4.5040    0.0000 C.ar    1  LIG1        0.0031
      8 C           2.6630    5.0000    0.0000 C.ar    1  LIG1        0.0207
      9 C           1.7960    4.5040    0.0000 C.ar    1  LIG1        0.1004
     10 C           0.9630    1.0580    0.0000 C.2     1  LIG1        0.2843
     11 O           1.4670    0.1920    0.0000 O.2     1  LIG1       -0.2666
     12 N          -0.0380    1.0580    0.0000 N.am    1  LIG1       -0.2000
     13 C          -0.5380    0.1920    0.0000 C.3     1  LIG1        0.1202
     14 C          -1.5420    0.1920    0.0000 C.3     1  LIG1        0.0498
     15 C          -2.0330   -0.6750    0.0000 C.ar    1  LIG1       -0.0202
     16 C          -1.5420   -1.5380    0.0000 C.ar    1  LIG1       -0.0011
     17 C          -2.0330   -2.4040    0.0000 C.ar    1  LIG1        0.0366
     18 C          -3.0380   -2.4040    0.0000 C.ar    1  LIG1        0.1385
     19 C          -3.5380   -1.5380    0.0000 C.ar    1  LIG1        0.0366
     20 C          -3.0380   -0.6750    0.0000 C.ar    1  LIG1       -0.0011
     21 O          -3.5380   -3.2670    0.0000 O.3     1  LIG1       -0.4755
     22 C          -3.0380   -4.1380    0.0000 C.3     1  LIG1        0.2055
     23 C          -3.5380   -5.0000    0.0000 C.3     1  LIG1        0.0512
@<TRIPOS>BOND
     1     1     2   ar
     2     1     5   ar
     3     1    10    1
     4     2     3   ar
     5     3     4   ar
     6     3     9   ar
     7     4     5   ar
     8     4     6   ar
     9     6     7   ar
    10     7     8   ar
    11     8     9   ar
    12    10    11    2
    13    10    12   am
    14    12    13    1
    15    13    14    1
    16    14    15    1
    17    15    16   ar
    18    15    20   ar
    19    16    17   ar
    20    17    18   ar
    21    18    19   ar
    22    18    21    1
    23    19    20   ar
    24    21    22    1
    25    22    23    1
