@<TRIPOS>MOLECULE
37454_ChemDiv_C627-0109
 19 21 0 0 0
SMALL
GASTEIGER
Energy = 0

@<TRIPOS>ATOM
      1 C           1.4630   -0.2380    0.0000 C.ar    1  LIG1        0.1575
      2 N           1.0540    0.6750    0.0000 N.ar    1  LIG1       -0.1604
      3 N           1.7960    1.3460    0.0000 N.ar    1  LIG1       -0.2281
      4 C           2.6630    0.8420    0.0000 C.ar    1  LIG1        0.0846
      5 C           2.4540   -0.1330    0.0000 C.ar    1  LIG1        0.0447
      6 C           3.5330    1.3460    0.0000 C.ar    1  LIG1        0.0193
      7 C           3.5330    2.3460    0.0000 C.ar    1  LIG1        0.0031
      8 C           2.6630    2.8420    0.0000 C.ar    1  LIG1        0.0207
      9 C           1.7960    2.3460    0.0000 C.ar    1  LIG1        0.1004
     10 C           0.9630   -1.1080    0.0000 C.2     1  LIG1        0.2846
     11 N          -0.0380   -1.1080    0.0000 N.am    1  LIG1       -0.1955
     12 C          -0.5380   -1.9710    0.0000 C.3     1  LIG1        0.1418
     13 C          -1.5380   -1.9710    0.0000 C.ar    1  LIG1       -0.0006
     14 C          -2.0330   -2.8380    0.0000 C.ar    1  LIG1       -0.0026
     15 C          -3.0380   -2.8380    0.0000 C.ar    1  LIG1       -0.0003
     16 C          -3.5380   -1.9710    0.0000 C.ar    1  LIG1       -0.0000
     17 C          -3.0380   -1.1080    0.0000 C.ar    1  LIG1       -0.0003
     18 C          -2.0330   -1.1080    0.0000 C.ar    1  LIG1       -0.0026
     19 O           1.4630   -1.9710    0.0000 O.2     1  LIG1       -0.2666
@<TRIPOS>BOND
     1     1     2   ar
     2     1     5   ar
     3     1    10    1
     4     2     3   ar
     5     3     4   ar
     6     3     9   ar
     7     4     5   ar
     8     4     6   ar
     9     6     7   ar
    10     7     8   ar
    11     8     9   ar
    12    10    11   am
    13    10    19    2
    14    11    12    1
    15    12    13    1
    16    13    14   ar
    17    13    18   ar
    18    14    15   ar
    19    15    16   ar
    20    16    17   ar
    21    17    18   ar
