@<TRIPOS>MOLECULE
37459_ChemDiv_C527-2074
 22 23 0 0 0
SMALL
GASTEIGER
Energy = 0

@<TRIPOS>ATOM
      1 N           0.8960   -0.9080    0.0000 N.ar    1  LIG1       -0.2116
      2 C           1.7080   -0.3170    0.0000 C.ar    1  LIG1        0.1058
      3 C           2.5040   -0.9080    0.0000 C.ar    1  LIG1        0.1395
      4 O           2.2000   -1.8540    0.0000 O.2     1  LIG1       -0.4388
      5 C           1.2130   -1.8540    0.0000 C.ar    1  LIG1        0.2351
      6 C           0.6210   -2.6670    0.0000 C.ar    1  LIG1        0.0830
      7 S          -0.3750   -2.6750    0.0000 S.2     1  LIG1       -0.0818
      8 C          -0.6920   -3.6130    0.0000 C.ar    1  LIG1        0.0356
      9 C           0.1210   -4.2170    0.0000 C.ar    1  LIG1        0.0076
     10 C           0.9250   -3.6250    0.0000 C.ar    1  LIG1        0.0117
     11 C           3.4710   -0.5920    0.0000 C.3     1  LIG1        0.0739
     12 C           1.7210    0.6880    0.0000 C.3     1  LIG1        0.1406
     13 S           0.8630    1.2040    0.0000 S.O     1  LIG1        0.0573
     14 C           0.8710    2.2080    0.0000 C.3     1  LIG1        0.1785
     15 C           0.0040    2.7130    0.0000 C.2     1  LIG1        0.2550
     16 O          -0.8630    2.2080    0.0000 O.2     1  LIG1       -0.2723
     17 N          -0.0080    3.7210    0.0000 N.am    1  LIG1       -0.2046
     18 C          -0.8630    4.2000    0.0000 C.3     1  LIG1        0.1152
     19 C          -1.7460    3.7250    0.0000 C.3     1  LIG1        0.0234
     20 C          -2.6000    4.2170    0.0000 C.3     1  LIG1        0.0018
     21 C          -3.4750    3.7380    0.0000 C.3     1  LIG1        0.0001
     22 O          -0.0080    0.7040    0.0000 O.2     1  LIG1       -0.2550
@<TRIPOS>BOND
     1     1     2   ar
     2     1     5   ar
     3     2     3   ar
     4     2    12    1
     5     3     4   ar
     6     3    11    1
     7     4     5   ar
     8     5     6    1
     9     6     7   ar
    10     6    10   ar
    11     7     8   ar
    12     8     9   ar
    13     9    10   ar
    14    12    13    1
    15    13    14    1
    16    13    22    2
    17    14    15    1
    18    15    16    2
    19    15    17   am
    20    17    18    1
    21    18    19    1
    22    19    20    1
    23    20    21    1
