@<TRIPOS>MOLECULE
37451_ChemDiv_C498-1006
 27 30 0 0 0
SMALL
GASTEIGER
Energy = 0

@<TRIPOS>ATOM
      1 C           0.4330    2.7460    0.0000 C.ar    1  LIG1        0.0243
      2 C          -0.4420    3.2500    0.0000 C.ar    1  LIG1       -0.0029
      3 C          -0.4290    4.2630    0.0000 C.ar    1  LIG1        0.0554
      4 N           0.4330    4.7540    0.0000 N.ar    1  LIG1       -0.2500
      5 C           1.2790    4.2500    0.0000 C.ar    1  LIG1        0.0813
      6 C           1.2710    3.2500    0.0000 C.ar    1  LIG1        0.0231
      7 C           2.1460    2.7420    0.0000 C.ar    1  LIG1        0.0020
      8 C           3.0040    3.2460    0.0000 C.ar    1  LIG1        0.0001
      9 C           3.0130    4.2420    0.0000 C.ar    1  LIG1        0.0015
     10 C           2.1500    4.7460    0.0000 C.ar    1  LIG1        0.0191
     11 C          -1.2960    4.7540    0.0000 C.3     1  LIG1        0.0455
     12 C          -2.1710    4.2630    0.0000 C.3     1  LIG1        0.0066
     13 C          -2.1750    3.2500    0.0000 C.3     1  LIG1        0.0051
     14 C          -1.3040    2.7420    0.0000 C.3     1  LIG1        0.0281
     15 S           0.4330    1.7540    0.0000 S.3     1  LIG1       -0.1041
     16 C          -0.4420    1.2540    0.0000 C.3     1  LIG1        0.1486
     17 C          -0.4420    0.2630    0.0000 C.2     1  LIG1        0.2529
     18 O           0.4250   -0.2380    0.0000 O.2     1  LIG1       -0.2724
     19 N          -1.3040   -0.2380    0.0000 N.am    1  LIG1       -0.1983
     20 C          -1.3040   -1.2500    0.0000 C.3     1  LIG1        0.1775
     21 C          -2.1710   -1.7420    0.0000 C.3     1  LIG1        0.1626
     22 N          -2.1710   -2.7420    0.0000 N.4     1  LIG1        0.3827
     23 C          -3.0170   -3.2540    0.0000 C.3     1  LIG1        0.1714
     24 C          -3.0170   -4.2540    0.0000 C.3     1  LIG1        0.2047
     25 O          -2.1710   -4.7540    0.0000 O.3     1  LIG1       -0.3411
     26 C          -1.3040   -4.2540    0.0000 C.3     1  LIG1        0.2047
     27 C          -1.3040   -3.2540    0.0000 C.3     1  LIG1        0.1714
@<TRIPOS>BOND
     1     1     2   ar
     2     1     6   ar
     3     1    15    1
     4     2     3   ar
     5     2    14    1
     6     3     4   ar
     7     3    11    1
     8     4     5   ar
     9     5     6   ar
    10     5    10   ar
    11     6     7   ar
    12     7     8   ar
    13     8     9   ar
    14     9    10   ar
    15    11    12    1
    16    12    13    1
    17    13    14    1
    18    15    16    1
    19    16    17    1
    20    17    18    2
    21    17    19   am
    22    19    20    1
    23    20    21    1
    24    21    22    1
    25    22    23    1
    26    22    27    1
    27    23    24    1
    28    24    25    1
    29    25    26    1
    30    26    27    1
