@<TRIPOS>MOLECULE
37464_ChemDiv_C567-0087
 32 37 0 0 0
SMALL
GASTEIGER
Energy = 0

@<TRIPOS>ATOM
      1 C           0.0040    1.5000    0.0000 C.ar    1  LIG1        0.0950
      2 C          -0.8710    2.0130    0.0000 C.ar    1  LIG1        0.2016
      3 C          -1.7380    1.5000    0.0000 C.ar    1  LIG1        0.0581
      4 C          -1.7420    0.4960    0.0000 C.ar    1  LIG1        0.0665
      5 N          -0.8750   -0.0040    0.0000 N.ar    1  LIG1       -0.3215
      6 C           0.0040    0.4960    0.0000 C.ar    1  LIG1        0.0825
      7 C          -0.8750   -1.0040    0.0000 C.3     1  LIG1        0.1328
      8 C          -0.0080   -1.5080    0.0000 C.ar    1  LIG1        0.0004
      9 C           0.8460   -1.0130    0.0000 C.ar    1  LIG1       -0.0024
     10 C           1.7040   -1.5080    0.0000 C.ar    1  LIG1       -0.0003
     11 C           1.7040   -2.5080    0.0000 C.ar    1  LIG1       -0.0000
     12 C           0.8460   -3.0080    0.0000 C.ar    1  LIG1       -0.0003
     13 C          -0.0210   -2.5080    0.0000 C.ar    1  LIG1       -0.0024
     14 C          -2.6080    0.0000    0.0000 C.ar    1  LIG1        0.0575
     15 C          -3.4710    0.5000    0.0000 C.ar    1  LIG1        0.1779
     16 C          -3.4710    1.5000    0.0000 C.ar    1  LIG1        0.1766
     17 C          -2.6080    2.0000    0.0000 C.ar    1  LIG1        0.0448
     18 O          -4.4210    1.8040    0.0000 O.3     1  LIG1       -0.4346
     19 C          -5.0040    1.0000    0.0000 C.3     1  LIG1        0.4294
     20 O          -4.4210    0.1880    0.0000 O.3     1  LIG1       -0.4346
     21 O          -0.8710    3.0130    0.0000 O.2     1  LIG1       -0.2864
     22 C           0.8710    2.0000    0.0000 C.2     1  LIG1        0.2002
     23 C           1.7330    1.5000    0.0000 C.ar    1  LIG1        0.0423
     24 C           2.5920    2.0000    0.0000 C.ar    1  LIG1        0.0434
     25 C           3.4500    1.5000    0.0000 C.ar    1  LIG1        0.1765
     26 C           3.4500    0.4960    0.0000 C.ar    1  LIG1        0.1764
     27 O           4.4000    0.1830    0.0000 O.3     1  LIG1       -0.4346
     28 C           5.0000    1.0000    0.0000 C.3     1  LIG1        0.4294
     29 O           4.4000    1.8040    0.0000 O.3     1  LIG1       -0.4346
     30 C           2.5790    0.0000    0.0000 C.ar    1  LIG1        0.0403
     31 C           1.7170    0.5000    0.0000 C.ar    1  LIG1        0.0065
     32 O           0.8710    3.0000    0.0000 O.2     1  LIG1       -0.2864
@<TRIPOS>BOND
     1     1     2   ar
     2     1     6   ar
     3     1    22    1
     4     2     3   ar
     5     2    21    2
     6     3     4   ar
     7     3    17   ar
     8     4     5   ar
     9     4    14   ar
    10     5     6   ar
    11     5     7    1
    12     7     8    1
    13     8     9   ar
    14     8    13   ar
    15     9    10   ar
    16    10    11   ar
    17    11    12   ar
    18    12    13   ar
    19    14    15   ar
    20    15    16   ar
    21    15    20    1
    22    16    17   ar
    23    16    18    1
    24    18    19    1
    25    19    20    1
    26    22    23    1
    27    22    32    2
    28    23    24   ar
    29    23    31   ar
    30    24    25   ar
    31    25    26   ar
    32    25    29    1
    33    26    27    1
    34    26    30   ar
    35    27    28    1
    36    28    29    1
    37    30    31   ar
