@<TRIPOS>MOLECULE
37469_ChemDiv_C529-1870
 28 31 0 0 0
SMALL
GASTEIGER
Energy = 0

@<TRIPOS>ATOM
      1 S           1.3290    1.4380    0.0000 S.O     1  LIG1        0.0894
      2 C           1.0330    0.4830    0.0000 C.ar    1  LIG1        0.0740
      3 C           1.6040   -0.3380    0.0000 C.ar    1  LIG1        0.0626
      4 N           2.5880   -0.4130    0.0000 N.am    1  LIG1       -0.2546
      5 C           3.2710    0.3130    0.0000 C.2     1  LIG1        0.2533
      6 C           3.1210    1.3080    0.0000 C.ar    1  LIG1        0.0623
      7 C           2.2670    1.8080    0.0000 C.ar    1  LIG1        0.0648
      8 C           2.2580    2.8080    0.0000 C.ar    1  LIG1        0.0091
      9 C           3.1210    3.3040    0.0000 C.ar    1  LIG1        0.0006
     10 C           3.9920    2.8080    0.0000 C.ar    1  LIG1        0.0002
     11 C           3.9920    1.8080    0.0000 C.ar    1  LIG1        0.0051
     12 O           4.2330    0.0000    0.0000 O.2     1  LIG1       -0.2696
     13 C           2.9500   -1.3380    0.0000 C.3     1  LIG1        0.0986
     14 C           2.3290   -2.1210    0.0000 C.3     1  LIG1        0.0237
     15 C           1.1710   -1.2420    0.0000 C.ar    1  LIG1        0.0200
     16 C           0.1710   -1.3210    0.0000 C.ar    1  LIG1        0.0549
     17 C          -0.2670   -2.2380    0.0000 C.2     1  LIG1        0.2494
     18 N          -1.2630   -2.3170    0.0000 N.am    1  LIG1       -0.2645
     19 C          -1.6790   -3.2130    0.0000 C.3     1  LIG1        0.1567
     20 C          -2.6750   -3.3000    0.0000 C.3     1  LIG1        0.1608
     21 N          -3.2420   -2.4790    0.0000 N.4     1  LIG1        0.3847
     22 C          -2.8380   -1.5880    0.0000 C.3     1  LIG1        0.1608
     23 C          -1.8250   -1.4960    0.0000 C.3     1  LIG1        0.1567
     24 C          -4.2380   -2.5750    0.0000 C.3     1  LIG1        0.2024
     25 O           0.3080   -3.0580    0.0000 O.2     1  LIG1       -0.2699
     26 C          -0.4040   -0.4880    0.0000 C.ar    1  LIG1        0.0052
     27 C           0.0380    0.4080    0.0000 C.ar    1  LIG1        0.0104
     28 O           0.5920    2.1130    0.0000 O.2     1  LIG1       -0.2469
@<TRIPOS>BOND
     1     1     2    1
     2     1     7    1
     3     1    28    2
     4     2     3   ar
     5     2    27   ar
     6     3     4    1
     7     3    15   ar
     8     4     5   am
     9     4    13    1
    10     5     6    1
    11     5    12    2
    12     6     7   ar
    13     6    11   ar
    14     7     8   ar
    15     8     9   ar
    16     9    10   ar
    17    10    11   ar
    18    13    14    1
    19    15    16   ar
    20    16    17    1
    21    16    26   ar
    22    17    18   am
    23    17    25    2
    24    18    19    1
    25    18    23    1
    26    19    20    1
    27    20    21    1
    28    21    22    1
    29    21    24    1
    30    22    23    1
    31    26    27   ar
