@<TRIPOS>MOLECULE
37468_ChemDiv_C567-0107
 30 34 0 0 0
SMALL
GASTEIGER
Energy = 0

@<TRIPOS>ATOM
      1 C           0.7790    1.5040    0.0000 C.ar    1  LIG1        0.0950
      2 C          -0.0920    2.0170    0.0000 C.ar    1  LIG1        0.2016
      3 C          -0.9580    1.5040    0.0000 C.ar    1  LIG1        0.0581
      4 C          -0.9710    0.4960    0.0000 C.ar    1  LIG1        0.0665
      5 N          -0.1000   -0.0040    0.0000 N.ar    1  LIG1       -0.3215
      6 C           0.7790    0.4960    0.0000 C.ar    1  LIG1        0.0825
      7 C          -0.1000   -1.0040    0.0000 C.3     1  LIG1        0.1328
      8 C           0.7670   -1.5080    0.0000 C.ar    1  LIG1        0.0004
      9 C           1.6170   -1.0130    0.0000 C.ar    1  LIG1       -0.0015
     10 C           2.4790   -1.5080    0.0000 C.ar    1  LIG1        0.0111
     11 C           2.4790   -2.5040    0.0000 C.ar    1  LIG1        0.0577
     12 CL          3.3420   -3.0040    0.0000 Cl      1  LIG1       -0.0822
     13 C           1.6170   -3.0040    0.0000 C.ar    1  LIG1        0.0111
     14 C           0.7580   -2.5040    0.0000 C.ar    1  LIG1       -0.0015
     15 C          -1.8290    0.0000    0.0000 C.ar    1  LIG1        0.0575
     16 C          -2.6920    0.5000    0.0000 C.ar    1  LIG1        0.1779
     17 C          -2.6920    1.5040    0.0000 C.ar    1  LIG1        0.1766
     18 C          -1.8290    2.0000    0.0000 C.ar    1  LIG1        0.0448
     19 O          -3.6460    1.8210    0.0000 O.3     1  LIG1       -0.4346
     20 C          -4.2380    1.0040    0.0000 C.3     1  LIG1        0.4294
     21 O          -3.6460    0.1880    0.0000 O.3     1  LIG1       -0.4346
     22 O          -0.0920    3.0080    0.0000 O.2     1  LIG1       -0.2864
     23 C           1.6460    2.0000    0.0000 C.2     1  LIG1        0.2001
     24 O           1.6460    2.9920    0.0000 O.2     1  LIG1       -0.2864
     25 C           2.5130    1.5040    0.0000 C.ar    1  LIG1        0.0391
     26 C           3.3670    2.0000    0.0000 C.ar    1  LIG1        0.0032
     27 C           4.2330    1.5040    0.0000 C.ar    1  LIG1        0.0001
     28 C           4.2330    0.4960    0.0000 C.ar    1  LIG1        0.0000
     29 C           3.3540    0.0000    0.0000 C.ar    1  LIG1        0.0001
     30 C           2.4960    0.5000    0.0000 C.ar    1  LIG1        0.0032
@<TRIPOS>BOND
     1     1     2   ar
     2     1     6   ar
     3     1    23    1
     4     2     3   ar
     5     2    22    2
     6     3     4   ar
     7     3    18   ar
     8     4     5   ar
     9     4    15   ar
    10     5     6   ar
    11     5     7    1
    12     7     8    1
    13     8     9   ar
    14     8    14   ar
    15     9    10   ar
    16    10    11   ar
    17    11    12    1
    18    11    13   ar
    19    13    14   ar
    20    15    16   ar
    21    16    17   ar
    22    16    21    1
    23    17    18   ar
    24    17    19    1
    25    19    20    1
    26    20    21    1
    27    23    24    2
    28    23    25    1
    29    25    26   ar
    30    25    30   ar
    31    26    27   ar
    32    27    28   ar
    33    28    29   ar
    34    29    30   ar
