@<TRIPOS>MOLECULE
37467_ChemDiv_C529-1866
 29 32 0 0 0
SMALL
GASTEIGER
Energy = 0

@<TRIPOS>ATOM
      1 S           0.9040    1.3960    0.0000 S.O     1  LIG1        0.0894
      2 C           0.6080    0.4460    0.0000 C.ar    1  LIG1        0.0740
      3 C           1.1750   -0.3750    0.0000 C.ar    1  LIG1        0.0626
      4 N           2.1580   -0.4500    0.0000 N.am    1  LIG1       -0.2546
      5 C           2.8420    0.2750    0.0000 C.2     1  LIG1        0.2533
      6 C           2.6920    1.2710    0.0000 C.ar    1  LIG1        0.0623
      7 C           1.8420    1.7710    0.0000 C.ar    1  LIG1        0.0648
      8 C           1.8290    2.7670    0.0000 C.ar    1  LIG1        0.0091
      9 C           2.6920    3.2670    0.0000 C.ar    1  LIG1        0.0006
     10 C           3.5630    2.7670    0.0000 C.ar    1  LIG1        0.0002
     11 C           3.5630    1.7710    0.0000 C.ar    1  LIG1        0.0051
     12 O           3.8040   -0.0380    0.0000 O.2     1  LIG1       -0.2696
     13 C           2.5210   -1.3710    0.0000 C.3     1  LIG1        0.0986
     14 C           1.9000   -2.1580    0.0000 C.3     1  LIG1        0.0237
     15 C           0.7420   -1.2750    0.0000 C.ar    1  LIG1        0.0200
     16 C          -0.2540   -1.3580    0.0000 C.ar    1  LIG1        0.0549
     17 C          -0.6920   -2.2750    0.0000 C.2     1  LIG1        0.2491
     18 N          -1.6880   -2.3540    0.0000 N.am    1  LIG1       -0.2760
     19 C          -2.2500   -1.5250    0.0000 C.3     1  LIG1        0.0757
     20 C          -3.2460   -1.6000    0.0000 C.3     1  LIG1        0.0198
     21 C          -3.8080   -0.7790    0.0000 C.3     1  LIG1        0.0017
     22 C          -3.3880    0.1210    0.0000 C.3     1  LIG1        0.0001
     23 C          -2.3880    0.2040    0.0000 C.3     1  LIG1        0.0017
     24 C          -1.8250   -0.6170    0.0000 C.3     1  LIG1        0.0198
     25 C          -2.1130   -3.2630    0.0000 C.3     1  LIG1        0.1151
     26 O          -0.1170   -3.0960    0.0000 O.2     1  LIG1       -0.2699
     27 C          -0.8290   -0.5250    0.0000 C.ar    1  LIG1        0.0052
     28 C          -0.3920    0.3710    0.0000 C.ar    1  LIG1        0.0104
     29 O           0.1630    2.0710    0.0000 O.2     1  LIG1       -0.2469
@<TRIPOS>BOND
     1     1     2    1
     2     1     7    1
     3     1    29    2
     4     2     3   ar
     5     2    28   ar
     6     3     4    1
     7     3    15   ar
     8     4     5   am
     9     4    13    1
    10     5     6    1
    11     5    12    2
    12     6     7   ar
    13     6    11   ar
    14     7     8   ar
    15     8     9   ar
    16     9    10   ar
    17    10    11   ar
    18    13    14    1
    19    15    16   ar
    20    16    17    1
    21    16    27   ar
    22    17    18   am
    23    17    26    2
    24    18    19    1
    25    18    25    1
    26    19    20    1
    27    19    24    1
    28    20    21    1
    29    21    22    1
    30    22    23    1
    31    23    24    1
    32    27    28   ar
