@<TRIPOS>MOLECULE
37460_ChemDiv_C567-0057
 32 36 0 0 0
SMALL
GASTEIGER
Energy = 0

@<TRIPOS>ATOM
      1 C          -0.5130    1.4960    0.0000 C.ar    1  LIG1        0.0950
      2 C          -1.3880    2.0130    0.0000 C.ar    1  LIG1        0.2016
      3 C          -2.2580    1.4960    0.0000 C.ar    1  LIG1        0.0581
      4 C          -2.2630    0.4920    0.0000 C.ar    1  LIG1        0.0665
      5 N          -1.3880   -0.0080    0.0000 N.ar    1  LIG1       -0.3215
      6 C          -0.5130    0.4920    0.0000 C.ar    1  LIG1        0.0825
      7 C          -1.3880   -1.0080    0.0000 C.3     1  LIG1        0.1328
      8 C          -0.5290   -1.5080    0.0000 C.ar    1  LIG1        0.0004
      9 C          -0.5380   -2.5040    0.0000 C.ar    1  LIG1       -0.0024
     10 C           0.3250   -3.0040    0.0000 C.ar    1  LIG1       -0.0003
     11 C           1.1830   -2.5040    0.0000 C.ar    1  LIG1       -0.0000
     12 C           1.1830   -1.5080    0.0000 C.ar    1  LIG1       -0.0003
     13 C           0.3250   -1.0080    0.0000 C.ar    1  LIG1       -0.0024
     14 C          -3.1250    0.0000    0.0000 C.ar    1  LIG1        0.0575
     15 C          -3.9830    0.4960    0.0000 C.ar    1  LIG1        0.1779
     16 C          -3.9830    1.4960    0.0000 C.ar    1  LIG1        0.1766
     17 C          -3.1250    1.9960    0.0000 C.ar    1  LIG1        0.0448
     18 O          -4.9460    1.8210    0.0000 O.3     1  LIG1       -0.4346
     19 C          -5.5290    0.9960    0.0000 C.3     1  LIG1        0.4294
     20 O          -4.9460    0.1920    0.0000 O.3     1  LIG1       -0.4346
     21 O          -1.3880    3.0080    0.0000 O.2     1  LIG1       -0.2864
     22 C           0.3540    1.9960    0.0000 C.2     1  LIG1        0.2001
     23 C           1.2170    1.4960    0.0000 C.ar    1  LIG1        0.0393
     24 C           2.0750    1.9960    0.0000 C.ar    1  LIG1        0.0063
     25 C           2.9380    1.4960    0.0000 C.ar    1  LIG1        0.0370
     26 C           2.9380    0.4920    0.0000 C.ar    1  LIG1        0.1386
     27 C           2.0630    0.0000    0.0000 C.ar    1  LIG1        0.0370
     28 C           1.2000    0.4960    0.0000 C.ar    1  LIG1        0.0063
     29 O           3.7880    0.0000    0.0000 O.3     1  LIG1       -0.4755
     30 C           4.6580    0.4920    0.0000 C.3     1  LIG1        0.2055
     31 C           5.5250   -0.0080    0.0000 C.3     1  LIG1        0.0512
     32 O           0.3540    3.0000    0.0000 O.2     1  LIG1       -0.2864
@<TRIPOS>BOND
     1     1     2   ar
     2     1     6   ar
     3     1    22    1
     4     2     3   ar
     5     2    21    2
     6     3     4   ar
     7     3    17   ar
     8     4     5   ar
     9     4    14   ar
    10     5     6   ar
    11     5     7    1
    12     7     8    1
    13     8     9   ar
    14     8    13   ar
    15     9    10   ar
    16    10    11   ar
    17    11    12   ar
    18    12    13   ar
    19    14    15   ar
    20    15    16   ar
    21    15    20    1
    22    16    17   ar
    23    16    18    1
    24    18    19    1
    25    19    20    1
    26    22    23    1
    27    22    32    2
    28    23    24   ar
    29    23    28   ar
    30    24    25   ar
    31    25    26   ar
    32    26    27   ar
    33    26    29    1
    34    27    28   ar
    35    29    30    1
    36    30    31    1
