@<TRIPOS>MOLECULE
37465_ChemDiv_C529-1571
 38 42 0 0 0
SMALL
GASTEIGER
Energy = 0

@<TRIPOS>ATOM
      1 N           0.4630    1.2710    0.0000 N.am    1  LIG1       -0.2503
      2 C           1.1460    1.9960    0.0000 C.2     1  LIG1        0.2536
      3 C           0.9960    2.9920    0.0000 C.ar    1  LIG1        0.0623
      4 C           0.1460    3.4920    0.0000 C.ar    1  LIG1        0.0648
      5 S          -0.7920    3.1170    0.0000 S.O     1  LIG1        0.0894
      6 C          -1.0880    2.1670    0.0000 C.ar    1  LIG1        0.0740
      7 C          -0.5210    1.3460    0.0000 C.ar    1  LIG1        0.0629
      8 C          -0.9540    0.4460    0.0000 C.ar    1  LIG1        0.0201
      9 C          -1.9500    0.3630    0.0000 C.ar    1  LIG1        0.0563
     10 C          -2.3880   -0.5500    0.0000 C.2     1  LIG1        0.2648
     11 O          -1.8130   -1.3710    0.0000 O.2     1  LIG1       -0.2684
     12 N          -3.3830   -0.6330    0.0000 N.am    1  LIG1       -0.2014
     13 C          -3.8080   -1.5380    0.0000 C.3     1  LIG1        0.1216
     14 C          -3.2330   -2.3540    0.0000 C.3     1  LIG1        0.0861
     15 C          -3.6710   -3.2580    0.0000 C.3     1  LIG1        0.1404
     16 N          -3.0960   -4.0920    0.0000 N.4     1  LIG1        0.3777
     17 C          -2.1000   -4.0000    0.0000 C.3     1  LIG1        0.0872
     18 C          -1.6670   -3.0920    0.0000 C.3     1  LIG1        0.0567
     19 C          -0.6670   -3.0130    0.0000 C.3     1  LIG1        0.0059
     20 C          -0.0960   -3.8330    0.0000 C.3     1  LIG1        0.0004
     21 C          -0.5290   -4.7330    0.0000 C.3     1  LIG1        0.0059
     22 C          -1.5250   -4.8130    0.0000 C.3     1  LIG1        0.0567
     23 C          -3.5210   -4.9790    0.0000 C.3     1  LIG1        0.2019
     24 C          -2.5250    1.1960    0.0000 C.ar    1  LIG1        0.0052
     25 C          -2.0880    2.0920    0.0000 C.ar    1  LIG1        0.0104
     26 O          -1.5330    3.7920    0.0000 O.2     1  LIG1       -0.2469
     27 C           0.1330    4.4830    0.0000 C.ar    1  LIG1        0.0091
     28 C           0.9960    4.9790    0.0000 C.ar    1  LIG1        0.0006
     29 C           1.8670    4.4830    0.0000 C.ar    1  LIG1        0.0002
     30 C           1.8670    3.4920    0.0000 C.ar    1  LIG1        0.0051
     31 O           2.1080    1.6830    0.0000 O.2     1  LIG1       -0.2695
     32 C           0.8250    0.3500    0.0000 C.3     1  LIG1        0.1251
     33 C           1.8250    0.2000    0.0000 C.ar    1  LIG1       -0.0020
     34 C           2.2040   -0.7330    0.0000 C.ar    1  LIG1       -0.0026
     35 C           3.1830   -0.9040    0.0000 C.ar    1  LIG1       -0.0003
     36 C           3.8040   -0.1460    0.0000 C.ar    1  LIG1       -0.0000
     37 C           3.4500    0.8170    0.0000 C.ar    1  LIG1       -0.0003
     38 C           2.4750    0.9580    0.0000 C.ar    1  LIG1       -0.0026
@<TRIPOS>BOND
     1     1     2   am
     2     1     7    1
     3     1    32    1
     4     2     3    1
     5     2    31    2
     6     3     4   ar
     7     3    30   ar
     8     4     5    1
     9     4    27   ar
    10     5     6    1
    11     5    26    2
    12     6     7   ar
    13     6    25   ar
    14     7     8   ar
    15     8     9   ar
    16     9    10    1
    17     9    24   ar
    18    10    11    2
    19    10    12   am
    20    12    13    1
    21    13    14    1
    22    14    15    1
    23    15    16    1
    24    16    17    1
    25    16    23    1
    26    17    18    1
    27    17    22    1
    28    18    19    1
    29    19    20    1
    30    20    21    1
    31    21    22    1
    32    24    25   ar
    33    27    28   ar
    34    28    29   ar
    35    29    30   ar
    36    32    33    1
    37    33    34   ar
    38    33    38   ar
    39    34    35   ar
    40    35    36   ar
    41    36    37   ar
    42    37    38   ar
