@<TRIPOS>MOLECULE
37463_ChemDiv_C529-1530
 35 39 0 0 0
SMALL
GASTEIGER
Energy = 0

@<TRIPOS>ATOM
      1 N           1.6790    0.3290    0.0000 N.am    1  LIG1       -0.2503
      2 C           2.4080    1.0130    0.0000 C.2     1  LIG1        0.2536
      3 C           2.3210    1.9960    0.0000 C.ar    1  LIG1        0.0623
      4 C           1.5040    2.5670    0.0000 C.ar    1  LIG1        0.0648
      5 S           0.5500    2.2710    0.0000 S.O     1  LIG1        0.0894
      6 C           0.1880    1.3420    0.0000 C.ar    1  LIG1        0.0740
      7 C           0.6880    0.4790    0.0000 C.ar    1  LIG1        0.0629
      8 C           0.1880   -0.3960    0.0000 C.ar    1  LIG1        0.0201
      9 C          -0.8170   -0.3960    0.0000 C.ar    1  LIG1        0.0563
     10 C          -1.3250   -1.2630    0.0000 C.2     1  LIG1        0.2650
     11 N          -2.3290   -1.2630    0.0000 N.am    1  LIG1       -0.1955
     12 C          -3.3290   -1.2630    0.0000 C.3     1  LIG1        0.1717
     13 C          -3.8290   -2.1250    0.0000 C.3     1  LIG1        0.1092
     14 N          -3.3290   -2.9880    0.0000 N.4     1  LIG1        0.3743
     15 C          -4.0040   -3.7380    0.0000 C.3     1  LIG1        0.1385
     16 C          -4.9130   -3.3210    0.0000 C.3     1  LIG1        0.0687
     17 C          -4.8080   -2.3380    0.0000 C.3     1  LIG1        0.0647
     18 C          -2.3290   -3.0920    0.0000 C.3     1  LIG1        0.1385
     19 C          -1.9170   -4.0000    0.0000 C.3     1  LIG1        0.0688
     20 O          -0.8250   -2.1250    0.0000 O.2     1  LIG1       -0.2684
     21 C          -1.3170    0.4790    0.0000 C.ar    1  LIG1        0.0052
     22 C          -0.8170    1.3420    0.0000 C.ar    1  LIG1        0.0104
     23 O          -0.1170    3.0130    0.0000 O.2     1  LIG1       -0.2469
     24 C           1.5790    3.5670    0.0000 C.ar    1  LIG1        0.0091
     25 C           2.4830    4.0000    0.0000 C.ar    1  LIG1        0.0006
     26 C           3.3040    3.4290    0.0000 C.ar    1  LIG1        0.0002
     27 C           3.2290    2.4290    0.0000 C.ar    1  LIG1        0.0051
     28 O           3.3500    0.6750    0.0000 O.2     1  LIG1       -0.2695
     29 C           1.9880   -0.6380    0.0000 C.3     1  LIG1        0.1251
     30 C           2.9580   -0.8500    0.0000 C.ar    1  LIG1       -0.0020
     31 C           3.6330   -0.1130    0.0000 C.ar    1  LIG1       -0.0026
     32 C           4.6000   -0.3250    0.0000 C.ar    1  LIG1       -0.0003
     33 C           4.9080   -1.2710    0.0000 C.ar    1  LIG1       -0.0000
     34 C           4.2420   -2.0130    0.0000 C.ar    1  LIG1       -0.0003
     35 C           3.2710   -1.8000    0.0000 C.ar    1  LIG1       -0.0026
@<TRIPOS>BOND
     1     1     2   am
     2     1     7    1
     3     1    29    1
     4     2     3    1
     5     2    28    2
     6     3     4   ar
     7     3    27   ar
     8     4     5    1
     9     4    24   ar
    10     5     6    1
    11     5    23    2
    12     6     7   ar
    13     6    22   ar
    14     7     8   ar
    15     8     9   ar
    16     9    10    1
    17     9    21   ar
    18    10    11   am
    19    10    20    2
    20    11    12    1
    21    12    13    1
    22    13    14    1
    23    13    17    1
    24    14    15    1
    25    14    18    1
    26    15    16    1
    27    16    17    1
    28    18    19    1
    29    21    22   ar
    30    24    25   ar
    31    25    26   ar
    32    26    27   ar
    33    29    30    1
    34    30    31   ar
    35    30    35   ar
    36    31    32   ar
    37    32    33   ar
    38    33    34   ar
    39    34    35   ar
