@<TRIPOS>MOLECULE
37478_ChemDiv_C613-0033
 24 27 0 0 0
SMALL
GASTEIGER
Energy = 0

@<TRIPOS>ATOM
      1 C          -0.6130    2.5380    0.0000 C.ar    1  LIG1        0.1561
      2 N          -1.2040    1.7290    0.0000 N.ar    1  LIG1       -0.1604
      3 N          -2.1580    2.0330    0.0000 N.ar    1  LIG1       -0.2281
      4 C          -2.1580    3.0330    0.0000 C.ar    1  LIG1        0.0846
      5 C          -1.2040    3.3460    0.0000 C.ar    1  LIG1        0.0446
      6 C          -3.0210    3.5330    0.0000 C.ar    1  LIG1        0.0193
      7 C          -3.8880    3.0330    0.0000 C.ar    1  LIG1        0.0031
      8 C          -3.8880    2.0330    0.0000 C.ar    1  LIG1        0.0207
      9 C          -3.0210    1.5330    0.0000 C.ar    1  LIG1        0.1004
     10 C           0.3880    2.5380    0.0000 C.2     1  LIG1        0.2686
     11 N           0.8880    1.6750    0.0000 N.am    1  LIG1       -0.2713
     12 C           0.3880    0.8040    0.0000 C.3     1  LIG1        0.1152
     13 C           0.8880   -0.0500    0.0000 C.3     1  LIG1        0.1137
     14 N           1.8880   -0.0580    0.0000 N.pl3   1  LIG1       -0.2883
     15 C           2.3830   -0.9210    0.0000 C.ar    1  LIG1        0.1536
     16 N           3.3830   -0.9210    0.0000 N.ar    1  LIG1       -0.1321
     17 N           3.8830   -1.7830    0.0000 N.ar    1  LIG1       -0.1352
     18 C           3.3710   -2.6580    0.0000 C.ar    1  LIG1        0.1600
     19 C           2.3710   -2.6500    0.0000 C.ar    1  LIG1        0.0355
     20 C           1.8830   -1.7830    0.0000 C.ar    1  LIG1        0.0386
     21 CL          3.8710   -3.5290    0.0000 Cl      1  LIG1       -0.0594
     22 C           2.3830    0.8040    0.0000 C.3     1  LIG1        0.1137
     23 C           1.8880    1.6830    0.0000 C.3     1  LIG1        0.1152
     24 O           0.8880    3.4080    0.0000 O.2     1  LIG1       -0.2682
@<TRIPOS>BOND
     1     1     2   ar
     2     1     5   ar
     3     1    10    1
     4     2     3   ar
     5     3     4   ar
     6     3     9   ar
     7     4     5   ar
     8     4     6   ar
     9     6     7   ar
    10     7     8   ar
    11     8     9   ar
    12    10    11   am
    13    10    24    2
    14    11    12    1
    15    11    23    1
    16    12    13    1
    17    13    14    1
    18    14    15    1
    19    14    22    1
    20    15    16   ar
    21    15    20   ar
    22    16    17   ar
    23    17    18   ar
    24    18    19   ar
    25    18    21    1
    26    19    20   ar
    27    22    23    1
