@<TRIPOS>MOLECULE
37476_ChemDiv_C627-0158
 19 21 0 0 0
SMALL
GASTEIGER
Energy = 0

@<TRIPOS>ATOM
      1 C           1.3170    0.5540    0.0000 C.ar    1  LIG1        0.1575
      2 N           0.9040    1.4670    0.0000 N.ar    1  LIG1       -0.1604
      3 N           1.6500    2.1330    0.0000 N.ar    1  LIG1       -0.2281
      4 C           2.5130    1.6330    0.0000 C.ar    1  LIG1        0.0846
      5 C           2.3040    0.6580    0.0000 C.ar    1  LIG1        0.0447
      6 C           3.3830    2.1330    0.0000 C.ar    1  LIG1        0.0193
      7 C           3.3830    3.1380    0.0000 C.ar    1  LIG1        0.0031
      8 C           2.5130    3.6330    0.0000 C.ar    1  LIG1        0.0207
      9 C           1.6500    3.1380    0.0000 C.ar    1  LIG1        0.1004
     10 C           0.8130   -0.3170    0.0000 C.2     1  LIG1        0.2843
     11 O           1.3170   -1.1830    0.0000 O.2     1  LIG1       -0.2666
     12 N          -0.1880   -0.3170    0.0000 N.am    1  LIG1       -0.2000
     13 C          -0.6880   -1.1830    0.0000 C.3     1  LIG1        0.1202
     14 C          -1.6880   -1.1830    0.0000 C.3     1  LIG1        0.0503
     15 C          -2.1830   -2.0460    0.0000 C.ar    1  LIG1       -0.0134
     16 C          -3.1830   -2.1500    0.0000 C.ar    1  LIG1        0.0312
     17 S          -3.3880   -3.1250    0.0000 S.2     1  LIG1       -0.0863
     18 C          -2.5210   -3.6290    0.0000 C.ar    1  LIG1        0.0351
     19 C          -1.7790   -2.9580    0.0000 C.ar    1  LIG1        0.0033
@<TRIPOS>BOND
     1     1     2   ar
     2     1     5   ar
     3     1    10    1
     4     2     3   ar
     5     3     4   ar
     6     3     9   ar
     7     4     5   ar
     8     4     6   ar
     9     6     7   ar
    10     7     8   ar
    11     8     9   ar
    12    10    11    2
    13    10    12   am
    14    12    13    1
    15    13    14    1
    16    14    15    1
    17    15    16   ar
    18    15    19   ar
    19    16    17   ar
    20    17    18   ar
    21    18    19   ar
