@<TRIPOS>MOLECULE
37472_ChemDiv_C567-0187
 33 38 0 0 0
SMALL
GASTEIGER
Energy = 0

@<TRIPOS>ATOM
      1 C           0.0080    1.5000    0.0000 C.ar    1  LIG1        0.0950
      2 C          -0.8630    2.0210    0.0000 C.ar    1  LIG1        0.2016
      3 C          -1.7380    1.5000    0.0000 C.ar    1  LIG1        0.0581
      4 C          -1.7380    0.4880    0.0000 C.ar    1  LIG1        0.0665
      5 N          -0.8750   -0.0080    0.0000 N.ar    1  LIG1       -0.3215
      6 C           0.0080    0.4880    0.0000 C.ar    1  LIG1        0.0825
      7 C          -0.8750   -1.0080    0.0000 C.3     1  LIG1        0.1328
      8 C          -0.0130   -1.5080    0.0000 C.ar    1  LIG1        0.0004
      9 C           0.8460   -1.0080    0.0000 C.ar    1  LIG1       -0.0015
     10 C           1.7080   -1.5080    0.0000 C.ar    1  LIG1        0.0111
     11 C           1.7080   -2.5040    0.0000 C.ar    1  LIG1        0.0577
     12 CL          2.5710   -3.0040    0.0000 Cl      1  LIG1       -0.0822
     13 C           0.8460   -3.0040    0.0000 C.ar    1  LIG1        0.0111
     14 C          -0.0170   -2.5040    0.0000 C.ar    1  LIG1       -0.0015
     15 C          -2.6000    0.0040    0.0000 C.ar    1  LIG1        0.0575
     16 C          -3.4580    0.4920    0.0000 C.ar    1  LIG1        0.1779
     17 C          -3.4670    1.5000    0.0000 C.ar    1  LIG1        0.1766
     18 C          -2.6000    2.0000    0.0000 C.ar    1  LIG1        0.0448
     19 O          -4.4170    1.8080    0.0000 O.3     1  LIG1       -0.4346
     20 C          -5.0040    0.9960    0.0000 C.3     1  LIG1        0.4294
     21 O          -4.4170    0.1880    0.0000 O.3     1  LIG1       -0.4346
     22 O          -0.8630    3.0080    0.0000 O.2     1  LIG1       -0.2864
     23 C           0.8750    2.0000    0.0000 C.2     1  LIG1        0.2002
     24 C           1.7420    1.5000    0.0000 C.ar    1  LIG1        0.0423
     25 C           2.5920    2.0000    0.0000 C.ar    1  LIG1        0.0434
     26 C           3.4540    1.5000    0.0000 C.ar    1  LIG1        0.1765
     27 C           3.4540    0.4880    0.0000 C.ar    1  LIG1        0.1764
     28 O           4.4040    0.1880    0.0000 O.3     1  LIG1       -0.4346
     29 C           5.0000    0.9960    0.0000 C.3     1  LIG1        0.4294
     30 O           4.4040    1.8080    0.0000 O.3     1  LIG1       -0.4346
     31 C           2.5830    0.0040    0.0000 C.ar    1  LIG1        0.0403
     32 C           1.7210    0.5040    0.0000 C.ar    1  LIG1        0.0065
     33 O           0.8750    2.9960    0.0000 O.2     1  LIG1       -0.2864
@<TRIPOS>BOND
     1     1     2   ar
     2     1     6   ar
     3     1    23    1
     4     2     3   ar
     5     2    22    2
     6     3     4   ar
     7     3    18   ar
     8     4     5   ar
     9     4    15   ar
    10     5     6   ar
    11     5     7    1
    12     7     8    1
    13     8     9   ar
    14     8    14   ar
    15     9    10   ar
    16    10    11   ar
    17    11    12    1
    18    11    13   ar
    19    13    14   ar
    20    15    16   ar
    21    16    17   ar
    22    16    21    1
    23    17    18   ar
    24    17    19    1
    25    19    20    1
    26    20    21    1
    27    23    24    1
    28    23    33    2
    29    24    25   ar
    30    24    32   ar
    31    25    26   ar
    32    26    27   ar
    33    26    30    1
    34    27    28    1
    35    27    31   ar
    36    28    29    1
    37    29    30    1
    38    31    32   ar
