@<TRIPOS>MOLECULE
37471_ChemDiv_C530-0298
 35 39 0 0 0
SMALL
GASTEIGER
Energy = 0

@<TRIPOS>ATOM
      1 S           2.4920    2.5130    0.0000 S.O2    1  LIG1        0.0288
      2 C           2.1960    1.5630    0.0000 C.ar    1  LIG1        0.1239
      3 C           2.7670    0.7380    0.0000 C.ar    1  LIG1        0.0717
      4 N           3.7380    0.6630    0.0000 N.am    1  LIG1       -0.2539
      5 C           4.4290    1.3880    0.0000 C.2     1  LIG1        0.2540
      6 C           4.2880    2.3880    0.0000 C.ar    1  LIG1        0.0713
      7 C           3.4210    2.8830    0.0000 C.ar    1  LIG1        0.1147
      8 C           3.4210    3.8790    0.0000 C.ar    1  LIG1        0.0189
      9 C           4.2880    4.3790    0.0000 C.ar    1  LIG1        0.0013
     10 C           5.1500    3.8790    0.0000 C.ar    1  LIG1        0.0002
     11 C           5.1500    2.8830    0.0000 C.ar    1  LIG1        0.0058
     12 O           5.3920    1.0750    0.0000 O.2     1  LIG1       -0.2695
     13 C           4.1040   -0.2580    0.0000 C.3     1  LIG1        0.0986
     14 C           3.4830   -1.0460    0.0000 C.3     1  LIG1        0.0237
     15 C           2.3330   -0.1670    0.0000 C.ar    1  LIG1        0.0207
     16 C           1.3290   -0.2420    0.0000 C.ar    1  LIG1        0.0549
     17 C           0.9000   -1.1630    0.0000 C.2     1  LIG1        0.2492
     18 N          -0.0960   -1.2460    0.0000 N.am    1  LIG1       -0.2726
     19 C          -0.9170   -1.5420    0.0000 C.3     1  LIG1        0.1152
     20 C          -1.3380   -2.4580    0.0000 C.3     1  LIG1        0.1153
     21 N          -2.3330   -2.5330    0.0000 N.am    1  LIG1       -0.2701
     22 C          -2.7880   -3.4420    0.0000 C.2     1  LIG1        0.2839
     23 C          -3.8040   -3.5170    0.0000 C.ar    1  LIG1        0.1987
     24 O          -4.3460   -4.3790    0.0000 O.2     1  LIG1       -0.4458
     25 C          -5.3290   -4.1210    0.0000 C.ar    1  LIG1        0.1798
     26 C          -5.3960   -3.1170    0.0000 C.ar    1  LIG1        0.0440
     27 C          -4.4540   -2.7380    0.0000 C.ar    1  LIG1        0.0455
     28 O          -2.2170   -4.2880    0.0000 O.2     1  LIG1       -0.2666
     29 C          -1.5210   -1.9540    0.0000 C.3     1  LIG1        0.1153
     30 C          -1.0960   -1.0630    0.0000 C.3     1  LIG1        0.1152
     31 O           1.4670   -1.9880    0.0000 O.2     1  LIG1       -0.2699
     32 C           0.7630    0.5880    0.0000 C.ar    1  LIG1        0.0059
     33 C           1.2000    1.4880    0.0000 C.ar    1  LIG1        0.0202
     34 O           2.5250    3.5080    0.0000 O.2     1  LIG1       -0.1642
     35 O           1.5170    2.2880    0.0000 O.2     1  LIG1       -0.1642
@<TRIPOS>BOND
     1     1     2    1
     2     1     7    1
     3     1    34    2
     4     1    35    2
     5     2     3   ar
     6     2    33   ar
     7     3     4    1
     8     3    15   ar
     9     4     5   am
    10     4    13    1
    11     5     6    1
    12     5    12    2
    13     6     7   ar
    14     6    11   ar
    15     7     8   ar
    16     8     9   ar
    17     9    10   ar
    18    10    11   ar
    19    13    14    1
    20    15    16   ar
    21    16    17    1
    22    16    32   ar
    23    17    18   am
    24    17    31    2
    25    18    19    1
    26    18    30    1
    27    19    20    1
    28    20    21    1
    29    21    22   am
    30    21    29    1
    31    22    23    1
    32    22    28    2
    33    23    24   ar
    34    23    27   ar
    35    24    25   ar
    36    25    26   ar
    37    26    27   ar
    38    29    30    1
    39    32    33   ar
