@<TRIPOS>MOLECULE
37477_ChemDiv_C598-0081
 31 35 0 0 0
SMALL
GASTEIGER
Energy = 0

@<TRIPOS>ATOM
      1 C           1.5380    1.6750    0.0000 C.ar    1  LIG1        0.0242
      2 C           1.0380    0.8080    0.0000 C.ar    1  LIG1        0.0231
      3 C           1.5380   -0.0580    0.0000 C.ar    1  LIG1        0.0815
      4 N           2.5420   -0.0580    0.0000 N.ar    1  LIG1       -0.2500
      5 C           3.0380    0.8080    0.0000 C.ar    1  LIG1        0.0554
      6 C           2.5420    1.6750    0.0000 C.ar    1  LIG1       -0.0029
      7 C           3.0380    2.5420    0.0000 C.3     1  LIG1        0.0281
      8 C           4.0370    2.5420    0.0000 C.3     1  LIG1        0.0051
      9 C           4.5420    1.6750    0.0000 C.3     1  LIG1        0.0066
     10 C           4.0370    0.8080    0.0000 C.3     1  LIG1        0.0455
     11 C           1.0380   -0.9210    0.0000 C.ar    1  LIG1        0.0237
     12 C           0.0380   -0.9210    0.0000 C.ar    1  LIG1        0.0569
     13 C          -0.4630   -1.7880    0.0000 C.2     1  LIG1        0.2690
     14 N          -1.4630   -1.7880    0.0000 N.am    1  LIG1       -0.1753
     15 C          -1.9630   -2.6540    0.0000 C.ar    1  LIG1        0.0769
     16 C          -2.9580   -2.6540    0.0000 C.ar    1  LIG1        0.0568
     17 C          -3.4670   -3.5210    0.0000 C.ar    1  LIG1        0.1777
     18 C          -2.9580   -4.3880    0.0000 C.ar    1  LIG1        0.1765
     19 O          -3.6330   -5.1290    0.0000 O.3     1  LIG1       -0.4346
     20 C          -4.5460   -4.7250    0.0000 C.3     1  LIG1        0.4294
     21 O          -4.4420   -3.7290    0.0000 O.3     1  LIG1       -0.4346
     22 C          -1.9630   -4.3880    0.0000 C.ar    1  LIG1        0.0415
     23 C          -1.4630   -3.5210    0.0000 C.ar    1  LIG1        0.0199
     24 O           0.0380   -2.6540    0.0000 O.2     1  LIG1       -0.2680
     25 C          -0.4630   -0.0580    0.0000 C.ar    1  LIG1        0.0047
     26 C           0.0380    0.8080    0.0000 C.ar    1  LIG1        0.0021
     27 S           1.0380    2.5420    0.0000 S.3     1  LIG1       -0.1078
     28 C           1.5380    3.4130    0.0000 C.3     1  LIG1        0.1036
     29 C           1.0380    4.2710    0.0000 C.2     1  LIG1        0.0616
     30 O           0.0380    4.2710    0.0000 O.co2   1  LIG1       -0.5483
     31 O           1.5380    5.1290    0.0000 O.co2   1  LIG1       -0.5483
@<TRIPOS>BOND
     1     1     2   ar
     2     1     6   ar
     3     1    27    1
     4     2     3   ar
     5     2    26   ar
     6     3     4   ar
     7     3    11   ar
     8     4     5   ar
     9     5     6   ar
    10     5    10    1
    11     6     7    1
    12     7     8    1
    13     8     9    1
    14     9    10    1
    15    11    12   ar
    16    12    13    1
    17    12    25   ar
    18    13    14   am
    19    13    24    2
    20    14    15    1
    21    15    16   ar
    22    15    23   ar
    23    16    17   ar
    24    17    18   ar
    25    17    21    1
    26    18    19    1
    27    18    22   ar
    28    19    20    1
    29    20    21    1
    30    22    23   ar
    31    25    26   ar
    32    27    28    1
    33    28    29    1
    34    29    30   ar
    35    29    31   ar
