@<TRIPOS>MOLECULE
37474_ChemDiv_C627-0156
 22 24 0 0 0
SMALL
GASTEIGER
Energy = 0

@<TRIPOS>ATOM
      1 C           1.4670    1.4960    0.0000 C.ar    1  LIG1        0.1575
      2 N           1.0540    2.4080    0.0000 N.ar    1  LIG1       -0.1604
      3 N           1.7960    3.0750    0.0000 N.ar    1  LIG1       -0.2281
      4 C           2.6630    2.5750    0.0000 C.ar    1  LIG1        0.0846
      5 C           2.4540    1.5960    0.0000 C.ar    1  LIG1        0.0447
      6 C           3.5330    3.0750    0.0000 C.ar    1  LIG1        0.0193
      7 C           3.5330    4.0750    0.0000 C.ar    1  LIG1        0.0031
      8 C           2.6630    4.5670    0.0000 C.ar    1  LIG1        0.0207
      9 C           1.7960    4.0750    0.0000 C.ar    1  LIG1        0.1004
     10 C           0.9630    0.6250    0.0000 C.2     1  LIG1        0.2843
     11 O           1.4670   -0.2420    0.0000 O.2     1  LIG1       -0.2666
     12 N          -0.0380    0.6250    0.0000 N.am    1  LIG1       -0.2000
     13 C          -0.5380   -0.2420    0.0000 C.3     1  LIG1        0.1202
     14 C          -1.5420   -0.2420    0.0000 C.3     1  LIG1        0.0498
     15 C          -2.0330   -1.1040    0.0000 C.ar    1  LIG1       -0.0204
     16 C          -3.0380   -1.1040    0.0000 C.ar    1  LIG1       -0.0037
     17 C          -3.5380   -1.9710    0.0000 C.ar    1  LIG1        0.0058
     18 C          -3.0380   -2.8380    0.0000 C.ar    1  LIG1        0.0252
     19 S          -3.5380   -3.7000    0.0000 S.3     1  LIG1       -0.1127
     20 C          -3.0380   -4.5670    0.0000 C.3     1  LIG1        0.0742
     21 C          -2.0330   -2.8380    0.0000 C.ar    1  LIG1        0.0058
     22 C          -1.5420   -1.9710    0.0000 C.ar    1  LIG1       -0.0037
@<TRIPOS>BOND
     1     1     2   ar
     2     1     5   ar
     3     1    10    1
     4     2     3   ar
     5     3     4   ar
     6     3     9   ar
     7     4     5   ar
     8     4     6   ar
     9     6     7   ar
    10     7     8   ar
    11     8     9   ar
    12    10    11    2
    13    10    12   am
    14    12    13    1
    15    13    14    1
    16    14    15    1
    17    15    16   ar
    18    15    22   ar
    19    16    17   ar
    20    17    18   ar
    21    18    19    1
    22    18    21   ar
    23    19    20    1
    24    21    22   ar
