@<TRIPOS>MOLECULE
37473_ChemDiv_C598-0060
 26 28 0 0 0
SMALL
GASTEIGER
Energy = 0

@<TRIPOS>ATOM
      1 C           1.4960    0.4380    0.0000 C.ar    1  LIG1        0.0242
      2 C           0.9960   -0.4290    0.0000 C.ar    1  LIG1        0.0231
      3 C           1.4960   -1.2960    0.0000 C.ar    1  LIG1        0.0815
      4 N           2.5000   -1.2960    0.0000 N.ar    1  LIG1       -0.2500
      5 C           2.9960   -0.4290    0.0000 C.ar    1  LIG1        0.0554
      6 C           2.5000    0.4380    0.0000 C.ar    1  LIG1       -0.0029
      7 C           2.9960    1.3040    0.0000 C.3     1  LIG1        0.0281
      8 C           4.0000    1.3040    0.0000 C.3     1  LIG1        0.0051
      9 C           4.5000    0.4380    0.0000 C.3     1  LIG1        0.0066
     10 C           4.0000   -0.4290    0.0000 C.3     1  LIG1        0.0455
     11 C           0.9960   -2.1580    0.0000 C.ar    1  LIG1        0.0237
     12 C          -0.0040   -2.1580    0.0000 C.ar    1  LIG1        0.0565
     13 C          -0.5040   -3.0250    0.0000 C.2     1  LIG1        0.2648
     14 O          -0.0040   -3.8920    0.0000 O.2     1  LIG1       -0.2684
     15 N          -1.5040   -3.0250    0.0000 N.am    1  LIG1       -0.2017
     16 C          -2.0040   -2.1580    0.0000 C.3     1  LIG1        0.1155
     17 C          -3.0000   -2.1580    0.0000 C.3     1  LIG1        0.0234
     18 C          -3.5040   -1.2960    0.0000 C.3     1  LIG1        0.0018
     19 C          -4.5040   -1.2960    0.0000 C.3     1  LIG1        0.0001
     20 C          -0.5040   -1.2960    0.0000 C.ar    1  LIG1        0.0047
     21 C          -0.0040   -0.4290    0.0000 C.ar    1  LIG1        0.0021
     22 S           0.9960    1.3040    0.0000 S.3     1  LIG1       -0.1078
     23 C           1.4960    2.1750    0.0000 C.3     1  LIG1        0.1036
     24 C           0.9960    3.0380    0.0000 C.2     1  LIG1        0.0616
     25 O          -0.0040    3.0380    0.0000 O.co2   1  LIG1       -0.5483
     26 O           1.4960    3.8960    0.0000 O.co2   1  LIG1       -0.5483
@<TRIPOS>BOND
     1     1     2   ar
     2     1     6   ar
     3     1    22    1
     4     2     3   ar
     5     2    21   ar
     6     3     4   ar
     7     3    11   ar
     8     4     5   ar
     9     5     6   ar
    10     5    10    1
    11     6     7    1
    12     7     8    1
    13     8     9    1
    14     9    10    1
    15    11    12   ar
    16    12    13    1
    17    12    20   ar
    18    13    14    2
    19    13    15   am
    20    15    16    1
    21    16    17    1
    22    17    18    1
    23    18    19    1
    24    20    21   ar
    25    22    23    1
    26    23    24    1
    27    24    25   ar
    28    24    26   ar
