@<TRIPOS>MOLECULE
37475_ChemDiv_C598-0070
 32 35 0 0 0
SMALL
GASTEIGER
Energy = 0

@<TRIPOS>ATOM
      1 C           2.4920    0.4380    0.0000 C.ar    1  LIG1        0.0242
      2 C           1.9920   -0.4290    0.0000 C.ar    1  LIG1        0.0231
      3 C           2.4920   -1.2920    0.0000 C.ar    1  LIG1        0.0815
      4 N           3.4960   -1.2920    0.0000 N.ar    1  LIG1       -0.2500
      5 C           3.9960   -0.4290    0.0000 C.ar    1  LIG1        0.0554
      6 C           3.4960    0.4380    0.0000 C.ar    1  LIG1       -0.0029
      7 C           3.9960    1.3040    0.0000 C.3     1  LIG1        0.0281
      8 C           4.9960    1.3040    0.0000 C.3     1  LIG1        0.0051
      9 C           5.5000    0.4380    0.0000 C.3     1  LIG1        0.0066
     10 C           4.9960   -0.4290    0.0000 C.3     1  LIG1        0.0455
     11 C           1.9920   -2.1580    0.0000 C.ar    1  LIG1        0.0236
     12 C           0.9960   -2.1580    0.0000 C.ar    1  LIG1        0.0551
     13 C           0.4960   -3.0250    0.0000 C.2     1  LIG1        0.2492
     14 N          -0.5040   -3.0250    0.0000 N.am    1  LIG1       -0.2726
     15 C          -1.0040   -3.8920    0.0000 C.3     1  LIG1        0.1153
     16 C          -2.0040   -3.8920    0.0000 C.3     1  LIG1        0.1182
     17 N          -2.5080   -3.0250    0.0000 N.am    1  LIG1       -0.2425
     18 C          -3.5080   -3.0250    0.0000 C.2     1  LIG1        0.4050
     19 O          -4.0040   -3.8920    0.0000 O.2     1  LIG1       -0.2262
     20 O          -4.0040   -2.1580    0.0000 O.3     1  LIG1       -0.4345
     21 C          -5.0040   -2.1580    0.0000 C.3     1  LIG1        0.2102
     22 C          -5.5040   -1.2920    0.0000 C.3     1  LIG1        0.0513
     23 C          -2.0040   -2.1580    0.0000 C.3     1  LIG1        0.1182
     24 C          -1.0040   -2.1580    0.0000 C.3     1  LIG1        0.1153
     25 O           0.9960   -3.8920    0.0000 O.2     1  LIG1       -0.2699
     26 C           0.4960   -1.2920    0.0000 C.ar    1  LIG1        0.0046
     27 C           0.9960   -0.4290    0.0000 C.ar    1  LIG1        0.0021
     28 S           1.9920    1.3040    0.0000 S.3     1  LIG1       -0.1078
     29 C           2.4920    2.1750    0.0000 C.3     1  LIG1        0.1036
     30 C           1.9920    3.0380    0.0000 C.2     1  LIG1        0.0616
     31 O           0.9960    3.0380    0.0000 O.co2   1  LIG1       -0.5483
     32 O           2.4920    3.8960    0.0000 O.co2   1  LIG1       -0.5483
@<TRIPOS>BOND
     1     1     2   ar
     2     1     6   ar
     3     1    28    1
     4     2     3   ar
     5     2    27   ar
     6     3     4   ar
     7     3    11   ar
     8     4     5   ar
     9     5     6   ar
    10     5    10    1
    11     6     7    1
    12     7     8    1
    13     8     9    1
    14     9    10    1
    15    11    12   ar
    16    12    13    1
    17    12    26   ar
    18    13    14   am
    19    13    25    2
    20    14    15    1
    21    14    24    1
    22    15    16    1
    23    16    17    1
    24    17    18   am
    25    17    23    1
    26    18    19    2
    27    18    20    1
    28    20    21    1
    29    21    22    1
    30    23    24    1
    31    26    27   ar
    32    28    29    1
    33    29    30    1
    34    30    31   ar
    35    30    32   ar
