@<TRIPOS>MOLECULE
37470_ChemDiv_C567-0147
 32 36 0 0 0
SMALL
GASTEIGER
Energy = 0

@<TRIPOS>ATOM
      1 C          -0.0830    1.5040    0.0000 C.ar    1  LIG1        0.0950
      2 C          -0.9540    2.0170    0.0000 C.ar    1  LIG1        0.2016
      3 C          -1.8210    1.5040    0.0000 C.ar    1  LIG1        0.0581
      4 C          -1.8290    0.4920    0.0000 C.ar    1  LIG1        0.0665
      5 N          -0.9630   -0.0130    0.0000 N.ar    1  LIG1       -0.3215
      6 C          -0.0830    0.4920    0.0000 C.ar    1  LIG1        0.0825
      7 C          -0.9630   -1.0040    0.0000 C.3     1  LIG1        0.1328
      8 C          -0.1000   -1.5040    0.0000 C.ar    1  LIG1        0.0004
      9 C           0.7540   -1.0040    0.0000 C.ar    1  LIG1       -0.0015
     10 C           1.6170   -1.5040    0.0000 C.ar    1  LIG1        0.0111
     11 C           1.6170   -2.5040    0.0000 C.ar    1  LIG1        0.0577
     12 CL          2.4790   -3.0040    0.0000 Cl      1  LIG1       -0.0822
     13 C           0.7540   -3.0040    0.0000 C.ar    1  LIG1        0.0111
     14 C          -0.1080   -2.5040    0.0000 C.ar    1  LIG1       -0.0015
     15 C          -2.6960    0.0080    0.0000 C.ar    1  LIG1        0.0575
     16 C          -3.5580    0.5080    0.0000 C.ar    1  LIG1        0.1779
     17 C          -3.5580    1.5040    0.0000 C.ar    1  LIG1        0.1766
     18 C          -2.6960    2.0040    0.0000 C.ar    1  LIG1        0.0448
     19 O          -4.5080    1.8210    0.0000 O.3     1  LIG1       -0.4346
     20 C          -5.0960    1.0040    0.0000 C.3     1  LIG1        0.4294
     21 O          -4.5080    0.1880    0.0000 O.3     1  LIG1       -0.4346
     22 O          -0.9540    3.0080    0.0000 O.2     1  LIG1       -0.2864
     23 C           0.7880    2.0040    0.0000 C.2     1  LIG1        0.2001
     24 C           1.6460    1.5040    0.0000 C.ar    1  LIG1        0.0393
     25 C           2.5040    2.0040    0.0000 C.ar    1  LIG1        0.0063
     26 C           3.3630    1.5040    0.0000 C.ar    1  LIG1        0.0370
     27 C           3.3630    0.4920    0.0000 C.ar    1  LIG1        0.1387
     28 C           2.4960    0.0080    0.0000 C.ar    1  LIG1        0.0370
     29 C           1.6290    0.5080    0.0000 C.ar    1  LIG1        0.0063
     30 O           4.2210   -0.0130    0.0000 O.3     1  LIG1       -0.4714
     31 C           5.0920    0.4920    0.0000 C.3     1  LIG1        0.2525
     32 O           0.7880    2.9920    0.0000 O.2     1  LIG1       -0.2864
@<TRIPOS>BOND
     1     1     2   ar
     2     1     6   ar
     3     1    23    1
     4     2     3   ar
     5     2    22    2
     6     3     4   ar
     7     3    18   ar
     8     4     5   ar
     9     4    15   ar
    10     5     6   ar
    11     5     7    1
    12     7     8    1
    13     8     9   ar
    14     8    14   ar
    15     9    10   ar
    16    10    11   ar
    17    11    12    1
    18    11    13   ar
    19    13    14   ar
    20    15    16   ar
    21    16    17   ar
    22    16    21    1
    23    17    18   ar
    24    17    19    1
    25    19    20    1
    26    20    21    1
    27    23    24    1
    28    23    32    2
    29    24    25   ar
    30    24    29   ar
    31    25    26   ar
    32    26    27   ar
    33    27    28   ar
    34    27    30    1
    35    28    29   ar
    36    30    31    1
