@<TRIPOS>MOLECULE
37484_ChemDiv_C627-0071
 24 27 0 0 0
SMALL
GASTEIGER
Energy = 0

@<TRIPOS>ATOM
      1 C           2.2170   -0.6670    0.0000 C.ar    1  LIG1        0.1561
      2 N           1.8040    0.2420    0.0000 N.ar    1  LIG1       -0.1604
      3 N           2.5460    0.9130    0.0000 N.ar    1  LIG1       -0.2281
      4 C           3.4130    0.4130    0.0000 C.ar    1  LIG1        0.0846
      5 C           3.2040   -0.5670    0.0000 C.ar    1  LIG1        0.0446
      6 C           4.2830    0.9130    0.0000 C.ar    1  LIG1        0.0193
      7 C           4.2830    1.9130    0.0000 C.ar    1  LIG1        0.0031
      8 C           3.4130    2.4080    0.0000 C.ar    1  LIG1        0.0207
      9 C           2.5460    1.9130    0.0000 C.ar    1  LIG1        0.1004
     10 C           1.7130   -1.5380    0.0000 C.2     1  LIG1        0.2689
     11 N           0.7130   -1.5380    0.0000 N.am    1  LIG1       -0.2632
     12 C           0.2130   -0.6670    0.0000 C.3     1  LIG1        0.1567
     13 C          -0.7880   -0.6670    0.0000 C.3     1  LIG1        0.1610
     14 N          -1.2830   -1.5380    0.0000 N.4     1  LIG1        0.3834
     15 C          -2.2880   -1.5380    0.0000 C.3     1  LIG1        0.1663
     16 C          -2.7830   -0.6670    0.0000 C.ar    1  LIG1        0.0344
     17 C          -3.7830   -0.6670    0.0000 C.ar    1  LIG1        0.0014
     18 C          -4.2880    0.1960    0.0000 C.ar    1  LIG1       -0.0001
     19 C          -3.7830    1.0630    0.0000 C.ar    1  LIG1       -0.0000
     20 C          -2.7830    1.0630    0.0000 C.ar    1  LIG1       -0.0001
     21 C          -2.2880    0.1960    0.0000 C.ar    1  LIG1        0.0014
     22 C          -0.7880   -2.4040    0.0000 C.3     1  LIG1        0.1610
     23 C           0.2130   -2.4040    0.0000 C.3     1  LIG1        0.1567
     24 O           2.2170   -2.4040    0.0000 O.2     1  LIG1       -0.2682
@<TRIPOS>BOND
     1     1     2   ar
     2     1     5   ar
     3     1    10    1
     4     2     3   ar
     5     3     4   ar
     6     3     9   ar
     7     4     5   ar
     8     4     6   ar
     9     6     7   ar
    10     7     8   ar
    11     8     9   ar
    12    10    11   am
    13    10    24    2
    14    11    12    1
    15    11    23    1
    16    12    13    1
    17    13    14    1
    18    14    15    1
    19    14    22    1
    20    15    16    1
    21    16    17   ar
    22    16    21   ar
    23    17    18   ar
    24    18    19   ar
    25    19    20   ar
    26    20    21   ar
    27    22    23    1
