@<TRIPOS>MOLECULE
37482_ChemDiv_C627-0051
 25 28 0 0 0
SMALL
GASTEIGER
Energy = 0

@<TRIPOS>ATOM
      1 C           2.2130   -0.2380    0.0000 C.ar    1  LIG1        0.1561
      2 N           1.8040    0.6750    0.0000 N.ar    1  LIG1       -0.1604
      3 N           2.5460    1.3420    0.0000 N.ar    1  LIG1       -0.2281
      4 C           3.4130    0.8420    0.0000 C.ar    1  LIG1        0.0846
      5 C           3.2040   -0.1330    0.0000 C.ar    1  LIG1        0.0446
      6 C           4.2830    1.3420    0.0000 C.ar    1  LIG1        0.0193
      7 C           4.2830    2.3460    0.0000 C.ar    1  LIG1        0.0031
      8 C           3.4130    2.8380    0.0000 C.ar    1  LIG1        0.0207
      9 C           2.5460    2.3460    0.0000 C.ar    1  LIG1        0.1004
     10 C           1.7130   -1.1040    0.0000 C.2     1  LIG1        0.2686
     11 N           0.7130   -1.1040    0.0000 N.am    1  LIG1       -0.2713
     12 C           0.2130   -1.9710    0.0000 C.3     1  LIG1        0.1152
     13 C          -0.7880   -1.9710    0.0000 C.3     1  LIG1        0.1123
     14 N          -1.2830   -1.1040    0.0000 N.pl3   1  LIG1       -0.3043
     15 C          -2.2880   -1.1040    0.0000 C.ar    1  LIG1        0.0436
     16 C          -2.7830   -1.9710    0.0000 C.ar    1  LIG1       -0.0085
     17 C          -3.7830   -1.9710    0.0000 C.ar    1  LIG1       -0.0034
     18 C          -4.2880   -1.1040    0.0000 C.ar    1  LIG1       -0.0045
     19 C          -3.7830   -0.2380    0.0000 C.ar    1  LIG1       -0.0206
     20 C          -2.7830   -0.2380    0.0000 C.ar    1  LIG1        0.0099
     21 C          -4.2880    0.6290    0.0000 C.3     1  LIG1        0.0311
     22 C          -2.2880   -2.8330    0.0000 C.3     1  LIG1        0.0323
     23 C          -0.7880   -0.2380    0.0000 C.3     1  LIG1        0.1123
     24 C           0.2130   -0.2380    0.0000 C.3     1  LIG1        0.1152
     25 O           2.2130   -1.9710    0.0000 O.2     1  LIG1       -0.2682
@<TRIPOS>BOND
     1     1     2   ar
     2     1     5   ar
     3     1    10    1
     4     2     3   ar
     5     3     4   ar
     6     3     9   ar
     7     4     5   ar
     8     4     6   ar
     9     6     7   ar
    10     7     8   ar
    11     8     9   ar
    12    10    11   am
    13    10    25    2
    14    11    12    1
    15    11    24    1
    16    12    13    1
    17    13    14    1
    18    14    15    1
    19    14    23    1
    20    15    16   ar
    21    15    20   ar
    22    16    17   ar
    23    16    22    1
    24    17    18   ar
    25    18    19   ar
    26    19    20   ar
    27    19    21    1
    28    23    24    1
