@<TRIPOS>MOLECULE
37488_ChemDiv_C627-0081
 23 26 0 0 0
SMALL
GASTEIGER
Energy = 0

@<TRIPOS>ATOM
      1 C           2.2130   -0.6670    0.0000 C.ar    1  LIG1        0.1561
      2 N           1.8040    0.2420    0.0000 N.ar    1  LIG1       -0.1604
      3 N           2.5460    0.9130    0.0000 N.ar    1  LIG1       -0.2281
      4 C           3.4130    0.4130    0.0000 C.ar    1  LIG1        0.0846
      5 C           3.2040   -0.5670    0.0000 C.ar    1  LIG1        0.0446
      6 C           4.2790    0.9130    0.0000 C.ar    1  LIG1        0.0193
      7 C           4.2790    1.9130    0.0000 C.ar    1  LIG1        0.0031
      8 C           3.4130    2.4080    0.0000 C.ar    1  LIG1        0.0207
      9 C           2.5460    1.9130    0.0000 C.ar    1  LIG1        0.1004
     10 C           1.7130   -1.5380    0.0000 C.2     1  LIG1        0.2686
     11 N           0.7130   -1.5380    0.0000 N.am    1  LIG1       -0.2713
     12 C           0.2130   -0.6670    0.0000 C.3     1  LIG1        0.1152
     13 C          -0.7880   -0.6670    0.0000 C.3     1  LIG1        0.1137
     14 N          -1.2830   -1.5380    0.0000 N.pl3   1  LIG1       -0.2897
     15 C          -2.2880   -1.5380    0.0000 C.ar    1  LIG1        0.1318
     16 N          -2.7830   -2.4040    0.0000 N.ar    1  LIG1       -0.2292
     17 C          -3.7830   -2.4040    0.0000 C.ar    1  LIG1        0.1003
     18 C          -4.2830   -1.5380    0.0000 C.ar    1  LIG1        0.0208
     19 C          -3.7830   -0.6670    0.0000 C.ar    1  LIG1        0.0045
     20 C          -2.7830   -0.6670    0.0000 C.ar    1  LIG1        0.0343
     21 C          -0.7880   -2.4040    0.0000 C.3     1  LIG1        0.1137
     22 C           0.2130   -2.4040    0.0000 C.3     1  LIG1        0.1152
     23 O           2.2130   -2.4040    0.0000 O.2     1  LIG1       -0.2682
@<TRIPOS>BOND
     1     1     2   ar
     2     1     5   ar
     3     1    10    1
     4     2     3   ar
     5     3     4   ar
     6     3     9   ar
     7     4     5   ar
     8     4     6   ar
     9     6     7   ar
    10     7     8   ar
    11     8     9   ar
    12    10    11   am
    13    10    23    2
    14    11    12    1
    15    11    22    1
    16    12    13    1
    17    13    14    1
    18    14    15    1
    19    14    21    1
    20    15    16   ar
    21    15    20   ar
    22    16    17   ar
    23    17    18   ar
    24    18    19   ar
    25    19    20   ar
    26    21    22    1
