@<TRIPOS>MOLECULE
37485_ChemDiv_C618-0365
 31 35 0 0 0
SMALL
GASTEIGER
Energy = 0

@<TRIPOS>ATOM
      1 C           1.9960    0.0000    0.0000 C.ar    1  LIG1        0.0243
      2 C           2.9960    0.0000    0.0000 C.ar    1  LIG1        0.0231
      3 C           3.5000    0.8710    0.0000 C.ar    1  LIG1        0.0822
      4 N           2.9960    1.7330    0.0000 N.ar    1  LIG1       -0.2499
      5 C           1.9960    1.7330    0.0000 C.ar    1  LIG1        0.0554
      6 C           1.5000    0.8710    0.0000 C.ar    1  LIG1       -0.0029
      7 C           0.4960    0.8710    0.0000 C.3     1  LIG1        0.0281
      8 C           0.0000    1.7330    0.0000 C.3     1  LIG1        0.0051
      9 C           0.4960    2.6000    0.0000 C.3     1  LIG1        0.0066
     10 C           1.5000    2.6000    0.0000 C.3     1  LIG1        0.0455
     11 C           4.4960    0.8710    0.0000 C.ar    1  LIG1        0.0305
     12 C           5.0000    0.0000    0.0000 C.ar    1  LIG1        0.0592
     13 C           4.4960   -0.8630    0.0000 C.ar    1  LIG1        0.0115
     14 C           3.5000   -0.8630    0.0000 C.ar    1  LIG1        0.0028
     15 CL          6.0000    0.0000    0.0000 Cl      1  LIG1       -0.0822
     16 S           1.5000   -0.8630    0.0000 S.3     1  LIG1       -0.1041
     17 C           0.4960   -0.8630    0.0000 C.3     1  LIG1        0.1471
     18 C           0.0000   -1.7290    0.0000 C.2     1  LIG1        0.2371
     19 N          -1.0040   -1.7290    0.0000 N.am    1  LIG1       -0.2753
     20 C          -1.5040   -0.8630    0.0000 C.3     1  LIG1        0.1148
     21 C          -2.5000   -0.8630    0.0000 C.3     1  LIG1        0.1123
     22 N          -3.0000   -1.7290    0.0000 N.pl3   1  LIG1       -0.3041
     23 C          -2.5000   -2.5960    0.0000 C.3     1  LIG1        0.1123
     24 C          -1.5040   -2.5960    0.0000 C.3     1  LIG1        0.1148
     25 C          -4.0040   -1.7290    0.0000 C.ar    1  LIG1        0.0479
     26 C          -4.5040   -2.5960    0.0000 C.ar    1  LIG1        0.0145
     27 C          -5.5000   -2.5960    0.0000 C.ar    1  LIG1        0.0013
     28 C          -6.0000   -1.7290    0.0000 C.ar    1  LIG1        0.0001
     29 C          -5.5000   -0.8630    0.0000 C.ar    1  LIG1        0.0013
     30 C          -4.5040   -0.8630    0.0000 C.ar    1  LIG1        0.0145
     31 O           0.4960   -2.5960    0.0000 O.2     1  LIG1       -0.2739
@<TRIPOS>BOND
     1     1     2   ar
     2     1     6   ar
     3     1    16    1
     4     2     3   ar
     5     2    14   ar
     6     3     4   ar
     7     3    11   ar
     8     4     5   ar
     9     5     6   ar
    10     5    10    1
    11     6     7    1
    12     7     8    1
    13     8     9    1
    14     9    10    1
    15    11    12   ar
    16    12    13   ar
    17    12    15    1
    18    13    14   ar
    19    16    17    1
    20    17    18    1
    21    18    19   am
    22    18    31    2
    23    19    20    1
    24    19    24    1
    25    20    21    1
    26    21    22    1
    27    22    23    1
    28    22    25    1
    29    23    24    1
    30    25    26   ar
    31    25    30   ar
    32    26    27   ar
    33    27    28   ar
    34    28    29   ar
    35    29    30   ar
