@<TRIPOS>MOLECULE
37487_ChemDiv_C618-0380
 28 30 0 0 0
SMALL
GASTEIGER
Energy = 0

@<TRIPOS>ATOM
      1 C           1.7420    0.0000    0.0000 C.ar    1  LIG1        0.0243
      2 C           2.7460    0.0000    0.0000 C.ar    1  LIG1        0.0231
      3 C           3.2500    0.8710    0.0000 C.ar    1  LIG1        0.0822
      4 N           2.7460    1.7330    0.0000 N.ar    1  LIG1       -0.2499
      5 C           1.7420    1.7330    0.0000 C.ar    1  LIG1        0.0554
      6 C           1.2460    0.8710    0.0000 C.ar    1  LIG1       -0.0029
      7 C           0.2460    0.8710    0.0000 C.3     1  LIG1        0.0281
      8 C          -0.2500    1.7330    0.0000 C.3     1  LIG1        0.0051
      9 C           0.2460    2.6000    0.0000 C.3     1  LIG1        0.0066
     10 C           1.2460    2.6000    0.0000 C.3     1  LIG1        0.0455
     11 C           4.2460    0.8710    0.0000 C.ar    1  LIG1        0.0305
     12 C           4.7460    0.0000    0.0000 C.ar    1  LIG1        0.0592
     13 C           4.2460   -0.8630    0.0000 C.ar    1  LIG1        0.0115
     14 C           3.2500   -0.8630    0.0000 C.ar    1  LIG1        0.0028
     15 CL          5.7500    0.0000    0.0000 Cl      1  LIG1       -0.0822
     16 S           1.2460   -0.8630    0.0000 S.3     1  LIG1       -0.1041
     17 C           0.2460   -0.8630    0.0000 C.3     1  LIG1        0.1486
     18 C          -0.2500   -1.7290    0.0000 C.2     1  LIG1        0.2527
     19 O           0.2460   -2.5960    0.0000 O.2     1  LIG1       -0.2724
     20 N          -1.2540   -1.7290    0.0000 N.am    1  LIG1       -0.2045
     21 C          -1.7540   -0.8630    0.0000 C.3     1  LIG1        0.1213
     22 C          -2.7540   -0.8630    0.0000 C.3     1  LIG1        0.0861
     23 C          -3.2540    0.0000    0.0000 C.3     1  LIG1        0.1404
     24 N          -4.2540    0.0000    0.0000 N.4     1  LIG1        0.3773
     25 C          -4.7580   -0.8630    0.0000 C.3     1  LIG1        0.1388
     26 C          -5.7540   -0.8630    0.0000 C.3     1  LIG1        0.0688
     27 C          -4.7580    0.8710    0.0000 C.3     1  LIG1        0.1388
     28 C          -5.7540    0.8710    0.0000 C.3     1  LIG1        0.0688
@<TRIPOS>BOND
     1     1     2   ar
     2     1     6   ar
     3     1    16    1
     4     2     3   ar
     5     2    14   ar
     6     3     4   ar
     7     3    11   ar
     8     4     5   ar
     9     5     6   ar
    10     5    10    1
    11     6     7    1
    12     7     8    1
    13     8     9    1
    14     9    10    1
    15    11    12   ar
    16    12    13   ar
    17    12    15    1
    18    13    14   ar
    19    16    17    1
    20    17    18    1
    21    18    19    2
    22    18    20   am
    23    20    21    1
    24    21    22    1
    25    22    23    1
    26    23    24    1
    27    24    25    1
    28    24    27    1
    29    25    26    1
    30    27    28    1
