@<TRIPOS>MOLECULE
37481_ChemDiv_C618-0356
 24 27 0 0 0
SMALL
GASTEIGER
Energy = 0

@<TRIPOS>ATOM
      1 C           0.2630    0.0000    0.0000 C.ar    1  LIG1        0.0243
      2 C           1.2670    0.0000    0.0000 C.ar    1  LIG1        0.0231
      3 C           1.7670    0.8710    0.0000 C.ar    1  LIG1        0.0822
      4 N           1.2670    1.7330    0.0000 N.ar    1  LIG1       -0.2499
      5 C           0.2630    1.7330    0.0000 C.ar    1  LIG1        0.0554
      6 C          -0.2330    0.8710    0.0000 C.ar    1  LIG1       -0.0029
      7 C          -1.2380    0.8710    0.0000 C.3     1  LIG1        0.0281
      8 C          -1.7330    1.7330    0.0000 C.3     1  LIG1        0.0051
      9 C          -1.2380    2.6000    0.0000 C.3     1  LIG1        0.0066
     10 C          -0.2330    2.6000    0.0000 C.3     1  LIG1        0.0455
     11 C           2.7630    0.8710    0.0000 C.ar    1  LIG1        0.0305
     12 C           3.2670    0.0000    0.0000 C.ar    1  LIG1        0.0592
     13 C           2.7630   -0.8630    0.0000 C.ar    1  LIG1        0.0115
     14 C           1.7670   -0.8630    0.0000 C.ar    1  LIG1        0.0028
     15 CL          4.2710    0.0000    0.0000 Cl      1  LIG1       -0.0822
     16 S          -0.2330   -0.8630    0.0000 S.3     1  LIG1       -0.1041
     17 C          -1.2380   -0.8630    0.0000 C.3     1  LIG1        0.1471
     18 C          -1.7330   -1.7290    0.0000 C.2     1  LIG1        0.2370
     19 N          -2.7380   -1.7290    0.0000 N.am    1  LIG1       -0.2788
     20 C          -3.3250   -2.5330    0.0000 C.3     1  LIG1        0.0935
     21 C          -4.2750   -2.2290    0.0000 C.3     1  LIG1        0.0233
     22 C          -4.2750   -1.2290    0.0000 C.3     1  LIG1        0.0233
     23 C          -3.3250   -0.9210    0.0000 C.3     1  LIG1        0.0935
     24 O          -1.2380   -2.5960    0.0000 O.2     1  LIG1       -0.2739
@<TRIPOS>BOND
     1     1     2   ar
     2     1     6   ar
     3     1    16    1
     4     2     3   ar
     5     2    14   ar
     6     3     4   ar
     7     3    11   ar
     8     4     5   ar
     9     5     6   ar
    10     5    10    1
    11     6     7    1
    12     7     8    1
    13     8     9    1
    14     9    10    1
    15    11    12   ar
    16    12    13   ar
    17    12    15    1
    18    13    14   ar
    19    16    17    1
    20    17    18    1
    21    18    19   am
    22    18    24    2
    23    19    20    1
    24    19    23    1
    25    20    21    1
    26    21    22    1
    27    22    23    1
