@<TRIPOS>MOLECULE
37493_ChemDiv_C791-0090
 27 30 0 0 0
SMALL
GASTEIGER
Energy = 0

@<TRIPOS>ATOM
      1 C          -2.5790    2.2210    0.0000 C.2     1  LIG1        0.2695
      2 N          -1.6040    2.0380    0.0000 N.am    1  LIG1       -0.1749
      3 C          -1.1500    1.0920    0.0000 C.ar    1  LIG1        0.0798
      4 C          -1.6250    0.1750    0.0000 C.ar    1  LIG1        0.0448
      5 S          -2.5920    0.0080    0.0000 S.3     1  LIG1       -0.0855
      6 C          -3.2000    0.6000    0.0000 C.ar    1  LIG1        0.0339
      7 C          -3.2000    1.6130    0.0000 C.ar    1  LIG1        0.0614
      8 C          -4.0750    2.1130    0.0000 C.ar    1  LIG1        0.0051
      9 C          -4.9420    1.6130    0.0000 C.ar    1  LIG1        0.0002
     10 C          -4.9420    0.6000    0.0000 C.ar    1  LIG1        0.0005
     11 C          -4.0750    0.1000    0.0000 C.ar    1  LIG1        0.0066
     12 C          -1.0710   -0.6790    0.0000 C.ar    1  LIG1        0.0079
     13 C          -0.0420   -0.6330    0.0000 C.ar    1  LIG1        0.0052
     14 C           0.4210    0.2880    0.0000 C.ar    1  LIG1        0.0564
     15 C           1.4250    0.3420    0.0000 C.2     1  LIG1        0.2650
     16 N           1.9830   -0.4960    0.0000 N.am    1  LIG1       -0.1955
     17 C           1.9830   -1.4960    0.0000 C.3     1  LIG1        0.1717
     18 C           2.8540   -1.9960    0.0000 C.3     1  LIG1        0.1092
     19 N           3.7710   -1.5880    0.0000 N.4     1  LIG1        0.3743
     20 C           4.4420   -2.3330    0.0000 C.3     1  LIG1        0.1385
     21 C           3.9380   -3.2000    0.0000 C.3     1  LIG1        0.0687
     22 C           2.9580   -2.9920    0.0000 C.3     1  LIG1        0.0647
     23 C           3.9830   -0.6000    0.0000 C.3     1  LIG1        0.1385
     24 C           4.9380   -0.2960    0.0000 C.3     1  LIG1        0.0688
     25 O           1.8830    1.2420    0.0000 O.2     1  LIG1       -0.2684
     26 C          -0.1330    1.1500    0.0000 C.ar    1  LIG1        0.0217
     27 O          -2.8380    3.2040    0.0000 O.2     1  LIG1       -0.2680
@<TRIPOS>BOND
     1     1     2   am
     2     1     7    1
     3     1    27    2
     4     2     3    1
     5     3     4   ar
     6     3    26   ar
     7     4     5    1
     8     4    12   ar
     9     5     6    1
    10     6     7   ar
    11     6    11   ar
    12     7     8   ar
    13     8     9   ar
    14     9    10   ar
    15    10    11   ar
    16    12    13   ar
    17    13    14   ar
    18    14    15    1
    19    14    26   ar
    20    15    16   am
    21    15    25    2
    22    16    17    1
    23    17    18    1
    24    18    19    1
    25    18    22    1
    26    19    20    1
    27    19    23    1
    28    20    21    1
    29    21    22    1
    30    23    24    1
