@<TRIPOS>MOLECULE
37490_ChemDiv_C567-0257
 33 37 0 0 0
SMALL
GASTEIGER
Energy = 0

@<TRIPOS>ATOM
      1 C          -0.5210    1.4670    0.0000 C.ar    1  LIG1        0.0950
      2 C          -1.4000    1.9710    0.0000 C.ar    1  LIG1        0.2016
      3 C          -2.2830    1.4670    0.0000 C.ar    1  LIG1        0.0581
      4 C          -2.2960    0.4710    0.0000 C.ar    1  LIG1        0.0665
      5 N          -1.4000   -0.0170    0.0000 N.ar    1  LIG1       -0.3214
      6 C          -0.5210    0.4710    0.0000 C.ar    1  LIG1        0.0825
      7 C          -1.4000   -0.9830    0.0000 C.3     1  LIG1        0.1350
      8 C          -0.5420   -1.4790    0.0000 C.ar    1  LIG1        0.0279
      9 C          -0.5500   -2.4580    0.0000 C.ar    1  LIG1        0.1380
     10 F          -1.3830   -2.9540    0.0000 F       1  LIG1       -0.2044
     11 C           0.3330   -2.9580    0.0000 C.ar    1  LIG1        0.0294
     12 C           1.2080   -2.4580    0.0000 C.ar    1  LIG1        0.0023
     13 C           1.2080   -1.4790    0.0000 C.ar    1  LIG1       -0.0001
     14 C           0.3330   -0.9960    0.0000 C.ar    1  LIG1       -0.0002
     15 C          -3.1710   -0.0080    0.0000 C.ar    1  LIG1        0.0575
     16 C          -4.0580    0.4880    0.0000 C.ar    1  LIG1        0.1779
     17 C          -4.0580    1.4670    0.0000 C.ar    1  LIG1        0.1766
     18 C          -3.1710    1.9540    0.0000 C.ar    1  LIG1        0.0448
     19 O          -5.0210    1.7790    0.0000 O.3     1  LIG1       -0.4346
     20 C          -5.6290    0.9750    0.0000 C.3     1  LIG1        0.4294
     21 O          -5.0210    0.1830    0.0000 O.3     1  LIG1       -0.4346
     22 O          -1.4000    2.9630    0.0000 O.2     1  LIG1       -0.2864
     23 C           0.3630    1.9540    0.0000 C.2     1  LIG1        0.2001
     24 C           1.2420    1.4670    0.0000 C.ar    1  LIG1        0.0393
     25 C           2.1130    1.9540    0.0000 C.ar    1  LIG1        0.0063
     26 C           2.9830    1.4670    0.0000 C.ar    1  LIG1        0.0370
     27 C           2.9830    0.4710    0.0000 C.ar    1  LIG1        0.1386
     28 C           2.0960   -0.0080    0.0000 C.ar    1  LIG1        0.0370
     29 C           1.2250    0.4880    0.0000 C.ar    1  LIG1        0.0063
     30 O           3.8580   -0.0170    0.0000 O.3     1  LIG1       -0.4755
     31 C           4.7460    0.4710    0.0000 C.3     1  LIG1        0.2055
     32 C           5.6250   -0.0170    0.0000 C.3     1  LIG1        0.0512
     33 O           0.3630    2.9460    0.0000 O.2     1  LIG1       -0.2864
@<TRIPOS>BOND
     1     1     2   ar
     2     1     6   ar
     3     1    23    1
     4     2     3   ar
     5     2    22    2
     6     3     4   ar
     7     3    18   ar
     8     4     5   ar
     9     4    15   ar
    10     5     6   ar
    11     5     7    1
    12     7     8    1
    13     8     9   ar
    14     8    14   ar
    15     9    10    1
    16     9    11   ar
    17    11    12   ar
    18    12    13   ar
    19    13    14   ar
    20    15    16   ar
    21    16    17   ar
    22    16    21    1
    23    17    18   ar
    24    17    19    1
    25    19    20    1
    26    20    21    1
    27    23    24    1
    28    23    33    2
    29    24    25   ar
    30    24    29   ar
    31    25    26   ar
    32    26    27   ar
    33    27    28   ar
    34    27    30    1
    35    28    29   ar
    36    30    31    1
    37    31    32    1
