@<TRIPOS>MOLECULE
37491_ChemDiv_C530-1866
 35 39 0 0 0
SMALL
GASTEIGER
Energy = 0

@<TRIPOS>ATOM
      1 S           0.0630    1.4000    0.0000 S.O2    1  LIG1        0.0288
      2 C          -0.2380    0.4460    0.0000 C.ar    1  LIG1        0.1239
      3 C           0.3330   -0.3750    0.0000 C.ar    1  LIG1        0.0720
      4 N           1.3040   -0.4500    0.0000 N.am    1  LIG1       -0.2496
      5 C           1.9960    0.2750    0.0000 C.2     1  LIG1        0.2543
      6 C           1.8500    1.2710    0.0000 C.ar    1  LIG1        0.0714
      7 C           0.9880    1.7710    0.0000 C.ar    1  LIG1        0.1147
      8 C           0.9880    2.7710    0.0000 C.ar    1  LIG1        0.0189
      9 C           1.8500    3.2670    0.0000 C.ar    1  LIG1        0.0013
     10 C           2.7130    2.7710    0.0000 C.ar    1  LIG1        0.0002
     11 C           2.7130    1.7710    0.0000 C.ar    1  LIG1        0.0058
     12 O           2.9540   -0.0380    0.0000 O.2     1  LIG1       -0.2695
     13 C           1.6710   -1.3750    0.0000 C.3     1  LIG1        0.1251
     14 C           2.6750   -1.5250    0.0000 C.ar    1  LIG1       -0.0020
     15 C           3.0580   -2.4580    0.0000 C.ar    1  LIG1       -0.0026
     16 C           4.0420   -2.6290    0.0000 C.ar    1  LIG1       -0.0003
     17 C           4.6580   -1.8670    0.0000 C.ar    1  LIG1       -0.0000
     18 C           4.3000   -0.9040    0.0000 C.ar    1  LIG1       -0.0003
     19 C           3.3330   -0.7630    0.0000 C.ar    1  LIG1       -0.0026
     20 C          -0.1000   -1.2790    0.0000 C.ar    1  LIG1        0.0207
     21 C          -1.1040   -1.3580    0.0000 C.ar    1  LIG1        0.0549
     22 C          -1.5380   -2.2750    0.0000 C.2     1  LIG1        0.2491
     23 N          -2.5330   -2.3580    0.0000 N.am    1  LIG1       -0.2760
     24 C          -3.1000   -1.5250    0.0000 C.3     1  LIG1        0.0757
     25 C          -4.0960   -1.6000    0.0000 C.3     1  LIG1        0.0198
     26 C          -4.6630   -0.7790    0.0000 C.3     1  LIG1        0.0017
     27 C          -4.2460    0.1250    0.0000 C.3     1  LIG1        0.0001
     28 C          -3.2460    0.2040    0.0000 C.3     1  LIG1        0.0017
     29 C          -2.6880   -0.6170    0.0000 C.3     1  LIG1        0.0198
     30 C          -2.9580   -3.2630    0.0000 C.3     1  LIG1        0.1151
     31 O          -0.9670   -3.0960    0.0000 O.2     1  LIG1       -0.2699
     32 C          -1.6750   -0.5290    0.0000 C.ar    1  LIG1        0.0059
     33 C          -1.2330    0.3710    0.0000 C.ar    1  LIG1        0.0202
     34 O          -0.9170    1.1710    0.0000 O.2     1  LIG1       -0.1642
     35 O           0.0920    2.3960    0.0000 O.2     1  LIG1       -0.1642
@<TRIPOS>BOND
     1     1     2    1
     2     1     7    1
     3     1    34    2
     4     1    35    2
     5     2     3   ar
     6     2    33   ar
     7     3     4    1
     8     3    20   ar
     9     4     5   am
    10     4    13    1
    11     5     6    1
    12     5    12    2
    13     6     7   ar
    14     6    11   ar
    15     7     8   ar
    16     8     9   ar
    17     9    10   ar
    18    10    11   ar
    19    13    14    1
    20    14    15   ar
    21    14    19   ar
    22    15    16   ar
    23    16    17   ar
    24    17    18   ar
    25    18    19   ar
    26    20    21   ar
    27    21    22    1
    28    21    32   ar
    29    22    23   am
    30    22    31    2
    31    23    24    1
    32    23    30    1
    33    24    25    1
    34    24    29    1
    35    25    26    1
    36    26    27    1
    37    27    28    1
    38    28    29    1
    39    32    33   ar
