@<TRIPOS>MOLECULE
37494_ChemDiv_C567-0407
 30 34 0 0 0
SMALL
GASTEIGER
Energy = 0

@<TRIPOS>ATOM
      1 C           0.7790    1.5040    0.0000 C.ar    1  LIG1        0.0950
      2 C          -0.0920    2.0080    0.0000 C.ar    1  LIG1        0.2016
      3 C          -0.9540    1.5040    0.0000 C.ar    1  LIG1        0.0581
      4 C          -0.9630    0.4920    0.0000 C.ar    1  LIG1        0.0665
      5 N          -0.0960   -0.0040    0.0000 N.ar    1  LIG1       -0.3215
      6 C           0.7790    0.4920    0.0000 C.ar    1  LIG1        0.0825
      7 C          -0.0960   -1.0040    0.0000 C.3     1  LIG1        0.1328
      8 C           0.7670   -1.5040    0.0000 C.ar    1  LIG1        0.0004
      9 C           0.7540   -2.5040    0.0000 C.ar    1  LIG1       -0.0027
     10 C           1.6170   -3.0000    0.0000 C.ar    1  LIG1       -0.0045
     11 C           2.4790   -2.5080    0.0000 C.ar    1  LIG1       -0.0219
     12 C           2.4790   -1.5040    0.0000 C.ar    1  LIG1       -0.0045
     13 C           1.6170   -1.0040    0.0000 C.ar    1  LIG1       -0.0027
     14 C           3.3420   -3.0080    0.0000 C.3     1  LIG1        0.0310
     15 C          -1.8250    0.0000    0.0000 C.ar    1  LIG1        0.0575
     16 C          -2.6880    0.4960    0.0000 C.ar    1  LIG1        0.1779
     17 C          -2.6880    1.5040    0.0000 C.ar    1  LIG1        0.1766
     18 C          -1.8250    2.0040    0.0000 C.ar    1  LIG1        0.0448
     19 O          -3.6420    1.8130    0.0000 O.3     1  LIG1       -0.4346
     20 C          -4.2330    1.0040    0.0000 C.3     1  LIG1        0.4294
     21 O          -3.6420    0.1920    0.0000 O.3     1  LIG1       -0.4346
     22 O          -0.0920    3.0130    0.0000 O.2     1  LIG1       -0.2864
     23 C           1.6500    2.0040    0.0000 C.2     1  LIG1        0.2001
     24 O           1.6500    2.9920    0.0000 O.2     1  LIG1       -0.2864
     25 C           2.5130    1.4920    0.0000 C.ar    1  LIG1        0.0391
     26 C           2.4960    0.4960    0.0000 C.ar    1  LIG1        0.0032
     27 C           3.3580    0.0000    0.0000 C.ar    1  LIG1        0.0001
     28 C           4.2290    0.4920    0.0000 C.ar    1  LIG1        0.0000
     29 C           4.2290    1.4920    0.0000 C.ar    1  LIG1        0.0001
     30 C           3.3670    2.0040    0.0000 C.ar    1  LIG1        0.0032
@<TRIPOS>BOND
     1     1     2   ar
     2     1     6   ar
     3     1    23    1
     4     2     3   ar
     5     2    22    2
     6     3     4   ar
     7     3    18   ar
     8     4     5   ar
     9     4    15   ar
    10     5     6   ar
    11     5     7    1
    12     7     8    1
    13     8     9   ar
    14     8    13   ar
    15     9    10   ar
    16    10    11   ar
    17    11    12   ar
    18    11    14    1
    19    12    13   ar
    20    15    16   ar
    21    16    17   ar
    22    16    21    1
    23    17    18   ar
    24    17    19    1
    25    19    20    1
    26    20    21    1
    27    23    24    2
    28    23    25    1
    29    25    26   ar
    30    25    30   ar
    31    26    27   ar
    32    27    28   ar
    33    28    29   ar
    34    29    30   ar
