@<TRIPOS>MOLECULE
37496_ChemDiv_C567-0447
 32 36 0 0 0
SMALL
GASTEIGER
Energy = 0

@<TRIPOS>ATOM
      1 C          -0.0790    1.4710    0.0000 C.ar    1  LIG1        0.0950
      2 C          -0.9540    1.9750    0.0000 C.ar    1  LIG1        0.2016
      3 C          -1.8330    1.4710    0.0000 C.ar    1  LIG1        0.0581
      4 C          -1.8460    0.4960    0.0000 C.ar    1  LIG1        0.0665
      5 N          -0.9540   -0.0080    0.0000 N.ar    1  LIG1       -0.3215
      6 C          -0.0790    0.4960    0.0000 C.ar    1  LIG1        0.0825
      7 C          -0.9540   -0.9920    0.0000 C.3     1  LIG1        0.1328
      8 C          -0.1040   -1.4830    0.0000 C.ar    1  LIG1        0.0004
      9 C          -0.1040   -2.4710    0.0000 C.ar    1  LIG1       -0.0027
     10 C           0.7750   -2.9580    0.0000 C.ar    1  LIG1       -0.0045
     11 C           1.6460   -2.4710    0.0000 C.ar    1  LIG1       -0.0219
     12 C           1.6460   -1.4830    0.0000 C.ar    1  LIG1       -0.0045
     13 C           0.7750   -0.9920    0.0000 C.ar    1  LIG1       -0.0027
     14 C           2.5130   -2.9710    0.0000 C.3     1  LIG1        0.0310
     15 C          -2.7170    0.0130    0.0000 C.ar    1  LIG1        0.0575
     16 C          -3.6000    0.4960    0.0000 C.ar    1  LIG1        0.1779
     17 C          -3.6000    1.4710    0.0000 C.ar    1  LIG1        0.1766
     18 C          -2.7170    1.9710    0.0000 C.ar    1  LIG1        0.0448
     19 O          -4.5630    1.7880    0.0000 O.3     1  LIG1       -0.4346
     20 C          -5.1750    0.9880    0.0000 C.3     1  LIG1        0.4294
     21 O          -4.5630    0.1920    0.0000 O.3     1  LIG1       -0.4346
     22 O          -0.9540    2.9750    0.0000 O.2     1  LIG1       -0.2864
     23 C           0.8000    1.9710    0.0000 C.2     1  LIG1        0.2001
     24 C           1.6830    1.4710    0.0000 C.ar    1  LIG1        0.0393
     25 C           2.5420    1.9710    0.0000 C.ar    1  LIG1        0.0063
     26 C           3.4250    1.4710    0.0000 C.ar    1  LIG1        0.0370
     27 C           3.4250    0.4960    0.0000 C.ar    1  LIG1        0.1387
     28 C           2.5380    0.0130    0.0000 C.ar    1  LIG1        0.0370
     29 C           1.6670    0.4960    0.0000 C.ar    1  LIG1        0.0063
     30 O           4.2920   -0.0080    0.0000 O.3     1  LIG1       -0.4714
     31 C           5.1710    0.4960    0.0000 C.3     1  LIG1        0.2525
     32 O           0.8000    2.9580    0.0000 O.2     1  LIG1       -0.2864
@<TRIPOS>BOND
     1     1     2   ar
     2     1     6   ar
     3     1    23    1
     4     2     3   ar
     5     2    22    2
     6     3     4   ar
     7     3    18   ar
     8     4     5   ar
     9     4    15   ar
    10     5     6   ar
    11     5     7    1
    12     7     8    1
    13     8     9   ar
    14     8    13   ar
    15     9    10   ar
    16    10    11   ar
    17    11    12   ar
    18    11    14    1
    19    12    13   ar
    20    15    16   ar
    21    16    17   ar
    22    16    21    1
    23    17    18   ar
    24    17    19    1
    25    19    20    1
    26    20    21    1
    27    23    24    1
    28    23    32    2
    29    24    25   ar
    30    24    29   ar
    31    25    26   ar
    32    26    27   ar
    33    27    28   ar
    34    27    30    1
    35    28    29   ar
    36    30    31    1
