@<TRIPOS>MOLECULE
37500_ChemDiv_C567-0487
 33 38 0 0 0
SMALL
GASTEIGER
Energy = 0

@<TRIPOS>ATOM
      1 C          -0.0080    1.4830    0.0000 C.ar    1  LIG1        0.0950
      2 C          -0.8790    1.9880    0.0000 C.ar    1  LIG1        0.2016
      3 C          -1.7580    1.4830    0.0000 C.ar    1  LIG1        0.0581
      4 C          -1.7710    0.4880    0.0000 C.ar    1  LIG1        0.0665
      5 N          -0.8790   -0.0080    0.0000 N.ar    1  LIG1       -0.3215
      6 C          -0.0080    0.4880    0.0000 C.ar    1  LIG1        0.0825
      7 C          -0.8790   -0.9920    0.0000 C.3     1  LIG1        0.1328
      8 C          -0.0210   -1.4830    0.0000 C.ar    1  LIG1        0.0004
      9 C          -0.0210   -2.4710    0.0000 C.ar    1  LIG1       -0.0027
     10 C           0.8580   -2.9710    0.0000 C.ar    1  LIG1       -0.0045
     11 C           1.7250   -2.4710    0.0000 C.ar    1  LIG1       -0.0219
     12 C           1.7250   -1.4830    0.0000 C.ar    1  LIG1       -0.0045
     13 C           0.8580   -0.9920    0.0000 C.ar    1  LIG1       -0.0027
     14 C           2.5750   -2.9580    0.0000 C.3     1  LIG1        0.0310
     15 C          -2.6460    0.0130    0.0000 C.ar    1  LIG1        0.0575
     16 C          -3.5130    0.4880    0.0000 C.ar    1  LIG1        0.1779
     17 C          -3.5170    1.4830    0.0000 C.ar    1  LIG1        0.1766
     18 C          -2.6460    1.9710    0.0000 C.ar    1  LIG1        0.0448
     19 O          -4.4790    1.7880    0.0000 O.3     1  LIG1       -0.4346
     20 C          -5.0750    0.9750    0.0000 C.3     1  LIG1        0.4294
     21 O          -4.4790    0.1830    0.0000 O.3     1  LIG1       -0.4346
     22 O          -0.8790    2.9750    0.0000 O.2     1  LIG1       -0.2864
     23 C           0.8750    1.9710    0.0000 C.2     1  LIG1        0.2002
     24 C           1.7630    1.4830    0.0000 C.ar    1  LIG1        0.0423
     25 C           2.6290    1.9710    0.0000 C.ar    1  LIG1        0.0434
     26 C           3.5080    1.4830    0.0000 C.ar    1  LIG1        0.1765
     27 C           3.5080    0.4880    0.0000 C.ar    1  LIG1        0.1764
     28 O           4.4750    0.1830    0.0000 O.3     1  LIG1       -0.4346
     29 C           5.0710    0.9750    0.0000 C.3     1  LIG1        0.4294
     30 O           4.4750    1.7880    0.0000 O.3     1  LIG1       -0.4346
     31 C           2.6210    0.0130    0.0000 C.ar    1  LIG1        0.0403
     32 C           1.7420    0.5000    0.0000 C.ar    1  LIG1        0.0065
     33 O           0.8750    2.9580    0.0000 O.2     1  LIG1       -0.2864
@<TRIPOS>BOND
     1     1     2   ar
     2     1     6   ar
     3     1    23    1
     4     2     3   ar
     5     2    22    2
     6     3     4   ar
     7     3    18   ar
     8     4     5   ar
     9     4    15   ar
    10     5     6   ar
    11     5     7    1
    12     7     8    1
    13     8     9   ar
    14     8    13   ar
    15     9    10   ar
    16    10    11   ar
    17    11    12   ar
    18    11    14    1
    19    12    13   ar
    20    15    16   ar
    21    16    17   ar
    22    16    21    1
    23    17    18   ar
    24    17    19    1
    25    19    20    1
    26    20    21    1
    27    23    24    1
    28    23    33    2
    29    24    25   ar
    30    24    32   ar
    31    25    26   ar
    32    26    27   ar
    33    26    30    1
    34    27    28    1
    35    27    31   ar
    36    28    29    1
    37    29    30    1
    38    31    32   ar
