@<TRIPOS>MOLECULE
37507_ChemDiv_C618-0467
 30 34 0 0 0
SMALL
GASTEIGER
Energy = 0

@<TRIPOS>ATOM
      1 C           1.7880    0.8040    0.0000 C.ar    1  LIG1        0.0243
      2 C           2.7880    0.8040    0.0000 C.ar    1  LIG1        0.0231
      3 C           3.2920    1.6750    0.0000 C.ar    1  LIG1        0.0822
      4 N           2.7880    2.5380    0.0000 N.ar    1  LIG1       -0.2499
      5 C           1.7880    2.5380    0.0000 C.ar    1  LIG1        0.0554
      6 C           1.2880    1.6750    0.0000 C.ar    1  LIG1       -0.0029
      7 C           0.2880    1.6750    0.0000 C.3     1  LIG1        0.0281
      8 C          -0.2080    2.5380    0.0000 C.3     1  LIG1        0.0051
      9 C           0.2880    3.4000    0.0000 C.3     1  LIG1        0.0066
     10 C           1.2880    3.4000    0.0000 C.3     1  LIG1        0.0455
     11 C           4.2880    1.6750    0.0000 C.ar    1  LIG1        0.0305
     12 C           4.7880    0.8040    0.0000 C.ar    1  LIG1        0.0592
     13 C           4.2880   -0.0630    0.0000 C.ar    1  LIG1        0.0115
     14 C           3.2920   -0.0630    0.0000 C.ar    1  LIG1        0.0028
     15 CL          5.7920    0.8040    0.0000 Cl      1  LIG1       -0.0822
     16 S           1.2880   -0.0630    0.0000 S.3     1  LIG1       -0.1041
     17 C           0.2880   -0.0630    0.0000 C.3     1  LIG1        0.1487
     18 C          -0.2080   -0.9250    0.0000 C.2     1  LIG1        0.2530
     19 N          -1.2130   -0.9250    0.0000 N.am    1  LIG1       -0.1998
     20 C          -1.7080   -1.7920    0.0000 C.3     1  LIG1        0.1416
     21 C          -2.7080   -1.7920    0.0000 C.ar    1  LIG1        0.0027
     22 C          -3.2080   -2.6580    0.0000 C.ar    1  LIG1        0.0376
     23 C          -4.2080   -2.6580    0.0000 C.ar    1  LIG1        0.1762
     24 C          -4.7130   -1.7920    0.0000 C.ar    1  LIG1        0.1764
     25 O          -5.6880   -1.9960    0.0000 O.3     1  LIG1       -0.4346
     26 C          -5.7960   -2.9920    0.0000 C.3     1  LIG1        0.4294
     27 O          -4.8830   -3.4000    0.0000 O.3     1  LIG1       -0.4346
     28 C          -4.2080   -0.9250    0.0000 C.ar    1  LIG1        0.0399
     29 C          -3.2080   -0.9250    0.0000 C.ar    1  LIG1        0.0008
     30 O           0.2880   -1.7920    0.0000 O.2     1  LIG1       -0.2724
@<TRIPOS>BOND
     1     1     2   ar
     2     1     6   ar
     3     1    16    1
     4     2     3   ar
     5     2    14   ar
     6     3     4   ar
     7     3    11   ar
     8     4     5   ar
     9     5     6   ar
    10     5    10    1
    11     6     7    1
    12     7     8    1
    13     8     9    1
    14     9    10    1
    15    11    12   ar
    16    12    13   ar
    17    12    15    1
    18    13    14   ar
    19    16    17    1
    20    17    18    1
    21    18    19   am
    22    18    30    2
    23    19    20    1
    24    20    21    1
    25    21    22   ar
    26    21    29   ar
    27    22    23   ar
    28    23    24   ar
    29    23    27    1
    30    24    25    1
    31    24    28   ar
    32    25    26    1
    33    26    27    1
    34    28    29   ar
