@<TRIPOS>MOLECULE
37508_ChemDiv_C627-0101
 25 28 0 0 0
SMALL
GASTEIGER
Energy = 0

@<TRIPOS>ATOM
      1 C           2.9630   -0.6670    0.0000 C.ar    1  LIG1        0.1561
      2 N           2.5540    0.2420    0.0000 N.ar    1  LIG1       -0.1604
      3 N           3.2960    0.9130    0.0000 N.ar    1  LIG1       -0.2281
      4 C           4.1630    0.4130    0.0000 C.ar    1  LIG1        0.0846
      5 C           3.9540   -0.5670    0.0000 C.ar    1  LIG1        0.0446
      6 C           5.0290    0.9130    0.0000 C.ar    1  LIG1        0.0193
      7 C           5.0290    1.9130    0.0000 C.ar    1  LIG1        0.0031
      8 C           4.1630    2.4080    0.0000 C.ar    1  LIG1        0.0207
      9 C           3.2960    1.9130    0.0000 C.ar    1  LIG1        0.1004
     10 C           2.4630   -1.5380    0.0000 C.2     1  LIG1        0.2686
     11 N           1.4630   -1.5380    0.0000 N.am    1  LIG1       -0.2713
     12 C           0.9630   -2.4040    0.0000 C.3     1  LIG1        0.1152
     13 C          -0.0380   -2.4040    0.0000 C.3     1  LIG1        0.1123
     14 N          -0.5330   -1.5380    0.0000 N.pl3   1  LIG1       -0.3041
     15 C          -1.5380   -1.5380    0.0000 C.ar    1  LIG1        0.0481
     16 C          -2.0330   -2.4040    0.0000 C.ar    1  LIG1        0.0176
     17 C          -3.0330   -2.4040    0.0000 C.ar    1  LIG1        0.0382
     18 C          -3.5380   -1.5380    0.0000 C.ar    1  LIG1        0.1388
     19 C          -3.0330   -0.6670    0.0000 C.ar    1  LIG1        0.0382
     20 C          -2.0330   -0.6670    0.0000 C.ar    1  LIG1        0.0176
     21 O          -4.5330   -1.5380    0.0000 O.3     1  LIG1       -0.4714
     22 C          -5.0330   -2.4040    0.0000 C.3     1  LIG1        0.2525
     23 C          -0.0380   -0.6670    0.0000 C.3     1  LIG1        0.1123
     24 C           0.9630   -0.6670    0.0000 C.3     1  LIG1        0.1152
     25 O           2.9630   -2.4040    0.0000 O.2     1  LIG1       -0.2682
@<TRIPOS>BOND
     1     1     2   ar
     2     1     5   ar
     3     1    10    1
     4     2     3   ar
     5     3     4   ar
     6     3     9   ar
     7     4     5   ar
     8     4     6   ar
     9     6     7   ar
    10     7     8   ar
    11     8     9   ar
    12    10    11   am
    13    10    25    2
    14    11    12    1
    15    11    24    1
    16    12    13    1
    17    13    14    1
    18    14    15    1
    19    14    23    1
    20    15    16   ar
    21    15    20   ar
    22    16    17   ar
    23    17    18   ar
    24    18    19   ar
    25    18    21    1
    26    19    20   ar
    27    21    22    1
    28    23    24    1
