@<TRIPOS>MOLECULE
37501_ChemDiv_K788-8573
 37 41 0 0 0
SMALL
GASTEIGER
Energy = 0

@<TRIPOS>ATOM
      1 S          -2.3130    2.2750    0.0000 S.O2    1  LIG1        0.0288
      2 C          -2.1080    1.4330    0.0000 C.ar    1  LIG1        0.1239
      3 C          -1.2420    0.9330    0.0000 C.ar    1  LIG1        0.0720
      4 N          -0.4380    1.1500    0.0000 N.am    1  LIG1       -0.2496
      5 C          -0.0880    2.0630    0.0000 C.2     1  LIG1        0.2543
      6 C          -0.6420    2.9170    0.0000 C.ar    1  LIG1        0.0714
      7 C          -1.6670    3.0170    0.0000 C.ar    1  LIG1        0.1147
      8 C          -2.0960    3.9540    0.0000 C.ar    1  LIG1        0.0189
      9 C          -1.5130    4.7880    0.0000 C.ar    1  LIG1        0.0013
     10 C          -0.4750    4.6880    0.0000 C.ar    1  LIG1        0.0002
     11 C          -0.0460    3.7630    0.0000 C.ar    1  LIG1        0.0058
     12 O           0.8830    2.3250    0.0000 O.2     1  LIG1       -0.2695
     13 C           0.2420    0.4040    0.0000 C.3     1  LIG1        0.1251
     14 C           1.2250    0.6170    0.0000 C.ar    1  LIG1       -0.0011
     15 C           1.5250    1.5710    0.0000 C.ar    1  LIG1        0.0088
     16 C           2.5000    1.7830    0.0000 C.ar    1  LIG1        0.0574
     17 CL          2.7580    2.7630    0.0000 Cl      1  LIG1       -0.0823
     18 C           3.1790    1.0420    0.0000 C.ar    1  LIG1        0.0114
     19 C           2.8750    0.0830    0.0000 C.ar    1  LIG1        0.0006
     20 C           1.8920   -0.1290    0.0000 C.ar    1  LIG1       -0.0025
     21 C          -1.2330   -0.0750    0.0000 C.ar    1  LIG1        0.0208
     22 C          -2.1080   -0.5790    0.0000 C.ar    1  LIG1        0.0564
     23 C          -2.1040   -1.5880    0.0000 C.2     1  LIG1        0.2650
     24 N          -1.2330   -2.0920    0.0000 N.am    1  LIG1       -0.1955
     25 C          -1.2290   -3.0920    0.0000 C.3     1  LIG1        0.1717
     26 C          -0.3670   -3.5920    0.0000 C.3     1  LIG1        0.1092
     27 N           0.5630   -3.1750    0.0000 N.4     1  LIG1        0.3743
     28 C           1.2330   -3.9170    0.0000 C.3     1  LIG1        0.1385
     29 C           0.7330   -4.7880    0.0000 C.3     1  LIG1        0.0687
     30 C          -0.2420   -4.5880    0.0000 C.3     1  LIG1        0.0647
     31 C           0.7580   -2.1880    0.0000 C.3     1  LIG1        0.1385
     32 C           1.7290   -1.9330    0.0000 C.3     1  LIG1        0.0688
     33 O          -2.9790   -2.0920    0.0000 O.2     1  LIG1       -0.2684
     34 C          -2.9790   -0.0750    0.0000 C.ar    1  LIG1        0.0060
     35 C          -2.9790    0.9250    0.0000 C.ar    1  LIG1        0.0202
     36 O          -3.1830    1.7790    0.0000 O.2     1  LIG1       -0.1642
     37 O          -2.8210    3.1460    0.0000 O.2     1  LIG1       -0.1642
@<TRIPOS>BOND
     1     1     2    1
     2     1     7    1
     3     1    36    2
     4     1    37    2
     5     2     3   ar
     6     2    35   ar
     7     3     4    1
     8     3    21   ar
     9     4     5   am
    10     4    13    1
    11     5     6    1
    12     5    12    2
    13     6     7   ar
    14     6    11   ar
    15     7     8   ar
    16     8     9   ar
    17     9    10   ar
    18    10    11   ar
    19    13    14    1
    20    14    15   ar
    21    14    20   ar
    22    15    16   ar
    23    16    17    1
    24    16    18   ar
    25    18    19   ar
    26    19    20   ar
    27    21    22   ar
    28    22    23    1
    29    22    34   ar
    30    23    24   am
    31    23    33    2
    32    24    25    1
    33    25    26    1
    34    26    27    1
    35    26    30    1
    36    27    28    1
    37    27    31    1
    38    28    29    1
    39    29    30    1
    40    31    32    1
    41    34    35   ar
