@<TRIPOS>MOLECULE
37509_ChemDiv_C618-0588
 30 33 0 0 0
SMALL
GASTEIGER
Energy = 0

@<TRIPOS>ATOM
      1 C           1.0130    0.4330    0.0000 C.ar    1  LIG1        0.0243
      2 C           2.0170    0.4330    0.0000 C.ar    1  LIG1        0.0231
      3 C           2.5210    1.3040    0.0000 C.ar    1  LIG1        0.0822
      4 N           2.0170    2.1670    0.0000 N.ar    1  LIG1       -0.2499
      5 C           1.0130    2.1670    0.0000 C.ar    1  LIG1        0.0554
      6 C           0.5170    1.3040    0.0000 C.ar    1  LIG1       -0.0029
      7 C          -0.4830    1.3040    0.0000 C.3     1  LIG1        0.0281
      8 C          -0.9790    2.1670    0.0000 C.3     1  LIG1        0.0051
      9 C          -0.4830    3.0330    0.0000 C.3     1  LIG1        0.0066
     10 C           0.5170    3.0330    0.0000 C.3     1  LIG1        0.0455
     11 C           3.5170    1.3040    0.0000 C.ar    1  LIG1        0.0305
     12 C           4.0170    0.4330    0.0000 C.ar    1  LIG1        0.0592
     13 C           3.5170   -0.4290    0.0000 C.ar    1  LIG1        0.0115
     14 C           2.5210   -0.4290    0.0000 C.ar    1  LIG1        0.0028
     15 CL          5.0210    0.4330    0.0000 Cl      1  LIG1       -0.0822
     16 S           0.5170   -0.4290    0.0000 S.3     1  LIG1       -0.1041
     17 C          -0.4830   -0.4290    0.0000 C.3     1  LIG1        0.1471
     18 C          -0.9790   -1.2960    0.0000 C.2     1  LIG1        0.2374
     19 N          -1.9830   -1.2960    0.0000 N.am    1  LIG1       -0.2692
     20 C          -2.4830   -0.4290    0.0000 C.3     1  LIG1        0.1583
     21 C          -3.4790   -0.4290    0.0000 C.ar    1  LIG1        0.1430
     22 O          -4.0710   -1.2330    0.0000 O.2     1  LIG1       -0.4530
     23 C          -5.0250   -0.9290    0.0000 C.ar    1  LIG1        0.1792
     24 C          -5.0250    0.0710    0.0000 C.ar    1  LIG1        0.0435
     25 C          -4.0710    0.3830    0.0000 C.ar    1  LIG1        0.0379
     26 C          -2.4830   -2.1630    0.0000 C.3     1  LIG1        0.1258
     27 C          -3.4790   -2.1630    0.0000 C.3     1  LIG1        0.1637
     28 O          -3.9790   -3.0290    0.0000 O.3     1  LIG1       -0.3493
     29 C          -4.9830   -3.0290    0.0000 C.3     1  LIG1        0.1742
     30 O          -0.4830   -2.1630    0.0000 O.2     1  LIG1       -0.2739
@<TRIPOS>BOND
     1     1     2   ar
     2     1     6   ar
     3     1    16    1
     4     2     3   ar
     5     2    14   ar
     6     3     4   ar
     7     3    11   ar
     8     4     5   ar
     9     5     6   ar
    10     5    10    1
    11     6     7    1
    12     7     8    1
    13     8     9    1
    14     9    10    1
    15    11    12   ar
    16    12    13   ar
    17    12    15    1
    18    13    14   ar
    19    16    17    1
    20    17    18    1
    21    18    19   am
    22    18    30    2
    23    19    20    1
    24    19    26    1
    25    20    21    1
    26    21    22   ar
    27    21    25   ar
    28    22    23   ar
    29    23    24   ar
    30    24    25   ar
    31    26    27    1
    32    27    28    1
    33    28    29    1
