@<TRIPOS>MOLECULE
37505_ChemDiv_C618-0386
 27 30 0 0 0
SMALL
GASTEIGER
Energy = 0

@<TRIPOS>ATOM
      1 C           1.2460    0.0000    0.0000 C.ar    1  LIG1        0.0243
      2 C           2.2460    0.0000    0.0000 C.ar    1  LIG1        0.0231
      3 C           2.7500    0.8710    0.0000 C.ar    1  LIG1        0.0822
      4 N           2.2460    1.7330    0.0000 N.ar    1  LIG1       -0.2499
      5 C           1.2460    1.7330    0.0000 C.ar    1  LIG1        0.0554
      6 C           0.7500    0.8710    0.0000 C.ar    1  LIG1       -0.0029
      7 C          -0.2540    0.8710    0.0000 C.3     1  LIG1        0.0281
      8 C          -0.7500    1.7330    0.0000 C.3     1  LIG1        0.0051
      9 C          -0.2540    2.6000    0.0000 C.3     1  LIG1        0.0066
     10 C           0.7500    2.6000    0.0000 C.3     1  LIG1        0.0455
     11 C           3.7460    0.8710    0.0000 C.ar    1  LIG1        0.0305
     12 C           4.2500    0.0000    0.0000 C.ar    1  LIG1        0.0592
     13 C           3.7460   -0.8630    0.0000 C.ar    1  LIG1        0.0115
     14 C           2.7500   -0.8630    0.0000 C.ar    1  LIG1        0.0028
     15 CL          5.2500    0.0000    0.0000 Cl      1  LIG1       -0.0822
     16 S           0.7500   -0.8630    0.0000 S.3     1  LIG1       -0.1041
     17 C          -0.2540   -0.8630    0.0000 C.3     1  LIG1        0.1487
     18 C          -0.7500   -1.7290    0.0000 C.2     1  LIG1        0.2531
     19 N          -1.7540   -1.7290    0.0000 N.am    1  LIG1       -0.1981
     20 C          -2.2500   -0.8630    0.0000 C.3     1  LIG1        0.1605
     21 C          -3.2500   -0.8630    0.0000 C.ar    1  LIG1        0.0809
     22 N          -3.7500    0.0000    0.0000 N.ar    1  LIG1       -0.2464
     23 C          -4.7540    0.0000    0.0000 C.ar    1  LIG1        0.0985
     24 C          -5.2540   -0.8630    0.0000 C.ar    1  LIG1        0.0207
     25 C          -4.7540   -1.7290    0.0000 C.ar    1  LIG1        0.0029
     26 C          -3.7500   -1.7290    0.0000 C.ar    1  LIG1        0.0165
     27 O          -0.2540   -2.5960    0.0000 O.2     1  LIG1       -0.2724
@<TRIPOS>BOND
     1     1     2   ar
     2     1     6   ar
     3     1    16    1
     4     2     3   ar
     5     2    14   ar
     6     3     4   ar
     7     3    11   ar
     8     4     5   ar
     9     5     6   ar
    10     5    10    1
    11     6     7    1
    12     7     8    1
    13     8     9    1
    14     9    10    1
    15    11    12   ar
    16    12    13   ar
    17    12    15    1
    18    13    14   ar
    19    16    17    1
    20    17    18    1
    21    18    19   am
    22    18    27    2
    23    19    20    1
    24    20    21    1
    25    21    22   ar
    26    21    26   ar
    27    22    23   ar
    28    23    24   ar
    29    24    25   ar
    30    25    26   ar
