@<TRIPOS>MOLECULE
37512_ChemDiv_C690-0050
 25 28 0 0 0
SMALL
GASTEIGER
Energy = 0

@<TRIPOS>ATOM
      1 C           2.6460   -1.0500    0.0000 C.ar    1  LIG1        0.0921
      2 C           1.9040   -1.7170    0.0000 C.ar    1  LIG1        0.0888
      3 N           2.3130   -2.6290    0.0000 N.ar    1  LIG1       -0.2280
      4 N           3.3080   -2.5250    0.0000 N.ar    1  LIG1       -0.1633
      5 C           3.5130   -1.5460    0.0000 C.ar    1  LIG1        0.1265
      6 C           1.7250   -3.4380    0.0000 C.ar    1  LIG1        0.1004
      7 C           0.7290   -3.3380    0.0000 C.ar    1  LIG1        0.0207
      8 C           0.3210   -2.4210    0.0000 C.ar    1  LIG1        0.0031
      9 C           0.9080   -1.6130    0.0000 C.ar    1  LIG1        0.0194
     10 C           2.5420   -0.0540    0.0000 C.2     1  LIG1        0.2522
     11 N           1.6750    0.4420    0.0000 N.am    1  LIG1       -0.2725
     12 C           0.8080   -0.0540    0.0000 C.3     1  LIG1        0.1151
     13 C          -0.0580    0.4420    0.0000 C.3     1  LIG1        0.1123
     14 N          -0.0580    1.4460    0.0000 N.pl3   1  LIG1       -0.3043
     15 C          -0.9210    1.9460    0.0000 C.ar    1  LIG1        0.0439
     16 C          -1.7830    1.4460    0.0000 C.ar    1  LIG1       -0.0088
     17 C          -2.6540    1.9460    0.0000 C.ar    1  LIG1       -0.0073
     18 C          -2.6540    2.9420    0.0000 C.ar    1  LIG1       -0.0221
     19 C          -1.7830    3.4420    0.0000 C.ar    1  LIG1       -0.0030
     20 C          -0.9210    2.9420    0.0000 C.ar    1  LIG1        0.0139
     21 C          -3.5170    3.4420    0.0000 C.3     1  LIG1        0.0310
     22 C          -1.7830    0.4420    0.0000 C.3     1  LIG1        0.0323
     23 C           0.8080    1.9460    0.0000 C.3     1  LIG1        0.1123
     24 C           1.6750    1.4460    0.0000 C.3     1  LIG1        0.1151
     25 O           3.3540    0.5330    0.0000 O.2     1  LIG1       -0.2698
@<TRIPOS>BOND
     1     1     2   ar
     2     1     5   ar
     3     1    10    1
     4     2     3   ar
     5     2     9   ar
     6     3     4   ar
     7     3     6   ar
     8     4     5   ar
     9     6     7   ar
    10     7     8   ar
    11     8     9   ar
    12    10    11   am
    13    10    25    2
    14    11    12    1
    15    11    24    1
    16    12    13    1
    17    13    14    1
    18    14    15    1
    19    14    23    1
    20    15    16   ar
    21    15    20   ar
    22    16    17   ar
    23    16    22    1
    24    17    18   ar
    25    18    19   ar
    26    18    21    1
    27    19    20   ar
    28    23    24    1
