@<TRIPOS>MOLECULE
37521_ChemDiv_E686-0272
 24 26 0 0 0
SMALL
GASTEIGER
Energy = 0

@<TRIPOS>ATOM
      1 C           0.8080    1.2750    0.0000 C.2     1  LIG1        0.0712
      2 C          -0.1460    0.9670    0.0000 C.2     1  LIG1        0.2681
      3 N          -0.1460   -0.0330    0.0000 N.am    1  LIG1       -0.1760
      4 C          -1.0080   -0.5330    0.0000 C.ar    1  LIG1        0.0694
      5 C          -1.0080   -1.5330    0.0000 C.ar    1  LIG1       -0.0104
      6 C          -1.8750   -2.0330    0.0000 C.ar    1  LIG1       -0.0245
      7 C          -2.7420   -1.5330    0.0000 C.ar    1  LIG1       -0.0045
      8 C          -2.7420   -0.5330    0.0000 C.ar    1  LIG1        0.0010
      9 C          -1.8750   -0.0330    0.0000 C.ar    1  LIG1        0.0163
     10 C          -1.8750   -3.0330    0.0000 C.3     1  LIG1        0.0307
     11 C          -0.1460   -2.0330    0.0000 C.3     1  LIG1        0.0321
     12 O          -0.8880    1.6330    0.0000 O.2     1  LIG1       -0.2682
     13 C           1.6170    0.6880    0.0000 C.3     1  LIG1        0.1590
     14 O           2.4250    1.2750    0.0000 O.3     1  LIG1       -0.4486
     15 C           2.1170    2.2290    0.0000 C.2     1  LIG1        0.3372
     16 C           1.1170    2.2290    0.0000 C.2     1  LIG1        0.0574
     17 C           0.5290    3.0380    0.0000 C.3     1  LIG1        0.0378
     18 O           2.7040    3.0380    0.0000 O.2     1  LIG1       -0.2453
     19 C           2.5170    0.2540    0.0000 C.3     1  LIG1        0.0446
     20 C           2.7380   -0.7210    0.0000 C.3     1  LIG1        0.0039
     21 C           2.1170   -1.5000    0.0000 C.3     1  LIG1        0.0001
     22 C           1.1170   -1.5000    0.0000 C.3     1  LIG1        0.0001
     23 C           0.4920   -0.7210    0.0000 C.3     1  LIG1        0.0039
     24 C           0.7170    0.2540    0.0000 C.3     1  LIG1        0.0446
@<TRIPOS>BOND
     1     1     2    1
     2     1    13    1
     3     1    16    2
     4     2     3   am
     5     2    12    2
     6     3     4    1
     7     4     5   ar
     8     4     9   ar
     9     5     6   ar
    10     5    11    1
    11     6     7   ar
    12     6    10    1
    13     7     8   ar
    14     8     9   ar
    15    13    14    1
    16    13    19    1
    17    13    24    1
    18    14    15    1
    19    15    16    1
    20    15    18    2
    21    16    17    1
    22    19    20    1
    23    20    21    1
    24    21    22    1
    25    22    23    1
    26    23    24    1
