@<TRIPOS>MOLECULE
37522_ChemDiv_C567-0767
 32 36 0 0 0
SMALL
GASTEIGER
Energy = 0

@<TRIPOS>ATOM
      1 C           0.3580    1.9790    0.0000 C.ar    1  LIG1        0.0950
      2 C          -0.5290    2.4830    0.0000 C.ar    1  LIG1        0.2016
      3 C          -1.4040    1.9790    0.0000 C.ar    1  LIG1        0.0581
      4 C          -1.4080    0.9710    0.0000 C.ar    1  LIG1        0.0665
      5 N          -0.5290    0.4920    0.0000 N.ar    1  LIG1       -0.3214
      6 C           0.3580    0.9710    0.0000 C.ar    1  LIG1        0.0825
      7 C          -0.5290   -0.5040    0.0000 C.3     1  LIG1        0.1358
      8 C           0.3420   -1.0040    0.0000 C.ar    1  LIG1        0.0344
      9 C           0.3250   -1.9880    0.0000 C.ar    1  LIG1        0.1365
     10 O          -0.5130   -2.4830    0.0000 O.3     1  LIG1       -0.4717
     11 C          -0.5130   -3.4670    0.0000 C.3     1  LIG1        0.2525
     12 C           1.2040   -2.4830    0.0000 C.ar    1  LIG1        0.0366
     13 C           2.0790   -1.9880    0.0000 C.ar    1  LIG1        0.0031
     14 C           2.0790   -1.0040    0.0000 C.ar    1  LIG1       -0.0001
     15 C           1.2040   -0.5040    0.0000 C.ar    1  LIG1        0.0006
     16 C          -2.2830    0.4960    0.0000 C.ar    1  LIG1        0.0575
     17 C          -3.1540    0.9880    0.0000 C.ar    1  LIG1        0.1779
     18 C          -3.1540    1.9790    0.0000 C.ar    1  LIG1        0.1766
     19 C          -2.2830    2.4670    0.0000 C.ar    1  LIG1        0.0448
     20 O          -4.1330    2.2880    0.0000 O.3     1  LIG1       -0.4346
     21 C          -4.7250    1.4790    0.0000 C.3     1  LIG1        0.4294
     22 O          -4.1330    0.6830    0.0000 O.3     1  LIG1       -0.4346
     23 O          -0.5290    3.4710    0.0000 O.2     1  LIG1       -0.2864
     24 C           1.2330    2.4670    0.0000 C.2     1  LIG1        0.2001
     25 C           2.1130    1.9790    0.0000 C.ar    1  LIG1        0.0393
     26 C           2.9750    2.4670    0.0000 C.ar    1  LIG1        0.0055
     27 C           3.8460    1.9790    0.0000 C.ar    1  LIG1        0.0297
     28 C           3.8460    0.9710    0.0000 C.ar    1  LIG1        0.1401
     29 C           2.9670    0.4960    0.0000 C.ar    1  LIG1        0.0297
     30 C           2.0960    0.9880    0.0000 C.ar    1  LIG1        0.0055
     31 F           4.7210    0.4920    0.0000 F       1  LIG1       -0.2042
     32 O           1.2330    3.4540    0.0000 O.2     1  LIG1       -0.2864
@<TRIPOS>BOND
     1     1     2   ar
     2     1     6   ar
     3     1    24    1
     4     2     3   ar
     5     2    23    2
     6     3     4   ar
     7     3    19   ar
     8     4     5   ar
     9     4    16   ar
    10     5     6   ar
    11     5     7    1
    12     7     8    1
    13     8     9   ar
    14     8    15   ar
    15     9    10    1
    16     9    12   ar
    17    10    11    1
    18    12    13   ar
    19    13    14   ar
    20    14    15   ar
    21    16    17   ar
    22    17    18   ar
    23    17    22    1
    24    18    19   ar
    25    18    20    1
    26    20    21    1
    27    21    22    1
    28    24    25    1
    29    24    32    2
    30    25    26   ar
    31    25    30   ar
    32    26    27   ar
    33    27    28   ar
    34    28    29   ar
    35    28    31    1
    36    29    30   ar
