@<TRIPOS>MOLECULE
37523_ChemDiv_C533-1121
 24 25 0 0 0
SMALL
GASTEIGER
Energy = 0

@<TRIPOS>ATOM
      1 C           2.2500    0.6750    0.0000 C.2     1  LIG1        0.0709
      2 C           3.2500    0.8380    0.0000 C.3     1  LIG1        0.1590
      3 O           3.7000   -0.0540    0.0000 O.3     1  LIG1       -0.4486
      4 C           2.9830   -0.7630    0.0000 C.2     1  LIG1        0.3372
      5 C           2.0960   -0.3040    0.0000 C.2     1  LIG1        0.0574
      6 C           1.1960   -0.7630    0.0000 C.3     1  LIG1        0.0378
      7 O           3.1170   -1.7580    0.0000 O.2     1  LIG1       -0.2453
      8 C           4.1630    1.2380    0.0000 C.3     1  LIG1        0.0446
      9 C           4.2670    2.2290    0.0000 C.3     1  LIG1        0.0039
     10 C           3.4500    2.8290    0.0000 C.3     1  LIG1        0.0003
     11 C           2.5330    2.4130    0.0000 C.3     1  LIG1        0.0039
     12 C           2.4330    1.4250    0.0000 C.3     1  LIG1        0.0446
     13 C           3.5670    3.8290    0.0000 C.3     1  LIG1        0.0000
     14 C           1.5540    1.3710    0.0000 C.2     1  LIG1        0.2639
     15 O           1.8040    2.3130    0.0000 O.2     1  LIG1       -0.2686
     16 N           0.5880    1.1040    0.0000 N.am    1  LIG1       -0.2018
     17 C           0.3380    0.1380    0.0000 C.3     1  LIG1        0.1164
     18 C          -0.6290   -0.1290    0.0000 C.3     1  LIG1        0.0351
     19 C          -0.8790   -1.0960    0.0000 C.3     1  LIG1        0.0594
     20 S          -1.8460   -1.3630    0.0000 S.3     1  LIG1       -0.1402
     21 C          -2.0960   -2.3250    0.0000 C.3     1  LIG1        0.0576
     22 C          -3.0540   -2.5920    0.0000 C.3     1  LIG1        0.0116
     23 C          -3.3040   -3.5580    0.0000 C.3     1  LIG1        0.0009
     24 C          -4.2710   -3.8250    0.0000 C.3     1  LIG1        0.0000
@<TRIPOS>BOND
     1     1     2    1
     2     1     5    2
     3     1    14    1
     4     2     3    1
     5     2     8    1
     6     2    12    1
     7     3     4    1
     8     4     5    1
     9     4     7    2
    10     5     6    1
    11     8     9    1
    12     9    10    1
    13    10    11    1
    14    10    13    1
    15    11    12    1
    16    14    15    2
    17    14    16   am
    18    16    17    1
    19    17    18    1
    20    18    19    1
    21    19    20    1
    22    20    21    1
    23    21    22    1
    24    22    23    1
    25    23    24    1
