@<TRIPOS>MOLECULE
37529_ChemDiv_C533-1264
 20 21 0 0 0
SMALL
GASTEIGER
Energy = 0

@<TRIPOS>ATOM
      1 C           0.7920    0.2920    0.0000 C.2     1  LIG1        0.0709
      2 C           1.7250    0.6330    0.0000 C.3     1  LIG1        0.1590
      3 O           2.3420   -0.1670    0.0000 O.3     1  LIG1       -0.4486
      4 C           1.7750   -0.9790    0.0000 C.2     1  LIG1        0.3372
      5 C           0.8250   -0.6960    0.0000 C.2     1  LIG1        0.0574
      6 C           0.0250   -1.3170    0.0000 C.3     1  LIG1        0.0378
      7 O           2.0920   -1.9460    0.0000 O.2     1  LIG1       -0.2453
      8 C           2.6710    0.9670    0.0000 C.3     1  LIG1        0.0446
      9 C           2.8540    1.9460    0.0000 C.3     1  LIG1        0.0039
     10 C           2.0750    2.5960    0.0000 C.3     1  LIG1        0.0003
     11 C           1.1420    2.2460    0.0000 C.3     1  LIG1        0.0039
     12 C           0.9710    1.2630    0.0000 C.3     1  LIG1        0.0446
     13 C          -0.0420    0.8500    0.0000 C.2     1  LIG1        0.2641
     14 O           0.0250    1.8460    0.0000 O.2     1  LIG1       -0.2686
     15 N          -0.9420    0.4210    0.0000 N.am    1  LIG1       -0.1955
     16 C          -1.0080   -0.5830    0.0000 C.3     1  LIG1        0.1778
     17 C          -1.8960   -1.0330    0.0000 C.3     1  LIG1        0.1630
     18 N          -1.9750   -2.0290    0.0000 N.4     1  LIG1        0.3881
     19 C          -2.8580   -2.4790    0.0000 C.3     1  LIG1        0.2026
     20 C          -1.1290   -2.5920    0.0000 C.3     1  LIG1        0.2026
@<TRIPOS>BOND
     1     1     2    1
     2     1     5    2
     3     1    13    1
     4     2     3    1
     5     2     8    1
     6     2    12    1
     7     3     4    1
     8     4     5    1
     9     4     7    2
    10     5     6    1
    11     8     9    1
    12     9    10    1
    13    10    11    1
    14    11    12    1
    15    13    14    2
    16    13    15   am
    17    15    16    1
    18    16    17    1
    19    17    18    1
    20    18    19    1
    21    18    20    1
