@<TRIPOS>MOLECULE
37526_ChemDiv_C567-0857
 34 38 0 0 0
SMALL
GASTEIGER
Energy = 0

@<TRIPOS>ATOM
      1 C          -0.5130    2.2170    0.0000 C.ar    1  LIG1        0.0950
      2 C          -1.4080    2.7130    0.0000 C.ar    1  LIG1        0.2016
      3 C          -2.2880    2.2170    0.0000 C.ar    1  LIG1        0.0581
      4 C          -2.3000    1.2250    0.0000 C.ar    1  LIG1        0.0665
      5 N          -1.4080    0.7420    0.0000 N.ar    1  LIG1       -0.3215
      6 C          -0.5130    1.2250    0.0000 C.ar    1  LIG1        0.0825
      7 C          -1.4080   -0.2380    0.0000 C.3     1  LIG1        0.1329
      8 C          -0.5330   -0.7290    0.0000 C.ar    1  LIG1        0.0034
      9 C          -0.5460   -1.7080    0.0000 C.ar    1  LIG1        0.0345
     10 C           0.3250   -2.2000    0.0000 C.ar    1  LIG1        0.1385
     11 O           0.3250   -3.2040    0.0000 O.3     1  LIG1       -0.4714
     12 C           1.2040   -3.7040    0.0000 C.3     1  LIG1        0.2525
     13 C           1.2040   -1.7080    0.0000 C.ar    1  LIG1        0.0369
     14 C           1.2040   -0.7290    0.0000 C.ar    1  LIG1        0.0029
     15 C           0.3250   -0.2380    0.0000 C.ar    1  LIG1       -0.0022
     16 C          -3.1830    0.7630    0.0000 C.ar    1  LIG1        0.0575
     17 C          -4.0580    1.2330    0.0000 C.ar    1  LIG1        0.1779
     18 C          -4.0580    2.2170    0.0000 C.ar    1  LIG1        0.1766
     19 C          -3.1830    2.7130    0.0000 C.ar    1  LIG1        0.0448
     20 O          -5.0330    2.5210    0.0000 O.3     1  LIG1       -0.4346
     21 C          -5.6250    1.7210    0.0000 C.3     1  LIG1        0.4294
     22 O          -5.0330    0.9380    0.0000 O.3     1  LIG1       -0.4346
     23 O          -1.4080    3.7080    0.0000 O.2     1  LIG1       -0.2864
     24 C           0.3580    2.7130    0.0000 C.2     1  LIG1        0.2001
     25 C           1.2380    2.2170    0.0000 C.ar    1  LIG1        0.0393
     26 C           1.2210    1.2330    0.0000 C.ar    1  LIG1        0.0063
     27 C           2.1000    0.7630    0.0000 C.ar    1  LIG1        0.0370
     28 C           2.9920    1.2250    0.0000 C.ar    1  LIG1        0.1386
     29 C           2.9920    2.2170    0.0000 C.ar    1  LIG1        0.0370
     30 C           2.1130    2.7130    0.0000 C.ar    1  LIG1        0.0063
     31 O           3.8540    0.7420    0.0000 O.3     1  LIG1       -0.4755
     32 C           4.7460    1.2250    0.0000 C.3     1  LIG1        0.2055
     33 C           5.6210    0.7420    0.0000 C.3     1  LIG1        0.0512
     34 O           0.3580    3.6830    0.0000 O.2     1  LIG1       -0.2864
@<TRIPOS>BOND
     1     1     2   ar
     2     1     6   ar
     3     1    24    1
     4     2     3   ar
     5     2    23    2
     6     3     4   ar
     7     3    19   ar
     8     4     5   ar
     9     4    16   ar
    10     5     6   ar
    11     5     7    1
    12     7     8    1
    13     8     9   ar
    14     8    15   ar
    15     9    10   ar
    16    10    11    1
    17    10    13   ar
    18    11    12    1
    19    13    14   ar
    20    14    15   ar
    21    16    17   ar
    22    17    18   ar
    23    17    22    1
    24    18    19   ar
    25    18    20    1
    26    20    21    1
    27    21    22    1
    28    24    25    1
    29    24    34    2
    30    25    26   ar
    31    25    30   ar
    32    26    27   ar
    33    27    28   ar
    34    28    29   ar
    35    28    31    1
    36    29    30   ar
    37    31    32    1
    38    32    33    1
