@<TRIPOS>MOLECULE
37524_ChemDiv_C567-0807
 31 35 0 0 0
SMALL
GASTEIGER
Energy = 0

@<TRIPOS>ATOM
      1 C           0.7830    2.2460    0.0000 C.ar    1  LIG1        0.0950
      2 C          -0.0920    2.7580    0.0000 C.ar    1  LIG1        0.2016
      3 C          -0.9540    2.2460    0.0000 C.ar    1  LIG1        0.0581
      4 C          -0.9580    1.2420    0.0000 C.ar    1  LIG1        0.0665
      5 N          -0.0960    0.7460    0.0000 N.ar    1  LIG1       -0.3215
      6 C           0.7830    1.2420    0.0000 C.ar    1  LIG1        0.0825
      7 C          -0.0960   -0.2500    0.0000 C.3     1  LIG1        0.1329
      8 C           0.7710   -0.7630    0.0000 C.ar    1  LIG1        0.0034
      9 C           0.7580   -1.7630    0.0000 C.ar    1  LIG1        0.0345
     10 C           1.6210   -2.2630    0.0000 C.ar    1  LIG1        0.1385
     11 O           1.6130   -3.2500    0.0000 O.3     1  LIG1       -0.4714
     12 C           2.4790   -3.7540    0.0000 C.3     1  LIG1        0.2525
     13 C           2.4830   -1.7710    0.0000 C.ar    1  LIG1        0.0369
     14 C           2.4830   -0.7630    0.0000 C.ar    1  LIG1        0.0029
     15 C           1.6210   -0.2630    0.0000 C.ar    1  LIG1       -0.0022
     16 C          -1.8290    0.7460    0.0000 C.ar    1  LIG1        0.0575
     17 C          -2.6920    1.2420    0.0000 C.ar    1  LIG1        0.1779
     18 C          -2.6920    2.2460    0.0000 C.ar    1  LIG1        0.1766
     19 C          -1.8290    2.7460    0.0000 C.ar    1  LIG1        0.0448
     20 O          -3.6420    2.5630    0.0000 O.3     1  LIG1       -0.4346
     21 C          -4.2380    1.7460    0.0000 C.3     1  LIG1        0.4294
     22 O          -3.6420    0.9460    0.0000 O.3     1  LIG1       -0.4346
     23 O          -0.0920    3.7580    0.0000 O.2     1  LIG1       -0.2864
     24 C           1.6500    2.7420    0.0000 C.2     1  LIG1        0.2001
     25 O           1.6500    3.7420    0.0000 O.2     1  LIG1       -0.2864
     26 C           2.5170    2.2380    0.0000 C.ar    1  LIG1        0.0391
     27 C           2.5000    1.2420    0.0000 C.ar    1  LIG1        0.0032
     28 C           3.3630    0.7460    0.0000 C.ar    1  LIG1        0.0001
     29 C           4.2330    1.2420    0.0000 C.ar    1  LIG1        0.0000
     30 C           4.2330    2.2380    0.0000 C.ar    1  LIG1        0.0001
     31 C           3.3750    2.7420    0.0000 C.ar    1  LIG1        0.0032
@<TRIPOS>BOND
     1     1     2   ar
     2     1     6   ar
     3     1    24    1
     4     2     3   ar
     5     2    23    2
     6     3     4   ar
     7     3    19   ar
     8     4     5   ar
     9     4    16   ar
    10     5     6   ar
    11     5     7    1
    12     7     8    1
    13     8     9   ar
    14     8    15   ar
    15     9    10   ar
    16    10    11    1
    17    10    13   ar
    18    11    12    1
    19    13    14   ar
    20    14    15   ar
    21    16    17   ar
    22    17    18   ar
    23    17    22    1
    24    18    19   ar
    25    18    20    1
    26    20    21    1
    27    21    22    1
    28    24    25    2
    29    24    26    1
    30    26    27   ar
    31    26    31   ar
    32    27    28   ar
    33    28    29   ar
    34    29    30   ar
    35    30    31   ar
