@<TRIPOS>MOLECULE
37527_ChemDiv_C533-1191
 28 31 0 0 0
SMALL
GASTEIGER
Energy = 0

@<TRIPOS>ATOM
      1 C           2.3130   -0.3580    0.0000 C.2     1  LIG1        0.0694
      2 C           3.3130   -0.1960    0.0000 C.3     1  LIG1        0.1589
      3 O           3.7670   -1.0920    0.0000 O.3     1  LIG1       -0.4486
      4 C           3.0460   -1.8000    0.0000 C.2     1  LIG1        0.3372
      5 C           2.1540   -1.3460    0.0000 C.2     1  LIG1        0.0574
      6 C           1.2500   -1.8000    0.0000 C.3     1  LIG1        0.0378
      7 O           3.1790   -2.8040    0.0000 O.2     1  LIG1       -0.2453
      8 C           4.2290    0.2040    0.0000 C.3     1  LIG1        0.0446
      9 C           4.3330    1.2040    0.0000 C.3     1  LIG1        0.0039
     10 C           3.5130    1.8040    0.0000 C.3     1  LIG1        0.0003
     11 C           2.5960    1.3880    0.0000 C.3     1  LIG1        0.0039
     12 C           2.4960    0.3960    0.0000 C.3     1  LIG1        0.0446
     13 C           3.6330    2.8080    0.0000 C.3     1  LIG1        0.0000
     14 C           1.6080    0.3380    0.0000 C.2     1  LIG1        0.2483
     15 N           0.6380    0.0710    0.0000 N.am    1  LIG1       -0.2727
     16 C           0.3880   -0.8790    0.0000 C.3     1  LIG1        0.1152
     17 C          -0.5710   -1.1500    0.0000 C.3     1  LIG1        0.1153
     18 N          -1.2830   -0.4460    0.0000 N.am    1  LIG1       -0.2701
     19 C          -2.2540   -0.7290    0.0000 C.2     1  LIG1        0.2839
     20 C          -2.9670   -0.0290    0.0000 C.ar    1  LIG1        0.1987
     21 O          -3.9710   -0.1130    0.0000 O.2     1  LIG1       -0.4458
     22 C          -4.3380    0.8000    0.0000 C.ar    1  LIG1        0.1798
     23 C          -3.5830    1.4500    0.0000 C.ar    1  LIG1        0.0440
     24 C          -2.7330    0.9170    0.0000 C.ar    1  LIG1        0.0455
     25 O          -2.4830   -1.7000    0.0000 O.2     1  LIG1       -0.2666
     26 C          -1.0210    0.5130    0.0000 C.3     1  LIG1        0.1153
     27 C          -0.0710    0.7670    0.0000 C.3     1  LIG1        0.1152
     28 O           1.8580    1.2880    0.0000 O.2     1  LIG1       -0.2701
@<TRIPOS>BOND
     1     1     2    1
     2     1     5    2
     3     1    14    1
     4     2     3    1
     5     2     8    1
     6     2    12    1
     7     3     4    1
     8     4     5    1
     9     4     7    2
    10     5     6    1
    11     8     9    1
    12     9    10    1
    13    10    11    1
    14    10    13    1
    15    11    12    1
    16    14    15   am
    17    14    28    2
    18    15    16    1
    19    15    27    1
    20    16    17    1
    21    17    18    1
    22    18    19   am
    23    18    26    1
    24    19    20    1
    25    19    25    2
    26    20    21   ar
    27    20    24   ar
    28    21    22   ar
    29    22    23   ar
    30    23    24   ar
    31    26    27    1
