@<TRIPOS>MOLECULE
37525_ChemDiv_C533-1157
 26 28 0 0 0
SMALL
GASTEIGER
Energy = 0

@<TRIPOS>ATOM
      1 C           1.9830   -0.2830    0.0000 C.2     1  LIG1        0.0694
      2 C           2.9830   -0.1250    0.0000 C.3     1  LIG1        0.1589
      3 O           3.4330   -1.0210    0.0000 O.3     1  LIG1       -0.4486
      4 C           2.7170   -1.7250    0.0000 C.2     1  LIG1        0.3372
      5 C           1.8250   -1.2710    0.0000 C.2     1  LIG1        0.0574
      6 C           0.9250   -1.7250    0.0000 C.3     1  LIG1        0.0378
      7 O           2.8500   -2.7290    0.0000 O.2     1  LIG1       -0.2453
      8 C           3.8960    0.2790    0.0000 C.3     1  LIG1        0.0446
      9 C           4.0000    1.2750    0.0000 C.3     1  LIG1        0.0039
     10 C           3.1830    1.8750    0.0000 C.3     1  LIG1        0.0003
     11 C           2.2670    1.4580    0.0000 C.3     1  LIG1        0.0039
     12 C           2.1670    0.4670    0.0000 C.3     1  LIG1        0.0446
     13 C           3.3000    2.8750    0.0000 C.3     1  LIG1        0.0000
     14 C           1.2790    0.4130    0.0000 C.2     1  LIG1        0.2483
     15 N           0.3130    0.1460    0.0000 N.am    1  LIG1       -0.2727
     16 C          -0.3960    0.8380    0.0000 C.3     1  LIG1        0.1153
     17 C          -1.3460    0.5830    0.0000 C.3     1  LIG1        0.1182
     18 N          -1.6080   -0.3750    0.0000 N.am    1  LIG1       -0.2425
     19 C          -2.5750   -0.6580    0.0000 C.2     1  LIG1        0.4050
     20 O          -3.2880    0.0460    0.0000 O.2     1  LIG1       -0.2262
     21 O          -2.8040   -1.6250    0.0000 O.3     1  LIG1       -0.4345
     22 C          -3.7670   -1.9040    0.0000 C.3     1  LIG1        0.2102
     23 C          -4.0040   -2.8710    0.0000 C.3     1  LIG1        0.0513
     24 C          -0.8960   -1.0750    0.0000 C.3     1  LIG1        0.1182
     25 C           0.0630   -0.8080    0.0000 C.3     1  LIG1        0.1153
     26 O           1.5290    1.3580    0.0000 O.2     1  LIG1       -0.2701
@<TRIPOS>BOND
     1     1     2    1
     2     1     5    2
     3     1    14    1
     4     2     3    1
     5     2     8    1
     6     2    12    1
     7     3     4    1
     8     4     5    1
     9     4     7    2
    10     5     6    1
    11     8     9    1
    12     9    10    1
    13    10    11    1
    14    10    13    1
    15    11    12    1
    16    14    15   am
    17    14    26    2
    18    15    16    1
    19    15    25    1
    20    16    17    1
    21    17    18    1
    22    18    19   am
    23    18    24    1
    24    19    20    2
    25    19    21    1
    26    21    22    1
    27    22    23    1
    28    24    25    1
