@<TRIPOS>MOLECULE
37533_ChemDiv_C533-1468
 19 21 0 0 0
SMALL
GASTEIGER
Energy = 0

@<TRIPOS>ATOM
      1 C           0.6420   -0.0330    0.0000 C.2     1  LIG1        0.0694
      2 C           1.5750    0.3130    0.0000 C.3     1  LIG1        0.1589
      3 O           2.1920   -0.4880    0.0000 O.3     1  LIG1       -0.4486
      4 C           1.6250   -1.3040    0.0000 C.2     1  LIG1        0.3372
      5 C           0.6750   -1.0210    0.0000 C.2     1  LIG1        0.0574
      6 C          -0.1250   -1.6380    0.0000 C.3     1  LIG1        0.0378
      7 O           1.9420   -2.2710    0.0000 O.2     1  LIG1       -0.2453
      8 C           0.8210    0.9420    0.0000 C.3     1  LIG1        0.0446
      9 C           0.9920    1.9250    0.0000 C.3     1  LIG1        0.0039
     10 C           1.9250    2.2750    0.0000 C.3     1  LIG1        0.0003
     11 C           2.7040    1.6250    0.0000 C.3     1  LIG1        0.0039
     12 C           2.5210    0.6460    0.0000 C.3     1  LIG1        0.0446
     13 C          -0.1920    0.5290    0.0000 C.2     1  LIG1        0.2482
     14 N          -1.0920    0.0960    0.0000 N.am    1  LIG1       -0.2763
     15 C          -1.3750   -0.8830    0.0000 C.3     1  LIG1        0.0938
     16 C          -2.3750   -0.9040    0.0000 C.3     1  LIG1        0.0233
     17 C          -2.7080    0.0210    0.0000 C.3     1  LIG1        0.0233
     18 C          -1.9250    0.6460    0.0000 C.3     1  LIG1        0.0938
     19 O          -0.1250    1.5250    0.0000 O.2     1  LIG1       -0.2701
@<TRIPOS>BOND
     1     1     2    1
     2     1     5    2
     3     1    13    1
     4     2     3    1
     5     2     8    1
     6     2    12    1
     7     3     4    1
     8     4     5    1
     9     4     7    2
    10     5     6    1
    11     8     9    1
    12     9    10    1
    13    10    11    1
    14    11    12    1
    15    13    14   am
    16    13    19    2
    17    14    15    1
    18    14    18    1
    19    15    16    1
    20    16    17    1
    21    17    18    1
