@<TRIPOS>MOLECULE
37538_ChemDiv_C614-0306
 25 26 0 0 0
SMALL
GASTEIGER
Energy = 0

@<TRIPOS>ATOM
      1 C           2.1080   -1.6420    0.0000 C.ar    1  LIG1        0.1509
      2 C           1.1290   -1.6420    0.0000 C.ar    1  LIG1        0.1308
      3 N           0.8290   -2.5960    0.0000 N.ar    1  LIG1       -0.0751
      4 O           1.6420   -3.1540    0.0000 O.2     1  LIG1       -0.3349
      5 C           2.4250   -2.5750    0.0000 C.ar    1  LIG1        0.2714
      6 N           3.3790   -2.9130    0.0000 N.pl3   1  LIG1       -0.0850
      7 C           0.5040   -0.8540    0.0000 C.ar    1  LIG1        0.0274
      8 C          -0.4790   -1.0040    0.0000 C.ar    1  LIG1        0.0419
      9 C          -1.1170   -0.2540    0.0000 C.ar    1  LIG1        0.1753
     10 C          -0.7630    0.6830    0.0000 C.ar    1  LIG1        0.2059
     11 C           0.2210    0.8630    0.0000 C.ar    1  LIG1        0.1753
     12 C           0.8580    0.0880    0.0000 C.ar    1  LIG1        0.0419
     13 O           0.5670    1.7880    0.0000 O.3     1  LIG1       -0.4723
     14 C           1.5580    1.9580    0.0000 C.3     1  LIG1        0.2057
     15 C           1.8790    2.9210    0.0000 C.3     1  LIG1        0.0512
     16 O          -1.4000    1.4540    0.0000 O.3     1  LIG1       -0.4695
     17 C          -1.0420    2.4080    0.0000 C.3     1  LIG1        0.2058
     18 C          -1.7080    3.1580    0.0000 C.3     1  LIG1        0.0512
     19 O          -2.1000   -0.4130    0.0000 O.3     1  LIG1       -0.4723
     20 C          -2.7500    0.3630    0.0000 C.3     1  LIG1        0.2057
     21 C          -3.7380    0.1540    0.0000 C.3     1  LIG1        0.0512
     22 C           2.7210   -0.8080    0.0000 C.2     1  LIG1        0.3474
     23 O           3.7380   -0.9250    0.0000 O.2     1  LIG1       -0.2447
     24 O           2.3250    0.1040    0.0000 O.3     1  LIG1       -0.4412
     25 C           2.9040    0.8830    0.0000 C.3     1  LIG1        0.2560
@<TRIPOS>BOND
     1     1     2   ar
     2     1     5   ar
     3     1    22    1
     4     2     3   ar
     5     2     7    1
     6     3     4   ar
     7     4     5   ar
     8     5     6    1
     9     7     8   ar
    10     7    12   ar
    11     8     9   ar
    12     9    10   ar
    13     9    19    1
    14    10    11   ar
    15    10    16    1
    16    11    12   ar
    17    11    13    1
    18    13    14    1
    19    14    15    1
    20    16    17    1
    21    17    18    1
    22    19    20    1
    23    20    21    1
    24    22    23    2
    25    22    24    1
    26    24    25    1
