@<TRIPOS>MOLECULE
37535_ChemDiv_C533-1469
 26 29 0 0 0
SMALL
GASTEIGER
Energy = 0

@<TRIPOS>ATOM
      1 C           2.1960    0.1500    0.0000 C.2     1  LIG1        0.0694
      2 C           3.1830    0.3130    0.0000 C.3     1  LIG1        0.1589
      3 O           3.6290   -0.5880    0.0000 O.3     1  LIG1       -0.4486
      4 C           2.9170   -1.2960    0.0000 C.2     1  LIG1        0.3372
      5 C           2.0330   -0.8290    0.0000 C.2     1  LIG1        0.0574
      6 C           1.1330   -1.2960    0.0000 C.3     1  LIG1        0.0378
      7 O           3.0380   -2.3000    0.0000 O.2     1  LIG1       -0.2453
      8 C           2.3670    0.9040    0.0000 C.3     1  LIG1        0.0446
      9 C           2.4750    1.9000    0.0000 C.3     1  LIG1        0.0039
     10 C           3.3880    2.3040    0.0000 C.3     1  LIG1        0.0003
     11 C           4.2040    1.7130    0.0000 C.3     1  LIG1        0.0039
     12 C           4.0960    0.7130    0.0000 C.3     1  LIG1        0.0446
     13 C           1.4830    0.8500    0.0000 C.2     1  LIG1        0.2485
     14 N           0.5210    0.5830    0.0000 N.am    1  LIG1       -0.2647
     15 C           0.2670   -0.3750    0.0000 C.3     1  LIG1        0.1567
     16 C          -0.7080   -0.6330    0.0000 C.3     1  LIG1        0.1602
     17 N          -1.4080    0.0580    0.0000 N.4     1  LIG1        0.3757
     18 C          -1.1500    1.0330    0.0000 C.3     1  LIG1        0.1602
     19 C          -0.1880    1.2920    0.0000 C.3     1  LIG1        0.1567
     20 C          -2.2790   -0.4000    0.0000 C.3     1  LIG1        0.0870
     21 C          -2.9960    0.3130    0.0000 C.3     1  LIG1        0.0567
     22 C          -3.9500    0.0540    0.0000 C.3     1  LIG1        0.0059
     23 C          -4.2080   -0.9210    0.0000 C.3     1  LIG1        0.0004
     24 C          -3.5080   -1.6210    0.0000 C.3     1  LIG1        0.0059
     25 C          -2.5330   -1.3580    0.0000 C.3     1  LIG1        0.0567
     26 O           1.7420    1.8080    0.0000 O.2     1  LIG1       -0.2701
@<TRIPOS>BOND
     1     1     2    1
     2     1     5    2
     3     1    13    1
     4     2     3    1
     5     2     8    1
     6     2    12    1
     7     3     4    1
     8     4     5    1
     9     4     7    2
    10     5     6    1
    11     8     9    1
    12     9    10    1
    13    10    11    1
    14    11    12    1
    15    13    14   am
    16    13    26    2
    17    14    15    1
    18    14    19    1
    19    15    16    1
    20    16    17    1
    21    17    18    1
    22    17    20    1
    23    18    19    1
    24    20    21    1
    25    20    25    1
    26    21    22    1
    27    22    23    1
    28    23    24    1
    29    24    25    1
