@<TRIPOS>MOLECULE
37532_ChemDiv_C567-0967
 32 36 0 0 0
SMALL
GASTEIGER
Energy = 0

@<TRIPOS>ATOM
      1 C           0.3580    1.4920    0.0000 C.ar    1  LIG1        0.0950
      2 C          -0.5290    1.9960    0.0000 C.ar    1  LIG1        0.2016
      3 C          -1.4000    1.4920    0.0000 C.ar    1  LIG1        0.0581
      4 C          -1.4080    0.4830    0.0000 C.ar    1  LIG1        0.0665
      5 N          -0.5290    0.0040    0.0000 N.ar    1  LIG1       -0.3215
      6 C           0.3580    0.4830    0.0000 C.ar    1  LIG1        0.0825
      7 C          -0.5290   -0.9880    0.0000 C.3     1  LIG1        0.1328
      8 C           0.3420   -1.4880    0.0000 C.ar    1  LIG1        0.0006
      9 C           0.3250   -2.4710    0.0000 C.ar    1  LIG1        0.0007
     10 C           1.2040   -2.9670    0.0000 C.ar    1  LIG1        0.0366
     11 C           2.0750   -2.4710    0.0000 C.ar    1  LIG1        0.1387
     12 C           2.0750   -1.4880    0.0000 C.ar    1  LIG1        0.0366
     13 C           1.2040   -0.9880    0.0000 C.ar    1  LIG1        0.0007
     14 O           2.9290   -2.9750    0.0000 O.3     1  LIG1       -0.4714
     15 C           3.7960   -2.4750    0.0000 C.3     1  LIG1        0.2525
     16 C          -2.2790    0.0130    0.0000 C.ar    1  LIG1        0.0575
     17 C          -3.1500    0.5000    0.0000 C.ar    1  LIG1        0.1779
     18 C          -3.1500    1.4920    0.0000 C.ar    1  LIG1        0.1766
     19 C          -2.2790    1.9790    0.0000 C.ar    1  LIG1        0.0448
     20 O          -4.1250    1.8000    0.0000 O.3     1  LIG1       -0.4346
     21 C          -4.7210    0.9920    0.0000 C.3     1  LIG1        0.4294
     22 O          -4.1250    0.2000    0.0000 O.3     1  LIG1       -0.4346
     23 O          -0.5290    2.9790    0.0000 O.2     1  LIG1       -0.2864
     24 C           1.2330    1.9790    0.0000 C.2     1  LIG1        0.2001
     25 C           2.1080    1.4920    0.0000 C.ar    1  LIG1        0.0393
     26 C           2.9710    1.9790    0.0000 C.ar    1  LIG1        0.0055
     27 C           3.8420    1.4920    0.0000 C.ar    1  LIG1        0.0297
     28 C           3.8420    0.4830    0.0000 C.ar    1  LIG1        0.1401
     29 C           2.9670    0.0130    0.0000 C.ar    1  LIG1        0.0297
     30 C           2.0920    0.5000    0.0000 C.ar    1  LIG1        0.0055
     31 F           4.7170    0.0040    0.0000 F       1  LIG1       -0.2042
     32 O           1.2330    2.9630    0.0000 O.2     1  LIG1       -0.2864
@<TRIPOS>BOND
     1     1     2   ar
     2     1     6   ar
     3     1    24    1
     4     2     3   ar
     5     2    23    2
     6     3     4   ar
     7     3    19   ar
     8     4     5   ar
     9     4    16   ar
    10     5     6   ar
    11     5     7    1
    12     7     8    1
    13     8     9   ar
    14     8    13   ar
    15     9    10   ar
    16    10    11   ar
    17    11    12   ar
    18    11    14    1
    19    12    13   ar
    20    14    15    1
    21    16    17   ar
    22    17    18   ar
    23    17    22    1
    24    18    19   ar
    25    18    20    1
    26    20    21    1
    27    21    22    1
    28    24    25    1
    29    24    32    2
    30    25    26   ar
    31    25    30   ar
    32    26    27   ar
    33    27    28   ar
    34    28    29   ar
    35    28    31    1
    36    29    30   ar
