@<TRIPOS>MOLECULE
37536_ChemDiv_C588-0037
 16 18 0 0 0
SMALL
GASTEIGER
Energy = 0

@<TRIPOS>ATOM
      1 C           0.6000   -0.3210    0.0000 C.3     1  LIG1        0.0379
      2 C           1.6080   -0.3210    0.0000 C.2     1  LIG1        0.0499
      3 O           2.1170    0.5580    0.0000 O.co2   1  LIG1       -0.5492
      4 O           2.1170   -1.1920    0.0000 O.co2   1  LIG1       -0.5492
      5 C          -0.1580   -0.7420    0.0000 C.3     1  LIG1        0.0725
      6 C          -1.1130   -0.4040    0.0000 C.3     1  LIG1        0.1945
      7 C          -1.7460   -1.3250    0.0000 C.3     1  LIG1        0.0674
      8 C          -0.7460   -0.9580    0.0000 C.3     1  LIG1        0.0062
      9 C           0.2580   -1.3710    0.0000 C.3     1  LIG1        0.0056
     10 C          -0.7460    0.2000    0.0000 C.3     1  LIG1        0.0004
     11 C          -0.2130    0.9630    0.0000 C.3     1  LIG1        0.0062
     12 C           0.6000    0.4460    0.0000 C.3     1  LIG1        0.0056
     13 C          -1.1130    0.4460    0.0000 C.3     1  LIG1        0.0674
     14 C          -0.2170    1.9630    0.0000 C.3     1  LIG1        0.0002
     15 C          -0.7460   -1.9580    0.0000 C.3     1  LIG1        0.0002
     16 N          -2.1210   -0.4000    0.0000 N.4     1  LIG1        0.5844
@<TRIPOS>BOND
     1     1     2    1
     2     1     5    1
     3     1     9    1
     4     1    12    1
     5     2     3   ar
     6     2     4   ar
     7     5     6    1
     8     6     7    1
     9     6    13    1
    10     6    16    1
    11     7     8    1
    12     8     9    1
    13     8    10    1
    14     8    15    1
    15    10    11    1
    16    11    12    1
    17    11    13    1
    18    11    14    1
