@<TRIPOS>MOLECULE
37530_ChemDiv_C567-0947
 33 37 0 0 0
SMALL
GASTEIGER
Energy = 0

@<TRIPOS>ATOM
      1 C          -0.0880    1.4830    0.0000 C.ar    1  LIG1        0.0950
      2 C          -0.9580    1.9880    0.0000 C.ar    1  LIG1        0.2016
      3 C          -1.8420    1.4830    0.0000 C.ar    1  LIG1        0.0581
      4 C          -1.8460    0.4880    0.0000 C.ar    1  LIG1        0.0665
      5 N          -0.9630    0.0000    0.0000 N.ar    1  LIG1       -0.3215
      6 C          -0.0880    0.4880    0.0000 C.ar    1  LIG1        0.0825
      7 C          -0.9630   -0.9880    0.0000 C.3     1  LIG1        0.1328
      8 C          -0.1000   -1.4790    0.0000 C.ar    1  LIG1        0.0006
      9 C          -0.1000   -2.4670    0.0000 C.ar    1  LIG1        0.0007
     10 C           0.7710   -2.9540    0.0000 C.ar    1  LIG1        0.0366
     11 C           1.6420   -2.4670    0.0000 C.ar    1  LIG1        0.1387
     12 C           1.6420   -1.4790    0.0000 C.ar    1  LIG1        0.0366
     13 C           0.7710   -0.9880    0.0000 C.ar    1  LIG1        0.0007
     14 O           2.5080   -2.9710    0.0000 O.3     1  LIG1       -0.4714
     15 C           3.3830   -2.4670    0.0000 C.3     1  LIG1        0.2525
     16 C          -2.7170    0.0210    0.0000 C.ar    1  LIG1        0.0575
     17 C          -3.6000    0.4920    0.0000 C.ar    1  LIG1        0.1779
     18 C          -3.6000    1.4830    0.0000 C.ar    1  LIG1        0.1766
     19 C          -2.7170    1.9750    0.0000 C.ar    1  LIG1        0.0448
     20 O          -4.5710    1.7960    0.0000 O.3     1  LIG1       -0.4346
     21 C          -5.1750    0.9830    0.0000 C.3     1  LIG1        0.4294
     22 O          -4.5710    0.1960    0.0000 O.3     1  LIG1       -0.4346
     23 O          -0.9580    2.9750    0.0000 O.2     1  LIG1       -0.2864
     24 C           0.7960    1.9750    0.0000 C.2     1  LIG1        0.2001
     25 C           1.6790    1.4830    0.0000 C.ar    1  LIG1        0.0393
     26 C           2.5460    1.9750    0.0000 C.ar    1  LIG1        0.0063
     27 C           3.4210    1.4830    0.0000 C.ar    1  LIG1        0.0370
     28 C           3.4210    0.4880    0.0000 C.ar    1  LIG1        0.1387
     29 C           2.5380    0.0210    0.0000 C.ar    1  LIG1        0.0370
     30 C           1.6630    0.4920    0.0000 C.ar    1  LIG1        0.0063
     31 O           4.2880    0.0000    0.0000 O.3     1  LIG1       -0.4714
     32 C           5.1710    0.4880    0.0000 C.3     1  LIG1        0.2525
     33 O           0.7960    2.9580    0.0000 O.2     1  LIG1       -0.2864
@<TRIPOS>BOND
     1     1     2   ar
     2     1     6   ar
     3     1    24    1
     4     2     3   ar
     5     2    23    2
     6     3     4   ar
     7     3    19   ar
     8     4     5   ar
     9     4    16   ar
    10     5     6   ar
    11     5     7    1
    12     7     8    1
    13     8     9   ar
    14     8    13   ar
    15     9    10   ar
    16    10    11   ar
    17    11    12   ar
    18    11    14    1
    19    12    13   ar
    20    14    15    1
    21    16    17   ar
    22    17    18   ar
    23    17    22    1
    24    18    19   ar
    25    18    20    1
    26    20    21    1
    27    21    22    1
    28    24    25    1
    29    24    33    2
    30    25    26   ar
    31    25    30   ar
    32    26    27   ar
    33    27    28   ar
    34    28    29   ar
    35    28    31    1
    36    29    30   ar
    37    31    32    1
