@<TRIPOS>MOLECULE
37531_ChemDiv_C533-1460
 25 27 0 0 0
SMALL
GASTEIGER
Energy = 0

@<TRIPOS>ATOM
      1 C           1.6960    0.6830    0.0000 C.2     1  LIG1        0.0694
      2 C           2.6290    1.0290    0.0000 C.3     1  LIG1        0.1589
      3 O           3.2460    0.2290    0.0000 O.3     1  LIG1       -0.4486
      4 C           2.6790   -0.5880    0.0000 C.2     1  LIG1        0.3372
      5 C           1.7290   -0.3040    0.0000 C.2     1  LIG1        0.0574
      6 C           0.9290   -0.9210    0.0000 C.3     1  LIG1        0.0378
      7 O           2.9960   -1.5540    0.0000 O.2     1  LIG1       -0.2453
      8 C           1.8750    1.6580    0.0000 C.3     1  LIG1        0.0446
      9 C           2.0460    2.6380    0.0000 C.3     1  LIG1        0.0039
     10 C           2.9790    2.9880    0.0000 C.3     1  LIG1        0.0003
     11 C           3.7580    2.3380    0.0000 C.3     1  LIG1        0.0039
     12 C           3.5750    1.3630    0.0000 C.3     1  LIG1        0.0446
     13 C           0.8630    1.2460    0.0000 C.2     1  LIG1        0.2483
     14 N          -0.0330    0.8130    0.0000 N.am    1  LIG1       -0.2727
     15 C          -0.8670    1.3630    0.0000 C.3     1  LIG1        0.1153
     16 C          -1.7670    0.9130    0.0000 C.3     1  LIG1        0.1182
     17 N          -1.8330   -0.0880    0.0000 N.am    1  LIG1       -0.2425
     18 C          -2.7380   -0.5460    0.0000 C.2     1  LIG1        0.4050
     19 O          -3.5790    0.0130    0.0000 O.2     1  LIG1       -0.2262
     20 O          -2.8170   -1.5460    0.0000 O.3     1  LIG1       -0.4345
     21 C          -3.6960   -1.9830    0.0000 C.3     1  LIG1        0.2102
     22 C          -3.7630   -2.9830    0.0000 C.3     1  LIG1        0.0513
     23 C          -0.9920   -0.6380    0.0000 C.3     1  LIG1        0.1182
     24 C          -0.1000   -0.1880    0.0000 C.3     1  LIG1        0.1153
     25 O           0.9290    2.2380    0.0000 O.2     1  LIG1       -0.2701
@<TRIPOS>BOND
     1     1     2    1
     2     1     5    2
     3     1    13    1
     4     2     3    1
     5     2     8    1
     6     2    12    1
     7     3     4    1
     8     4     5    1
     9     4     7    2
    10     5     6    1
    11     8     9    1
    12     9    10    1
    13    10    11    1
    14    11    12    1
    15    13    14   am
    16    13    25    2
    17    14    15    1
    18    14    24    1
    19    15    16    1
    20    16    17    1
    21    17    18   am
    22    17    23    1
    23    18    19    2
    24    18    20    1
    25    20    21    1
    26    21    22    1
    27    23    24    1
