@<TRIPOS>MOLECULE
37546_ChemDiv_C614-0570
 31 34 0 0 0
SMALL
GASTEIGER
Energy = 0

@<TRIPOS>ATOM
      1 N          -1.6380    1.2830    0.0000 N.ar    1  LIG1       -0.2961
      2 C          -1.0460    2.0920    0.0000 C.ar    1  LIG1        0.1222
      3 N          -1.6380    2.9040    0.0000 N.ar    1  LIG1       -0.2293
      4 C          -2.5790    2.5920    0.0000 C.ar    1  LIG1        0.1167
      5 C          -2.5790    1.5920    0.0000 C.ar    1  LIG1        0.1627
      6 N          -3.4540    1.0880    0.0000 N.ar    1  LIG1       -0.2252
      7 C          -4.3170    1.5880    0.0000 C.ar    1  LIG1        0.1006
      8 C          -4.3170    2.5920    0.0000 C.ar    1  LIG1        0.0223
      9 C          -3.4540    3.0920    0.0000 C.ar    1  LIG1        0.0238
     10 C          -0.0460    2.0920    0.0000 C.3     1  LIG1        0.0736
     11 C           0.4540    1.2290    0.0000 C.3     1  LIG1        0.0947
     12 C           1.4540    1.2290    0.0000 C.2     1  LIG1        0.2421
     13 N           1.9630    0.3670    0.0000 N.am    1  LIG1       -0.2005
     14 C           2.9630    0.3670    0.0000 C.3     1  LIG1        0.1415
     15 C           3.4630   -0.5000    0.0000 C.ar    1  LIG1       -0.0005
     16 C           4.4540   -0.4880    0.0000 C.ar    1  LIG1       -0.0017
     17 C           4.9630   -1.3500    0.0000 C.ar    1  LIG1        0.0111
     18 C           4.4540   -2.2250    0.0000 C.ar    1  LIG1        0.0577
     19 CL          4.9710   -3.0880    0.0000 Cl      1  LIG1       -0.0822
     20 C           3.4630   -2.2250    0.0000 C.ar    1  LIG1        0.0111
     21 C           2.9630   -1.3630    0.0000 C.ar    1  LIG1       -0.0017
     22 O           1.9540    2.1040    0.0000 O.2     1  LIG1       -0.2733
     23 C          -1.3170    0.3290    0.0000 C.3     1  LIG1        0.1353
     24 C          -1.9880   -0.4130    0.0000 C.ar    1  LIG1        0.0007
     25 C          -2.9670   -0.2000    0.0000 C.ar    1  LIG1        0.0007
     26 C          -3.6330   -0.9420    0.0000 C.ar    1  LIG1        0.0366
     27 C          -3.3330   -1.8960    0.0000 C.ar    1  LIG1        0.1387
     28 C          -2.3460   -2.0920    0.0000 C.ar    1  LIG1        0.0366
     29 C          -1.6790   -1.3500    0.0000 C.ar    1  LIG1        0.0007
     30 O          -4.0000   -2.6380    0.0000 O.3     1  LIG1       -0.4714
     31 C          -4.9750   -2.4250    0.0000 C.3     1  LIG1        0.2525
@<TRIPOS>BOND
     1     1     2   ar
     2     1     5   ar
     3     1    23    1
     4     2     3   ar
     5     2    10    1
     6     3     4   ar
     7     4     5   ar
     8     4     9   ar
     9     5     6   ar
    10     6     7   ar
    11     7     8   ar
    12     8     9   ar
    13    10    11    1
    14    11    12    1
    15    12    13   am
    16    12    22    2
    17    13    14    1
    18    14    15    1
    19    15    16   ar
    20    15    21   ar
    21    16    17   ar
    22    17    18   ar
    23    18    19    1
    24    18    20   ar
    25    20    21   ar
    26    23    24    1
    27    24    25   ar
    28    24    29   ar
    29    25    26   ar
    30    26    27   ar
    31    27    28   ar
    32    27    30    1
    33    28    29   ar
    34    30    31    1
