@<TRIPOS>MOLECULE
37544_ChemDiv_C614-0569
 32 35 0 0 0
SMALL
GASTEIGER
Energy = 0

@<TRIPOS>ATOM
      1 N          -1.6330    1.7170    0.0000 N.ar    1  LIG1       -0.2961
      2 C          -1.0460    2.5250    0.0000 C.ar    1  LIG1        0.1222
      3 N          -1.6330    3.3380    0.0000 N.ar    1  LIG1       -0.2293
      4 C          -2.5790    3.0250    0.0000 C.ar    1  LIG1        0.1167
      5 C          -2.5790    2.0250    0.0000 C.ar    1  LIG1        0.1627
      6 N          -3.4540    1.5210    0.0000 N.ar    1  LIG1       -0.2252
      7 C          -4.3170    2.0210    0.0000 C.ar    1  LIG1        0.1006
      8 C          -4.3170    3.0250    0.0000 C.ar    1  LIG1        0.0223
      9 C          -3.4540    3.5250    0.0000 C.ar    1  LIG1        0.0238
     10 C          -0.0460    2.5250    0.0000 C.3     1  LIG1        0.0736
     11 C           0.4540    1.6630    0.0000 C.3     1  LIG1        0.0947
     12 C           1.4540    1.6630    0.0000 C.2     1  LIG1        0.2421
     13 N           1.9630    0.8000    0.0000 N.am    1  LIG1       -0.2005
     14 C           2.9630    0.8000    0.0000 C.3     1  LIG1        0.1415
     15 C           3.4630   -0.0630    0.0000 C.ar    1  LIG1       -0.0004
     16 C           2.9630   -0.9250    0.0000 C.ar    1  LIG1        0.0006
     17 C           3.4630   -1.7920    0.0000 C.ar    1  LIG1        0.0366
     18 C           4.4540   -1.7920    0.0000 C.ar    1  LIG1        0.1387
     19 C           4.9630   -0.9170    0.0000 C.ar    1  LIG1        0.0366
     20 C           4.4540   -0.0540    0.0000 C.ar    1  LIG1        0.0006
     21 O           4.9670   -2.6540    0.0000 O.3     1  LIG1       -0.4714
     22 C           4.4670   -3.5210    0.0000 C.3     1  LIG1        0.2525
     23 O           1.9540    2.5380    0.0000 O.2     1  LIG1       -0.2733
     24 C          -1.3170    0.7630    0.0000 C.3     1  LIG1        0.1353
     25 C          -1.9880    0.0210    0.0000 C.ar    1  LIG1        0.0007
     26 C          -1.6790   -0.9170    0.0000 C.ar    1  LIG1        0.0007
     27 C          -2.3460   -1.6580    0.0000 C.ar    1  LIG1        0.0366
     28 C          -3.3330   -1.4630    0.0000 C.ar    1  LIG1        0.1387
     29 C          -3.6330   -0.5080    0.0000 C.ar    1  LIG1        0.0366
     30 C          -2.9670    0.2330    0.0000 C.ar    1  LIG1        0.0007
     31 O          -4.0000   -2.2040    0.0000 O.3     1  LIG1       -0.4714
     32 C          -4.9710   -1.9920    0.0000 C.3     1  LIG1        0.2525
@<TRIPOS>BOND
     1     1     2   ar
     2     1     5   ar
     3     1    24    1
     4     2     3   ar
     5     2    10    1
     6     3     4   ar
     7     4     5   ar
     8     4     9   ar
     9     5     6   ar
    10     6     7   ar
    11     7     8   ar
    12     8     9   ar
    13    10    11    1
    14    11    12    1
    15    12    13   am
    16    12    23    2
    17    13    14    1
    18    14    15    1
    19    15    16   ar
    20    15    20   ar
    21    16    17   ar
    22    17    18   ar
    23    18    19   ar
    24    18    21    1
    25    19    20   ar
    26    21    22    1
    27    24    25    1
    28    25    26   ar
    29    25    30   ar
    30    26    27   ar
    31    27    28   ar
    32    28    29   ar
    33    28    31    1
    34    29    30   ar
    35    31    32    1
