@<TRIPOS>MOLECULE
37558_ChemDiv_C592-2034
 34 39 0 0 0
SMALL
GASTEIGER
Energy = 0

@<TRIPOS>ATOM
      1 N           0.5880    2.0500    0.0000 N.ar    1  LIG1       -0.2924
      2 C           1.3920    1.4580    0.0000 C.ar    1  LIG1        0.1934
      3 N           1.0830    0.5000    0.0000 N.ar    1  LIG1       -0.1224
      4 N           0.0960    0.4880    0.0000 N.ar    1  LIG1       -0.1310
      5 C          -0.2250    1.4460    0.0000 C.ar    1  LIG1        0.1657
      6 C          -1.1830    1.7460    0.0000 C.3     1  LIG1        0.1805
      7 N          -1.6960    0.8790    0.0000 N.am    1  LIG1       -0.1972
      8 C          -2.7000    0.8960    0.0000 C.2     1  LIG1        0.2408
      9 C          -3.2040    0.0290    0.0000 C.3     1  LIG1        0.0705
     10 C          -3.8130    0.7880    0.0000 C.3     1  LIG1        0.0087
     11 C          -4.7710    0.6420    0.0000 C.3     1  LIG1        0.0005
     12 C          -4.6080   -0.3540    0.0000 C.3     1  LIG1        0.0000
     13 C          -3.9380   -1.1380    0.0000 C.3     1  LIG1        0.0005
     14 C          -2.9330   -0.9920    0.0000 C.3     1  LIG1        0.0087
     15 C          -4.3290   -2.0670    0.0000 C.3     1  LIG1        0.0000
     16 C          -4.5130   -1.0080    0.0000 C.3     1  LIG1        0.0005
     17 C          -3.5580   -0.8710    0.0000 C.3     1  LIG1        0.0087
     18 C          -5.1080   -0.2580    0.0000 C.3     1  LIG1        0.0000
     19 O          -3.1920    1.7630    0.0000 O.2     1  LIG1       -0.2734
     20 S           2.3500    1.7630    0.0000 S.3     1  LIG1       -0.0658
     21 C           3.0960    1.0920    0.0000 C.3     1  LIG1        0.1504
     22 C           2.8830    0.1170    0.0000 C.2     1  LIG1        0.2408
     23 N           3.6290   -0.5630    0.0000 N.am    1  LIG1       -0.2579
     24 C           3.5380   -1.5540    0.0000 C.ar    1  LIG1        0.0499
     25 C           4.4500   -1.9630    0.0000 C.ar    1  LIG1       -0.0068
     26 C           5.1040   -1.2040    0.0000 C.3     1  LIG1        0.0495
     27 C           4.6040   -0.3500    0.0000 C.3     1  LIG1        0.1029
     28 C           4.5670   -2.9500    0.0000 C.ar    1  LIG1       -0.0030
     29 C           3.7670   -3.5330    0.0000 C.ar    1  LIG1       -0.0002
     30 C           2.8500   -3.1460    0.0000 C.ar    1  LIG1        0.0013
     31 C           2.7330   -2.1500    0.0000 C.ar    1  LIG1        0.0146
     32 O           1.9380   -0.1960    0.0000 O.2     1  LIG1       -0.2736
     33 C           0.5880    3.0420    0.0000 C.3     1  LIG1        0.1093
     34 C          -0.2790    3.5380    0.0000 C.3     1  LIG1        0.0266
@<TRIPOS>BOND
     1     1     2   ar
     2     1     5   ar
     3     1    33    1
     4     2     3   ar
     5     2    20    1
     6     3     4   ar
     7     4     5   ar
     8     5     6    1
     9     6     7    1
    10     7     8   am
    11     8     9    1
    12     8    19    2
    13     9    10    1
    14     9    14    1
    15     9    17    1
    16    10    11    1
    17    11    12    1
    18    11    18    1
    19    12    13    1
    20    13    14    1
    21    13    15    1
    22    15    16    1
    23    16    17    1
    24    16    18    1
    25    20    21    1
    26    21    22    1
    27    22    23   am
    28    22    32    2
    29    23    24    1
    30    23    27    1
    31    24    25   ar
    32    24    31   ar
    33    25    26    1
    34    25    28   ar
    35    26    27    1
    36    28    29   ar
    37    29    30   ar
    38    30    31   ar
    39    33    34    1
