@<TRIPOS>MOLECULE
37553_ChemDiv_C533-1482
 27 30 0 0 0
SMALL
GASTEIGER
Energy = 0

@<TRIPOS>ATOM
      1 C           1.6880    0.9580    0.0000 C.2     1  LIG1        0.0694
      2 C           2.6210    1.3040    0.0000 C.3     1  LIG1        0.1589
      3 O           3.2380    0.5040    0.0000 O.3     1  LIG1       -0.4486
      4 C           2.6710   -0.3130    0.0000 C.2     1  LIG1        0.3372
      5 C           1.7210   -0.0290    0.0000 C.2     1  LIG1        0.0574
      6 C           0.9210   -0.6460    0.0000 C.3     1  LIG1        0.0378
      7 O           2.9880   -1.2790    0.0000 O.2     1  LIG1       -0.2453
      8 C           1.8670    1.9330    0.0000 C.3     1  LIG1        0.0446
      9 C           2.0380    2.9170    0.0000 C.3     1  LIG1        0.0039
     10 C           2.9710    3.2630    0.0000 C.3     1  LIG1        0.0003
     11 C           3.7500    2.6170    0.0000 C.3     1  LIG1        0.0039
     12 C           3.5670    1.6380    0.0000 C.3     1  LIG1        0.0446
     13 C           0.8540    1.5210    0.0000 C.2     1  LIG1        0.2485
     14 N          -0.0420    1.0880    0.0000 N.am    1  LIG1       -0.2647
     15 C          -0.8670    1.6380    0.0000 C.3     1  LIG1        0.1567
     16 C          -1.7580    1.1880    0.0000 C.3     1  LIG1        0.1610
     17 N          -1.8330    0.1880    0.0000 N.4     1  LIG1        0.3834
     18 C          -2.7420   -0.2460    0.0000 C.3     1  LIG1        0.1663
     19 C          -2.8080   -1.2630    0.0000 C.ar    1  LIG1        0.0344
     20 C          -3.6960   -1.7040    0.0000 C.ar    1  LIG1        0.0014
     21 C          -3.7540   -2.7040    0.0000 C.ar    1  LIG1       -0.0001
     22 C          -2.9250   -3.2580    0.0000 C.ar    1  LIG1       -0.0000
     23 C          -2.0330   -2.8130    0.0000 C.ar    1  LIG1       -0.0001
     24 C          -1.9750   -1.8130    0.0000 C.ar    1  LIG1        0.0014
     25 C          -1.0000   -0.3630    0.0000 C.3     1  LIG1        0.1610
     26 C          -0.1130    0.0710    0.0000 C.3     1  LIG1        0.1567
     27 O           0.9210    2.5170    0.0000 O.2     1  LIG1       -0.2701
@<TRIPOS>BOND
     1     1     2    1
     2     1     5    2
     3     1    13    1
     4     2     3    1
     5     2     8    1
     6     2    12    1
     7     3     4    1
     8     4     5    1
     9     4     7    2
    10     5     6    1
    11     8     9    1
    12     9    10    1
    13    10    11    1
    14    11    12    1
    15    13    14   am
    16    13    27    2
    17    14    15    1
    18    14    26    1
    19    15    16    1
    20    16    17    1
    21    17    18    1
    22    17    25    1
    23    18    19    1
    24    19    20   ar
    25    19    24   ar
    26    20    21   ar
    27    21    22   ar
    28    22    23   ar
    29    23    24   ar
    30    25    26    1
