@<TRIPOS>MOLECULE
37552_ChemDiv_C614-0592
 31 34 0 0 0
SMALL
GASTEIGER
Energy = 0

@<TRIPOS>ATOM
      1 N          -1.6080    0.6880    0.0000 N.ar    1  LIG1       -0.2961
      2 C          -1.0210    1.4960    0.0000 C.ar    1  LIG1        0.1222
      3 N          -1.6080    2.3080    0.0000 N.ar    1  LIG1       -0.2293
      4 C          -2.5580    1.9920    0.0000 C.ar    1  LIG1        0.1167
      5 C          -2.5580    0.9960    0.0000 C.ar    1  LIG1        0.1627
      6 N          -3.4250    0.4920    0.0000 N.ar    1  LIG1       -0.2252
      7 C          -4.2920    0.9880    0.0000 C.ar    1  LIG1        0.1006
      8 C          -4.2920    1.9920    0.0000 C.ar    1  LIG1        0.0223
      9 C          -3.4250    2.4960    0.0000 C.ar    1  LIG1        0.0238
     10 C          -0.0130    1.4960    0.0000 C.3     1  LIG1        0.0736
     11 C           0.4830    0.6330    0.0000 C.3     1  LIG1        0.0947
     12 C           1.4830    0.6330    0.0000 C.2     1  LIG1        0.2421
     13 N           1.9920   -0.2330    0.0000 N.am    1  LIG1       -0.2005
     14 C           2.9920   -0.2250    0.0000 C.3     1  LIG1        0.1415
     15 C           3.4750    0.6420    0.0000 C.ar    1  LIG1       -0.0006
     16 C           4.4710    0.6500    0.0000 C.ar    1  LIG1       -0.0029
     17 C           4.9540    1.5170    0.0000 C.ar    1  LIG1       -0.0045
     18 C           4.4500    2.3710    0.0000 C.ar    1  LIG1       -0.0219
     19 C           3.4460    2.3540    0.0000 C.ar    1  LIG1       -0.0045
     20 C           2.9630    1.4960    0.0000 C.ar    1  LIG1       -0.0029
     21 C           4.9380    3.2460    0.0000 C.3     1  LIG1        0.0310
     22 O           1.9830    1.5000    0.0000 O.2     1  LIG1       -0.2733
     23 C          -1.2920   -0.2710    0.0000 C.3     1  LIG1        0.1353
     24 C          -1.9710   -1.0080    0.0000 C.ar    1  LIG1        0.0007
     25 C          -1.6540   -1.9580    0.0000 C.ar    1  LIG1        0.0007
     26 C          -2.3170   -2.7000    0.0000 C.ar    1  LIG1        0.0366
     27 C          -3.3040   -2.4960    0.0000 C.ar    1  LIG1        0.1387
     28 C          -3.6130   -1.5380    0.0000 C.ar    1  LIG1        0.0366
     29 C          -2.9420   -0.7960    0.0000 C.ar    1  LIG1        0.0007
     30 O          -3.9750   -3.2420    0.0000 O.3     1  LIG1       -0.4714
     31 C          -4.9580   -3.0290    0.0000 C.3     1  LIG1        0.2525
@<TRIPOS>BOND
     1     1     2   ar
     2     1     5   ar
     3     1    23    1
     4     2     3   ar
     5     2    10    1
     6     3     4   ar
     7     4     5   ar
     8     4     9   ar
     9     5     6   ar
    10     6     7   ar
    11     7     8   ar
    12     8     9   ar
    13    10    11    1
    14    11    12    1
    15    12    13   am
    16    12    22    2
    17    13    14    1
    18    14    15    1
    19    15    16   ar
    20    15    20   ar
    21    16    17   ar
    22    17    18   ar
    23    18    19   ar
    24    18    21    1
    25    19    20   ar
    26    23    24    1
    27    24    25   ar
    28    24    29   ar
    29    25    26   ar
    30    26    27   ar
    31    27    28   ar
    32    27    30    1
    33    28    29   ar
    34    30    31    1
