@<TRIPOS>MOLECULE
37554_ChemDiv_C590-0120
 26 29 0 0 0
SMALL
GASTEIGER
Energy = 0

@<TRIPOS>ATOM
      1 C           1.1290    1.9880    0.0000 C.ar    1  LIG1        0.1592
      2 C           1.1290    0.9920    0.0000 C.ar    1  LIG1        0.0465
      3 C           2.0830    0.6920    0.0000 C.ar    1  LIG1        0.1045
      4 N           2.6540    1.4750    0.0000 N.ar    1  LIG1       -0.1478
      5 N           2.0830    2.2880    0.0000 N.ar    1  LIG1       -0.1433
      6 C           2.3040   -0.2960    0.0000 C.ar    1  LIG1        0.0197
      7 C           1.5710   -0.9880    0.0000 C.ar    1  LIG1        0.0047
      8 C           1.7920   -1.9500    0.0000 C.ar    1  LIG1        0.0369
      9 C           2.7540   -2.2330    0.0000 C.ar    1  LIG1        0.1387
     10 C           3.4790   -1.5580    0.0000 C.ar    1  LIG1        0.0369
     11 C           3.2580   -0.5750    0.0000 C.ar    1  LIG1        0.0047
     12 O           2.9960   -3.1960    0.0000 O.3     1  LIG1       -0.4714
     13 C           3.9580   -3.4880    0.0000 C.3     1  LIG1        0.2525
     14 C           0.2540    2.5000    0.0000 C.2     1  LIG1        0.2846
     15 N          -0.6210    1.9880    0.0000 N.am    1  LIG1       -0.1955
     16 C          -0.6000    0.9920    0.0000 C.3     1  LIG1        0.1419
     17 C          -1.4750    0.4790    0.0000 C.ar    1  LIG1        0.0027
     18 C          -1.4750   -0.5330    0.0000 C.ar    1  LIG1        0.0376
     19 C          -2.3460   -1.0290    0.0000 C.ar    1  LIG1        0.1762
     20 C          -3.2130   -0.5330    0.0000 C.ar    1  LIG1        0.1764
     21 O          -3.9630   -1.2080    0.0000 O.3     1  LIG1       -0.4346
     22 C          -3.5540   -2.1040    0.0000 C.3     1  LIG1        0.4294
     23 O          -2.5790   -2.0130    0.0000 O.3     1  LIG1       -0.4346
     24 C          -3.2130    0.4790    0.0000 C.ar    1  LIG1        0.0399
     25 C          -2.3380    0.9710    0.0000 C.ar    1  LIG1        0.0008
     26 O           0.2540    3.4920    0.0000 O.2     1  LIG1       -0.2666
@<TRIPOS>BOND
     1     1     2   ar
     2     1     5   ar
     3     1    14    1
     4     2     3   ar
     5     3     4   ar
     6     3     6    1
     7     4     5   ar
     8     6     7   ar
     9     6    11   ar
    10     7     8   ar
    11     8     9   ar
    12     9    10   ar
    13     9    12    1
    14    10    11   ar
    15    12    13    1
    16    14    15   am
    17    14    26    2
    18    15    16    1
    19    16    17    1
    20    17    18   ar
    21    17    25   ar
    22    18    19   ar
    23    19    20   ar
    24    19    23    1
    25    20    21    1
    26    20    24   ar
    27    21    22    1
    28    22    23    1
    29    24    25   ar
