@<TRIPOS>MOLECULE
37556_ChemDiv_C590-0820
 37 41 0 0 0
SMALL
GASTEIGER
Energy = 0

@<TRIPOS>ATOM
      1 N          -2.6040    3.5790    0.0000 N.ar    1  LIG1       -0.2149
      2 C          -2.5960    2.5790    0.0000 C.ar    1  LIG1        0.1847
      3 N          -1.7290    2.0790    0.0000 N.ar    1  LIG1       -0.1256
      4 N          -1.7210    1.0710    0.0000 N.ar    1  LIG1       -0.1088
      5 C          -2.5920    0.5670    0.0000 C.ar    1  LIG1        0.2443
      6 C          -3.4540    1.0670    0.0000 C.ar    1  LIG1        0.0577
      7 C          -3.4540    2.0710    0.0000 C.ar    1  LIG1        0.0421
      8 C          -4.3250    2.5790    0.0000 C.ar    1  LIG1        0.0033
      9 C          -5.1880    2.0710    0.0000 C.ar    1  LIG1        0.0001
     10 C          -5.1880    1.0670    0.0000 C.ar    1  LIG1        0.0002
     11 C          -4.3250    0.5670    0.0000 C.ar    1  LIG1        0.0048
     12 O          -2.5920   -0.4290    0.0000 O.3     1  LIG1       -0.4491
     13 C          -1.7210   -0.9380    0.0000 C.3     1  LIG1        0.2913
     14 C          -1.7210   -1.9380    0.0000 C.2     1  LIG1        0.2703
     15 N          -0.8540   -2.4330    0.0000 N.am    1  LIG1       -0.2735
     16 C          -0.8580   -3.4170    0.0000 C.3     1  LIG1        0.1127
     17 C           0.0040   -3.9170    0.0000 C.3     1  LIG1        0.1173
     18 N           0.8710   -3.4290    0.0000 N.3     1  LIG1       -0.1520
     19 S           1.7290   -3.9330    0.0000 S.O2    1  LIG1        0.0634
     20 C           2.6000   -4.4290    0.0000 C.ar    1  LIG1        0.1222
     21 C           2.5920   -5.4290    0.0000 C.ar    1  LIG1        0.0196
     22 C           3.4500   -5.9250    0.0000 C.ar    1  LIG1       -0.0029
     23 C           4.3130   -5.4290    0.0000 C.ar    1  LIG1       -0.0218
     24 C           4.3130   -4.4250    0.0000 C.ar    1  LIG1       -0.0029
     25 C           3.4500   -3.9330    0.0000 C.ar    1  LIG1        0.0196
     26 C           5.1830   -5.9250    0.0000 C.3     1  LIG1        0.0310
     27 O           1.2250   -4.7920    0.0000 O.2     1  LIG1       -0.1528
     28 O           2.2290   -3.0540    0.0000 O.2     1  LIG1       -0.1528
     29 C           0.8710   -2.4330    0.0000 C.3     1  LIG1        0.1173
     30 C           0.0040   -1.9330    0.0000 C.3     1  LIG1        0.1127
     31 O          -2.5920   -2.4380    0.0000 O.2     1  LIG1       -0.2708
     32 N          -3.4210    4.1580    0.0000 N.ar    1  LIG1       -0.1684
     33 C          -3.1080    5.1170    0.0000 C.ar    1  LIG1        0.0805
     34 C          -2.1080    5.1250    0.0000 C.ar    1  LIG1        0.0312
     35 C          -1.7960    4.1750    0.0000 C.ar    1  LIG1        0.0638
     36 C          -0.8380    3.8750    0.0000 C.3     1  LIG1        0.0522
     37 C          -3.7080    5.9250    0.0000 C.3     1  LIG1        0.0540
@<TRIPOS>BOND
     1     1     2    1
     2     1    32   ar
     3     1    35   ar
     4     2     3   ar
     5     2     7   ar
     6     3     4   ar
     7     4     5   ar
     8     5     6   ar
     9     5    12    1
    10     6     7   ar
    11     6    11   ar
    12     7     8   ar
    13     8     9   ar
    14     9    10   ar
    15    10    11   ar
    16    12    13    1
    17    13    14    1
    18    14    15   am
    19    14    31    2
    20    15    16    1
    21    15    30    1
    22    16    17    1
    23    17    18    1
    24    18    19    1
    25    18    29    1
    26    19    20    1
    27    19    27    2
    28    19    28    2
    29    20    21   ar
    30    20    25   ar
    31    21    22   ar
    32    22    23   ar
    33    23    24   ar
    34    23    26    1
    35    24    25   ar
    36    29    30    1
    37    32    33   ar
    38    33    34   ar
    39    33    37    1
    40    34    35   ar
    41    35    36    1
