@<TRIPOS>MOLECULE
37557_ChemDiv_C533-1494
 27 30 0 0 0
SMALL
GASTEIGER
Energy = 0

@<TRIPOS>ATOM
      1 C           2.3460   -0.0330    0.0000 C.2     1  LIG1        0.0694
      2 C           3.2790    0.3130    0.0000 C.3     1  LIG1        0.1589
      3 O           3.8960   -0.4880    0.0000 O.3     1  LIG1       -0.4486
      4 C           3.3290   -1.3040    0.0000 C.2     1  LIG1        0.3372
      5 C           2.3790   -1.0210    0.0000 C.2     1  LIG1        0.0574
      6 C           1.5790   -1.6380    0.0000 C.3     1  LIG1        0.0378
      7 O           3.6460   -2.2710    0.0000 O.2     1  LIG1       -0.2453
      8 C           2.5250    0.9420    0.0000 C.3     1  LIG1        0.0446
      9 C           2.6960    1.9250    0.0000 C.3     1  LIG1        0.0039
     10 C           3.6290    2.2750    0.0000 C.3     1  LIG1        0.0003
     11 C           4.4080    1.6250    0.0000 C.3     1  LIG1        0.0039
     12 C           4.2250    0.6460    0.0000 C.3     1  LIG1        0.0446
     13 C           1.5130    0.5290    0.0000 C.2     1  LIG1        0.2483
     14 N           0.6130    0.0960    0.0000 N.am    1  LIG1       -0.2727
     15 C           0.5460   -0.9040    0.0000 C.3     1  LIG1        0.1152
     16 C          -0.3420   -1.3540    0.0000 C.3     1  LIG1        0.1153
     17 N          -1.1830   -0.8040    0.0000 N.am    1  LIG1       -0.2701
     18 C          -2.0920   -1.2630    0.0000 C.2     1  LIG1        0.2839
     19 C          -2.9290   -0.7040    0.0000 C.ar    1  LIG1        0.1987
     20 O          -3.8960   -0.9460    0.0000 O.2     1  LIG1       -0.4458
     21 C          -4.4130   -0.1000    0.0000 C.ar    1  LIG1        0.1798
     22 C          -3.7960    0.6630    0.0000 C.ar    1  LIG1        0.0440
     23 C          -2.8630    0.2960    0.0000 C.ar    1  LIG1        0.0455
     24 O          -2.1670   -2.2630    0.0000 O.2     1  LIG1       -0.2666
     25 C          -1.1170    0.1960    0.0000 C.3     1  LIG1        0.1153
     26 C          -0.2170    0.6460    0.0000 C.3     1  LIG1        0.1152
     27 O           1.5790    1.5250    0.0000 O.2     1  LIG1       -0.2701
@<TRIPOS>BOND
     1     1     2    1
     2     1     5    2
     3     1    13    1
     4     2     3    1
     5     2     8    1
     6     2    12    1
     7     3     4    1
     8     4     5    1
     9     4     7    2
    10     5     6    1
    11     8     9    1
    12     9    10    1
    13    10    11    1
    14    11    12    1
    15    13    14   am
    16    13    27    2
    17    14    15    1
    18    14    26    1
    19    15    16    1
    20    16    17    1
    21    17    18   am
    22    17    25    1
    23    18    19    1
    24    18    24    2
    25    19    20   ar
    26    19    23   ar
    27    20    21   ar
    28    21    22   ar
    29    22    23   ar
    30    25    26    1
