@<TRIPOS>MOLECULE
37559_ChemDiv_C533-1497
 22 24 0 0 0
SMALL
GASTEIGER
Energy = 0

@<TRIPOS>ATOM
      1 C           1.2170   -0.0290    0.0000 C.2     1  LIG1        0.0694
      2 C           2.1460    0.3130    0.0000 C.3     1  LIG1        0.1589
      3 O           2.7630   -0.4880    0.0000 O.3     1  LIG1       -0.4486
      4 C           2.1960   -1.3000    0.0000 C.2     1  LIG1        0.3372
      5 C           1.2500   -1.0210    0.0000 C.2     1  LIG1        0.0574
      6 C           0.4500   -1.6330    0.0000 C.3     1  LIG1        0.0378
      7 O           2.5130   -2.2670    0.0000 O.2     1  LIG1       -0.2453
      8 C           3.0920    0.6460    0.0000 C.3     1  LIG1        0.0446
      9 C           3.2750    1.6210    0.0000 C.3     1  LIG1        0.0039
     10 C           2.4960    2.2710    0.0000 C.3     1  LIG1        0.0003
     11 C           1.5670    1.9210    0.0000 C.3     1  LIG1        0.0039
     12 C           1.3920    0.9420    0.0000 C.3     1  LIG1        0.0446
     13 C           0.3830    0.5290    0.0000 C.2     1  LIG1        0.2485
     14 N          -0.5170    0.0960    0.0000 N.am    1  LIG1       -0.2647
     15 C          -1.3460    0.6460    0.0000 C.3     1  LIG1        0.1567
     16 C          -2.2460    0.1960    0.0000 C.3     1  LIG1        0.1605
     17 N          -2.3130   -0.8040    0.0000 N.4     1  LIG1        0.3799
     18 C          -1.4710   -1.3500    0.0000 C.3     1  LIG1        0.1605
     19 C          -0.5830   -0.9040    0.0000 C.3     1  LIG1        0.1567
     20 C          -3.2170   -1.2630    0.0000 C.3     1  LIG1        0.1389
     21 C          -3.2790   -2.2670    0.0000 C.3     1  LIG1        0.0688
     22 O           0.4500    1.5210    0.0000 O.2     1  LIG1       -0.2701
@<TRIPOS>BOND
     1     1     2    1
     2     1     5    2
     3     1    13    1
     4     2     3    1
     5     2     8    1
     6     2    12    1
     7     3     4    1
     8     4     5    1
     9     4     7    2
    10     5     6    1
    11     8     9    1
    12     9    10    1
    13    10    11    1
    14    11    12    1
    15    13    14   am
    16    13    22    2
    17    14    15    1
    18    14    19    1
    19    15    16    1
    20    16    17    1
    21    17    18    1
    22    17    20    1
    23    18    19    1
    24    20    21    1
