@<TRIPOS>MOLECULE
37560_ChemDiv_C593-1028
 33 37 0 0 0
SMALL
GASTEIGER
Energy = 0

@<TRIPOS>ATOM
      1 C           1.4210    1.5420    0.0000 C.ar    1  LIG1        0.0628
      2 C           2.3630    1.6040    0.0000 C.ar    1  LIG1        0.0356
      3 S           2.7130    0.7210    0.0000 S.2     1  LIG1       -0.0822
      4 C           1.9710    0.0170    0.0000 C.ar    1  LIG1        0.0833
      5 C           1.1830    0.6210    0.0000 C.ar    1  LIG1        0.0163
      6 C           1.8500   -1.7630    0.0000 C.2     1  LIG1        0.2591
      7 N           0.9880   -2.2630    0.0000 N.am    1  LIG1       -0.2273
      8 C           0.1210   -1.7500    0.0000 C.3     1  LIG1        0.2456
      9 N          -0.7500   -2.2580    0.0000 N.4     1  LIG1        0.3969
     10 C          -1.6080   -1.7500    0.0000 C.3     1  LIG1        0.1683
     11 C          -2.4540   -2.3040    0.0000 C.ar    1  LIG1        0.0302
     12 C          -3.3290   -1.8420    0.0000 C.ar    1  LIG1       -0.0203
     13 C          -4.1790   -2.3710    0.0000 C.ar    1  LIG1       -0.0047
     14 C          -4.1330   -3.3670    0.0000 C.ar    1  LIG1       -0.0046
     15 C          -3.2540   -3.8290    0.0000 C.ar    1  LIG1       -0.0220
     16 C          -2.4080   -3.3080    0.0000 C.ar    1  LIG1       -0.0031
     17 C          -3.2080   -4.8330    0.0000 C.3     1  LIG1        0.0310
     18 C          -3.3710   -0.8630    0.0000 C.3     1  LIG1        0.0309
     19 C          -0.7500   -3.2460    0.0000 C.3     1  LIG1        0.1433
     20 C           0.1210   -3.7540    0.0000 C.3     1  LIG1        0.0845
     21 C           0.9880   -3.2580    0.0000 C.3     1  LIG1        0.1053
     22 O           2.7130   -2.1830    0.0000 O.2     1  LIG1       -0.2692
     23 C           2.7880    2.4500    0.0000 C.ar    1  LIG1        0.0220
     24 C           2.2580    3.2500    0.0000 C.ar    1  LIG1        0.0629
     25 N           1.3170    3.2000    0.0000 N.ar    1  LIG1       -0.2955
     26 C           0.8920    2.3420    0.0000 C.ar    1  LIG1        0.2613
     27 O          -0.0710    2.2920    0.0000 O.2     1  LIG1       -0.2670
     28 C           0.7880    3.9920    0.0000 C.3     1  LIG1        0.1091
     29 C           1.2170    4.8330    0.0000 C.3     1  LIG1        0.0266
     30 C           2.6830    4.1080    0.0000 C.ar    1  LIG1        0.0173
     31 C           3.6460    4.1630    0.0000 C.ar    1  LIG1        0.0015
     32 C           4.1750    3.3710    0.0000 C.ar    1  LIG1        0.0001
     33 C           3.7420    2.5210    0.0000 C.ar    1  LIG1        0.0019
@<TRIPOS>BOND
     1     1     2   ar
     2     1     5   ar
     3     1    26   ar
     4     2     3   ar
     5     2    23   ar
     6     3     4   ar
     7     4     5   ar
     8     4     6    1
     9     6     7   am
    10     6    22    2
    11     7     8    1
    12     7    21    1
    13     8     9    1
    14     9    10    1
    15     9    19    1
    16    10    11    1
    17    11    12   ar
    18    11    16   ar
    19    12    13   ar
    20    12    18    1
    21    13    14   ar
    22    14    15   ar
    23    15    16   ar
    24    15    17    1
    25    19    20    1
    26    20    21    1
    27    23    24   ar
    28    23    33   ar
    29    24    25   ar
    30    24    30   ar
    31    25    26   ar
    32    25    28    1
    33    26    27    2
    34    28    29    1
    35    30    31   ar
    36    31    32   ar
    37    32    33   ar
