@<TRIPOS>MOLECULE
37561_ChemDiv_E616-0702
 27 29 0 0 0
SMALL
GASTEIGER
Energy = 0

@<TRIPOS>ATOM
      1 C           0.5040   -0.2460    0.0000 C.2     1  LIG1        0.0710
      2 C           1.5000   -0.3540    0.0000 C.3     1  LIG1        0.1623
      3 O           1.7080   -1.3330    0.0000 O.3     1  LIG1       -0.4484
      4 C           0.8420   -1.8290    0.0000 C.2     1  LIG1        0.3372
      5 C           0.1000   -1.1630    0.0000 C.2     1  LIG1        0.0574
      6 C          -0.8790   -1.3670    0.0000 C.3     1  LIG1        0.0378
      7 O           0.7380   -2.8250    0.0000 O.2     1  LIG1       -0.2453
      8 C           1.1920    0.5960    0.0000 C.3     1  LIG1        0.0661
      9 C           1.8580    1.3420    0.0000 C.3     1  LIG1        0.0973
     10 N           2.8380    1.1380    0.0000 N.am    1  LIG1       -0.2793
     11 C           3.5080    1.8750    0.0000 C.2     1  LIG1        0.2261
     12 O           3.2000    2.8290    0.0000 O.2     1  LIG1       -0.2749
     13 C           4.4880    1.6710    0.0000 C.3     1  LIG1        0.0948
     14 C           3.1460    0.1830    0.0000 C.3     1  LIG1        0.0973
     15 C           2.4790   -0.5580    0.0000 C.3     1  LIG1        0.0661
     16 C           0.0080    0.6170    0.0000 C.2     1  LIG1        0.2643
     17 N          -0.9920    0.6170    0.0000 N.am    1  LIG1       -0.1969
     18 C          -1.4920    1.4830    0.0000 C.3     1  LIG1        0.1448
     19 C          -2.4920    1.4830    0.0000 C.ar    1  LIG1        0.0335
     20 C          -2.9960    0.6170    0.0000 C.ar    1  LIG1        0.1364
     21 O          -2.4920   -0.2460    0.0000 O.3     1  LIG1       -0.4717
     22 C          -1.4920   -0.2460    0.0000 C.3     1  LIG1        0.2525
     23 C          -3.9960    0.6170    0.0000 C.ar    1  LIG1        0.0366
     24 C          -4.4920    1.4830    0.0000 C.ar    1  LIG1        0.0031
     25 C          -3.9960    2.3500    0.0000 C.ar    1  LIG1       -0.0001
     26 C          -2.9960    2.3500    0.0000 C.ar    1  LIG1        0.0005
     27 O           0.5040    1.4830    0.0000 O.2     1  LIG1       -0.2686
@<TRIPOS>BOND
     1     1     2    1
     2     1     5    2
     3     1    16    1
     4     2     3    1
     5     2     8    1
     6     2    15    1
     7     3     4    1
     8     4     5    1
     9     4     7    2
    10     5     6    1
    11     8     9    1
    12     9    10    1
    13    10    11   am
    14    10    14    1
    15    11    12    2
    16    11    13    1
    17    14    15    1
    18    16    17   am
    19    16    27    2
    20    17    18    1
    21    18    19    1
    22    19    20   ar
    23    19    26   ar
    24    20    21    1
    25    20    23   ar
    26    21    22    1
    27    23    24   ar
    28    24    25   ar
    29    25    26   ar
