@<TRIPOS>MOLECULE
37567_ChemDiv_C533-1168
 29 32 0 0 0
SMALL
GASTEIGER
Energy = 0

@<TRIPOS>ATOM
      1 C           2.2170   -0.3000    0.0000 C.2     1  LIG1        0.0694
      2 C           3.2210   -0.1420    0.0000 C.3     1  LIG1        0.1589
      3 O           3.6750   -1.0380    0.0000 O.3     1  LIG1       -0.4486
      4 C           2.9540   -1.7460    0.0000 C.2     1  LIG1        0.3372
      5 C           2.0630   -1.2880    0.0000 C.2     1  LIG1        0.0574
      6 C           1.1580   -1.7460    0.0000 C.3     1  LIG1        0.0378
      7 O           3.0880   -2.7500    0.0000 O.2     1  LIG1       -0.2453
      8 C           4.1380    0.2630    0.0000 C.3     1  LIG1        0.0446
      9 C           4.2420    1.2580    0.0000 C.3     1  LIG1        0.0039
     10 C           3.4210    1.8630    0.0000 C.3     1  LIG1        0.0003
     11 C           2.5000    1.4460    0.0000 C.3     1  LIG1        0.0039
     12 C           2.4000    0.4500    0.0000 C.3     1  LIG1        0.0446
     13 C           3.5380    2.8670    0.0000 C.3     1  LIG1        0.0000
     14 C           1.5170    0.3960    0.0000 C.2     1  LIG1        0.2483
     15 N           0.5460    0.1290    0.0000 N.am    1  LIG1       -0.2727
     16 C          -0.1630    0.8250    0.0000 C.3     1  LIG1        0.1151
     17 C          -1.1170    0.5670    0.0000 C.3     1  LIG1        0.1123
     18 N          -1.3790   -0.3920    0.0000 N.pl3   1  LIG1       -0.3043
     19 C          -2.3330   -0.6580    0.0000 C.ar    1  LIG1        0.0436
     20 C          -3.0290    0.0460    0.0000 C.ar    1  LIG1       -0.0085
     21 C          -3.9830   -0.2250    0.0000 C.ar    1  LIG1       -0.0034
     22 C          -4.2460   -1.1960    0.0000 C.ar    1  LIG1       -0.0045
     23 C          -3.5330   -1.8790    0.0000 C.ar    1  LIG1       -0.0206
     24 C          -2.5750   -1.6130    0.0000 C.ar    1  LIG1        0.0099
     25 C          -3.8000   -2.8630    0.0000 C.3     1  LIG1        0.0311
     26 C          -2.7960    1.0080    0.0000 C.3     1  LIG1        0.0323
     27 C          -0.6670   -1.0960    0.0000 C.3     1  LIG1        0.1123
     28 C           0.2920   -0.8250    0.0000 C.3     1  LIG1        0.1151
     29 O           1.7670    1.3420    0.0000 O.2     1  LIG1       -0.2701
@<TRIPOS>BOND
     1     1     2    1
     2     1     5    2
     3     1    14    1
     4     2     3    1
     5     2     8    1
     6     2    12    1
     7     3     4    1
     8     4     5    1
     9     4     7    2
    10     5     6    1
    11     8     9    1
    12     9    10    1
    13    10    11    1
    14    10    13    1
    15    11    12    1
    16    14    15   am
    17    14    29    2
    18    15    16    1
    19    15    28    1
    20    16    17    1
    21    17    18    1
    22    18    19    1
    23    18    27    1
    24    19    20   ar
    25    19    24   ar
    26    20    21   ar
    27    20    26    1
    28    21    22   ar
    29    22    23   ar
    30    23    24   ar
    31    23    25    1
    32    27    28    1
