@<TRIPOS>MOLECULE
37569_ChemDiv_C512-0078
 24 27 0 0 0
SMALL
GASTEIGER
Energy = 0

@<TRIPOS>ATOM
      1 C          -0.4290   -0.6580    0.0000 C.ar    1  LIG1        0.2073
      2 N          -0.4290    0.3460    0.0000 N.ar    1  LIG1       -0.2472
      3 C          -1.3040    0.8540    0.0000 C.ar    1  LIG1        0.2681
      4 C          -2.1670    0.3540    0.0000 C.ar    1  LIG1        0.0743
      5 C          -2.1750   -0.6500    0.0000 C.ar    1  LIG1        0.0887
      6 N          -1.3040   -1.1460    0.0000 N.ar    1  LIG1       -0.2146
      7 C          -3.0420   -1.1460    0.0000 C.ar    1  LIG1        0.0194
      8 C          -3.9040   -0.6420    0.0000 C.ar    1  LIG1        0.0015
      9 C          -3.9040    0.3630    0.0000 C.ar    1  LIG1        0.0003
     10 C          -3.0250    0.8630    0.0000 C.ar    1  LIG1        0.0063
     11 O          -1.2960    1.8580    0.0000 O.2     1  LIG1       -0.2665
     12 C           0.4420    0.8460    0.0000 C.ar    1  LIG1        0.0694
     13 C           0.4420    1.8420    0.0000 C.ar    1  LIG1        0.0174
     14 C           1.3000    2.3460    0.0000 C.ar    1  LIG1       -0.0028
     15 C           2.1790    1.8500    0.0000 C.ar    1  LIG1       -0.0221
     16 C           2.1790    0.8460    0.0000 C.ar    1  LIG1       -0.0028
     17 C           1.3000    0.3460    0.0000 C.ar    1  LIG1        0.0174
     18 C           3.0380    2.3540    0.0000 C.3     1  LIG1        0.0264
     19 C           3.9000    1.8580    0.0000 C.3     1  LIG1        0.0050
     20 N           0.4250   -1.1460    0.0000 N.pl3   1  LIG1       -0.2792
     21 C           0.5210   -2.1420    0.0000 C.3     1  LIG1        0.0936
     22 C           1.5000   -2.3500    0.0000 C.3     1  LIG1        0.0233
     23 C           1.9960   -1.4960    0.0000 C.3     1  LIG1        0.0233
     24 C           1.3330   -0.7540    0.0000 C.3     1  LIG1        0.0936
@<TRIPOS>BOND
     1     1     2   ar
     2     1     6   ar
     3     1    20    1
     4     2     3   ar
     5     2    12    1
     6     3     4   ar
     7     3    11    2
     8     4     5   ar
     9     4    10   ar
    10     5     6   ar
    11     5     7   ar
    12     7     8   ar
    13     8     9   ar
    14     9    10   ar
    15    12    13   ar
    16    12    17   ar
    17    13    14   ar
    18    14    15   ar
    19    15    16   ar
    20    15    18    1
    21    16    17   ar
    22    18    19    1
    23    20    21    1
    24    20    24    1
    25    21    22    1
    26    22    23    1
    27    23    24    1
