@<TRIPOS>MOLECULE
37573_ChemDiv_K284-7652
 33 37 0 0 0
SMALL
GASTEIGER
Energy = 0

@<TRIPOS>ATOM
      1 N          -2.5880   -2.5500    0.0000 N.ar    1  LIG1       -0.2536
      2 C          -2.5880   -3.5500    0.0000 C.ar    1  LIG1        0.1878
      3 N          -3.4460   -4.0500    0.0000 N.ar    1  LIG1       -0.2214
      4 C          -4.3080   -3.5500    0.0000 C.ar    1  LIG1        0.0880
      5 C          -4.3080   -2.5500    0.0000 C.ar    1  LIG1        0.0742
      6 C          -3.4460   -2.0540    0.0000 C.ar    1  LIG1        0.2676
      7 O          -3.4460   -1.0540    0.0000 O.2     1  LIG1       -0.2665
      8 C          -5.1710   -2.0540    0.0000 C.ar    1  LIG1        0.0063
      9 C          -6.0290   -2.5500    0.0000 C.ar    1  LIG1        0.0003
     10 C          -6.0290   -3.5500    0.0000 C.ar    1  LIG1        0.0015
     11 C          -5.1710   -4.0500    0.0000 C.ar    1  LIG1        0.0193
     12 S          -1.7080   -4.0540    0.0000 S.2     1  LIG1       -0.0105
     13 C          -1.7080   -2.0540    0.0000 C.ar    1  LIG1        0.0687
     14 C          -0.8460   -2.5500    0.0000 C.ar    1  LIG1        0.0174
     15 C           0.0170   -2.0540    0.0000 C.ar    1  LIG1       -0.0023
     16 C           0.0170   -1.0460    0.0000 C.ar    1  LIG1       -0.0130
     17 C           0.8920   -0.5420    0.0000 C.3     1  LIG1        0.1116
     18 C           0.8790    0.4670    0.0000 C.2     1  LIG1        0.2301
     19 N           1.7250    0.9830    0.0000 N.am    1  LIG1       -0.2788
     20 C           2.6000    0.5000    0.0000 C.3     1  LIG1        0.0993
     21 C           3.4580    1.0170    0.0000 C.3     1  LIG1        0.0782
     22 C           3.4330    2.0250    0.0000 C.3     1  LIG1        0.0903
     23 N           4.2960    2.5420    0.0000 N.4     1  LIG1        0.3730
     24 C           4.2790    3.5380    0.0000 C.3     1  LIG1        0.1383
     25 C           5.1290    4.0540    0.0000 C.3     1  LIG1        0.0629
     26 C           6.0040    3.5750    0.0000 C.3     1  LIG1        0.0123
     27 C           6.0290    2.5750    0.0000 C.3     1  LIG1        0.0629
     28 C           5.1750    2.0630    0.0000 C.3     1  LIG1        0.1383
     29 C           2.5540    2.5080    0.0000 C.3     1  LIG1        0.0782
     30 C           1.7080    1.9960    0.0000 C.3     1  LIG1        0.0993
     31 O           0.0080    0.9540    0.0000 O.2     1  LIG1       -0.2745
     32 C          -0.8460   -0.5460    0.0000 C.ar    1  LIG1       -0.0023
     33 C          -1.7080   -1.0460    0.0000 C.ar    1  LIG1        0.0174
@<TRIPOS>BOND
     1     1     2   ar
     2     1     6   ar
     3     1    13    1
     4     2     3   ar
     5     2    12    2
     6     3     4   ar
     7     4     5   ar
     8     4    11   ar
     9     5     6   ar
    10     5     8   ar
    11     6     7    2
    12     8     9   ar
    13     9    10   ar
    14    10    11   ar
    15    13    14   ar
    16    13    33   ar
    17    14    15   ar
    18    15    16   ar
    19    16    17    1
    20    16    32   ar
    21    17    18    1
    22    18    19   am
    23    18    31    2
    24    19    20    1
    25    19    30    1
    26    20    21    1
    27    21    22    1
    28    22    23    1
    29    22    29    1
    30    23    24    1
    31    23    28    1
    32    24    25    1
    33    25    26    1
    34    26    27    1
    35    27    28    1
    36    29    30    1
    37    32    33   ar
