@<TRIPOS>MOLECULE
37570_ChemDiv_C614-0593
 32 35 0 0 0
SMALL
GASTEIGER
Energy = 0

@<TRIPOS>ATOM
      1 N          -2.1210    1.0580    0.0000 N.ar    1  LIG1       -0.2961
      2 C          -1.5290    1.8710    0.0000 C.ar    1  LIG1        0.1222
      3 N          -2.1210    2.6830    0.0000 N.ar    1  LIG1       -0.2293
      4 C          -3.0710    2.3670    0.0000 C.ar    1  LIG1        0.1167
      5 C          -3.0710    1.3710    0.0000 C.ar    1  LIG1        0.1627
      6 N          -3.9330    0.8630    0.0000 N.ar    1  LIG1       -0.2252
      7 C          -4.8040    1.3630    0.0000 C.ar    1  LIG1        0.1006
      8 C          -4.8040    2.3670    0.0000 C.ar    1  LIG1        0.0223
      9 C          -3.9330    2.8710    0.0000 C.ar    1  LIG1        0.0238
     10 C          -0.5250    1.8710    0.0000 C.3     1  LIG1        0.0736
     11 C          -0.0250    1.0080    0.0000 C.3     1  LIG1        0.0947
     12 C           0.9750    1.0080    0.0000 C.2     1  LIG1        0.2421
     13 N           1.4790    0.1420    0.0000 N.am    1  LIG1       -0.2004
     14 C           2.4830    0.1500    0.0000 C.3     1  LIG1        0.1445
     15 C           2.9670    1.0170    0.0000 C.ar    1  LIG1        0.0334
     16 C           3.9630    1.0250    0.0000 C.ar    1  LIG1        0.1364
     17 O           4.4670    0.1670    0.0000 O.3     1  LIG1       -0.4717
     18 C           5.4630    0.1790    0.0000 C.3     1  LIG1        0.2525
     19 C           4.4420    1.8920    0.0000 C.ar    1  LIG1        0.0366
     20 C           3.9420    2.7460    0.0000 C.ar    1  LIG1        0.0031
     21 C           2.9330    2.7290    0.0000 C.ar    1  LIG1       -0.0001
     22 C           2.4500    1.8710    0.0000 C.ar    1  LIG1        0.0005
     23 O           1.4710    1.8750    0.0000 O.2     1  LIG1       -0.2733
     24 C          -1.8040    0.1040    0.0000 C.3     1  LIG1        0.1353
     25 C          -2.4790   -0.6330    0.0000 C.ar    1  LIG1        0.0007
     26 C          -2.1630   -1.5830    0.0000 C.ar    1  LIG1        0.0007
     27 C          -2.8290   -2.3250    0.0000 C.ar    1  LIG1        0.0366
     28 C          -3.8130   -2.1210    0.0000 C.ar    1  LIG1        0.1387
     29 C          -4.1250   -1.1630    0.0000 C.ar    1  LIG1        0.0366
     30 C          -3.4500   -0.4250    0.0000 C.ar    1  LIG1        0.0007
     31 O          -4.4880   -2.8670    0.0000 O.3     1  LIG1       -0.4714
     32 C          -5.4670   -2.6540    0.0000 C.3     1  LIG1        0.2525
@<TRIPOS>BOND
     1     1     2   ar
     2     1     5   ar
     3     1    24    1
     4     2     3   ar
     5     2    10    1
     6     3     4   ar
     7     4     5   ar
     8     4     9   ar
     9     5     6   ar
    10     6     7   ar
    11     7     8   ar
    12     8     9   ar
    13    10    11    1
    14    11    12    1
    15    12    13   am
    16    12    23    2
    17    13    14    1
    18    14    15    1
    19    15    16   ar
    20    15    22   ar
    21    16    17    1
    22    16    19   ar
    23    17    18    1
    24    19    20   ar
    25    20    21   ar
    26    21    22   ar
    27    24    25    1
    28    25    26   ar
    29    25    30   ar
    30    26    27   ar
    31    27    28   ar
    32    28    29   ar
    33    28    31    1
    34    29    30   ar
    35    31    32    1
