@<TRIPOS>MOLECULE
37577_ChemDiv_C517-4164
 32 35 0 0 0
SMALL
GASTEIGER
Energy = 0

@<TRIPOS>ATOM
      1 S           1.5750   -1.8080    0.0000 S.O2    1  LIG1        0.0809
      2 C           2.0880   -2.6790    0.0000 C.ar    1  LIG1        0.1747
      3 C           3.0920   -2.6790    0.0000 C.ar    1  LIG1        0.1732
      4 O           3.3960   -3.6420    0.0000 O.2     1  LIG1       -0.3567
      5 N           2.5790   -4.2170    0.0000 N.ar    1  LIG1       -0.0803
      6 C           1.7750   -3.6330    0.0000 C.ar    1  LIG1        0.1195
      7 C           0.8290   -3.9460    0.0000 C.3     1  LIG1        0.0571
      8 C           3.6750   -1.8670    0.0000 C.3     1  LIG1        0.0769
      9 N           1.0750   -0.9420    0.0000 N.pl3   1  LIG1       -0.1811
     10 C           0.0790   -0.9420    0.0000 C.3     1  LIG1        0.2008
     11 C          -0.4290   -1.8080    0.0000 C.2     1  LIG1        0.2514
     12 N          -1.4330   -1.8080    0.0000 N.am    1  LIG1       -0.2572
     13 C          -2.0170   -2.6210    0.0000 C.ar    1  LIG1        0.0499
     14 C          -2.9460   -2.3250    0.0000 C.ar    1  LIG1       -0.0068
     15 C          -2.9540   -1.3210    0.0000 C.3     1  LIG1        0.0495
     16 C          -2.0080   -1.0000    0.0000 C.3     1  LIG1        0.1029
     17 C          -3.6790   -2.9750    0.0000 C.ar    1  LIG1       -0.0030
     18 C          -3.4630   -3.9630    0.0000 C.ar    1  LIG1       -0.0002
     19 C          -2.5330   -4.2580    0.0000 C.ar    1  LIG1        0.0013
     20 C          -1.7880   -3.5750    0.0000 C.ar    1  LIG1        0.0146
     21 O           0.0790   -2.6790    0.0000 O.2     1  LIG1       -0.2726
     22 C           1.5750   -0.0710    0.0000 C.ar    1  LIG1        0.0696
     23 C           1.0750    0.7920    0.0000 C.ar    1  LIG1        0.0193
     24 C           1.5750    1.6630    0.0000 C.ar    1  LIG1        0.0382
     25 C           2.5790    1.6630    0.0000 C.ar    1  LIG1        0.1386
     26 C           3.0830    0.8000    0.0000 C.ar    1  LIG1        0.0382
     27 C           2.5790   -0.0710    0.0000 C.ar    1  LIG1        0.0193
     28 O           3.0830    2.5250    0.0000 O.3     1  LIG1       -0.4755
     29 C           2.5790    3.4000    0.0000 C.3     1  LIG1        0.2055
     30 C           3.0920    4.2580    0.0000 C.3     1  LIG1        0.0512
     31 O           2.4500   -1.2960    0.0000 O.2     1  LIG1       -0.1496
     32 O           0.7040   -2.3080    0.0000 O.2     1  LIG1       -0.1496
@<TRIPOS>BOND
     1     1     2    1
     2     1     9    1
     3     1    31    2
     4     1    32    2
     5     2     3   ar
     6     2     6   ar
     7     3     4   ar
     8     3     8    1
     9     4     5   ar
    10     5     6   ar
    11     6     7    1
    12     9    10    1
    13     9    22    1
    14    10    11    1
    15    11    12   am
    16    11    21    2
    17    12    13    1
    18    12    16    1
    19    13    14   ar
    20    13    20   ar
    21    14    15    1
    22    14    17   ar
    23    15    16    1
    24    17    18   ar
    25    18    19   ar
    26    19    20   ar
    27    22    23   ar
    28    22    27   ar
    29    23    24   ar
    30    24    25   ar
    31    25    26   ar
    32    25    28    1
    33    26    27   ar
    34    28    29    1
    35    29    30    1
