@<TRIPOS>MOLECULE
37579_ChemDiv_C517-4217
 35 38 0 0 0
SMALL
GASTEIGER
Energy = 0

@<TRIPOS>ATOM
      1 S           2.8880   -1.8380    0.0000 S.O2    1  LIG1        0.0809
      2 C           3.4000   -2.7170    0.0000 C.ar    1  LIG1        0.1747
      3 C           4.4080   -2.7170    0.0000 C.ar    1  LIG1        0.1732
      4 O           4.7170   -3.6830    0.0000 O.2     1  LIG1       -0.3567
      5 N           3.8960   -4.2630    0.0000 N.ar    1  LIG1       -0.0803
      6 C           3.0880   -3.6750    0.0000 C.ar    1  LIG1        0.1195
      7 C           2.1380   -3.9880    0.0000 C.3     1  LIG1        0.0571
      8 C           4.9960   -1.8960    0.0000 C.3     1  LIG1        0.0769
      9 N           2.3830   -0.9710    0.0000 N.pl3   1  LIG1       -0.1811
     10 C           1.3830   -0.9710    0.0000 C.3     1  LIG1        0.2005
     11 C           0.8710   -1.8380    0.0000 C.2     1  LIG1        0.2480
     12 N          -0.1380   -1.8380    0.0000 N.am    1  LIG1       -0.2737
     13 C          -0.6750   -1.0290    0.0000 C.3     1  LIG1        0.1196
     14 C          -1.6130   -0.9960    0.0000 C.2     1  LIG1       -0.0089
     15 C          -2.1170   -1.8630    0.0000 C.2     1  LIG1       -0.0231
     16 C          -1.6420   -2.7000    0.0000 C.3     1  LIG1        0.0476
     17 C          -0.6420   -2.7170    0.0000 C.3     1  LIG1        0.0984
     18 C          -3.0170   -1.8540    0.0000 C.ar    1  LIG1       -0.0042
     19 C          -3.5040   -0.9630    0.0000 C.ar    1  LIG1       -0.0003
     20 C          -4.4960   -1.0040    0.0000 C.ar    1  LIG1       -0.0000
     21 C          -5.0000   -1.8790    0.0000 C.ar    1  LIG1       -0.0000
     22 C          -4.5210   -2.7210    0.0000 C.ar    1  LIG1       -0.0000
     23 C          -3.5210   -2.7290    0.0000 C.ar    1  LIG1       -0.0003
     24 O           1.3830   -2.7170    0.0000 O.2     1  LIG1       -0.2729
     25 C           2.8880   -0.0920    0.0000 C.ar    1  LIG1        0.0696
     26 C           2.3830    0.7750    0.0000 C.ar    1  LIG1        0.0193
     27 C           2.8880    1.6500    0.0000 C.ar    1  LIG1        0.0382
     28 C           3.8960    1.6500    0.0000 C.ar    1  LIG1        0.1386
     29 C           4.4000    0.7830    0.0000 C.ar    1  LIG1        0.0382
     30 C           3.8960   -0.0920    0.0000 C.ar    1  LIG1        0.0193
     31 O           4.4000    2.5210    0.0000 O.3     1  LIG1       -0.4755
     32 C           3.8960    3.3960    0.0000 C.3     1  LIG1        0.2055
     33 C           4.4080    4.2630    0.0000 C.3     1  LIG1        0.0512
     34 O           2.0130   -2.3420    0.0000 O.2     1  LIG1       -0.1496
     35 O           3.7670   -1.3250    0.0000 O.2     1  LIG1       -0.1496
@<TRIPOS>BOND
     1     1     2    1
     2     1     9    1
     3     1    34    2
     4     1    35    2
     5     2     3   ar
     6     2     6   ar
     7     3     4   ar
     8     3     8    1
     9     4     5   ar
    10     5     6   ar
    11     6     7    1
    12     9    10    1
    13     9    25    1
    14    10    11    1
    15    11    12   am
    16    11    24    2
    17    12    13    1
    18    12    17    1
    19    13    14    1
    20    14    15    2
    21    15    16    1
    22    15    18    1
    23    16    17    1
    24    18    19   ar
    25    18    23   ar
    26    19    20   ar
    27    20    21   ar
    28    21    22   ar
    29    22    23   ar
    30    25    26   ar
    31    25    30   ar
    32    26    27   ar
    33    27    28   ar
    34    28    29   ar
    35    28    31    1
    36    29    30   ar
    37    31    32    1
    38    32    33    1
