@<TRIPOS>MOLECULE
37575_ChemDiv_K284-7684
 38 41 0 0 0
SMALL
GASTEIGER
Energy = 0

@<TRIPOS>ATOM
      1 N           0.8670   -2.2540    0.0000 N.ar    1  LIG1       -0.2536
      2 C          -0.0040   -1.7540    0.0000 C.ar    1  LIG1        0.2677
      3 C          -0.8670   -2.2540    0.0000 C.ar    1  LIG1        0.0774
      4 C          -0.8670   -3.2540    0.0000 C.ar    1  LIG1        0.0912
      5 N          -0.0040   -3.7500    0.0000 N.ar    1  LIG1       -0.2213
      6 C           0.8670   -3.2540    0.0000 C.ar    1  LIG1        0.1878
      7 S           1.7330   -3.7580    0.0000 S.2     1  LIG1       -0.0105
      8 C          -1.7290   -3.7500    0.0000 C.ar    1  LIG1        0.0593
      9 C          -2.5880   -3.2540    0.0000 C.ar    1  LIG1        0.1737
     10 C          -2.5880   -2.2540    0.0000 C.ar    1  LIG1        0.1725
     11 C          -1.7290   -1.7540    0.0000 C.ar    1  LIG1        0.0463
     12 O          -3.4670   -1.7540    0.0000 O.3     1  LIG1       -0.4724
     13 C          -4.3290   -2.2580    0.0000 C.3     1  LIG1        0.2057
     14 C          -5.1920   -1.7630    0.0000 C.3     1  LIG1        0.0512
     15 O          -3.4670   -3.7580    0.0000 O.3     1  LIG1       -0.4724
     16 C          -4.3330   -3.2580    0.0000 C.3     1  LIG1        0.2057
     17 C          -5.1920   -3.7670    0.0000 C.3     1  LIG1        0.0512
     18 O          -0.0040   -0.7580    0.0000 O.2     1  LIG1       -0.2665
     19 C           1.7330   -1.7540    0.0000 C.ar    1  LIG1        0.0687
     20 C           1.7330   -0.7500    0.0000 C.ar    1  LIG1        0.0174
     21 C           2.5960   -0.2500    0.0000 C.ar    1  LIG1       -0.0023
     22 C           3.4540   -0.7500    0.0000 C.ar    1  LIG1       -0.0130
     23 C           4.3330   -0.2460    0.0000 C.3     1  LIG1        0.1116
     24 C           4.3290    0.7630    0.0000 C.2     1  LIG1        0.2302
     25 N           3.4540    1.2630    0.0000 N.am    1  LIG1       -0.2757
     26 C           3.4540    2.2580    0.0000 C.3     1  LIG1        0.1150
     27 C           2.5960    2.7580    0.0000 C.3     1  LIG1        0.1182
     28 N           1.7290    2.2580    0.0000 N.am    1  LIG1       -0.2425
     29 C           0.8580    2.7710    0.0000 C.2     1  LIG1        0.4050
     30 O           0.8580    3.7710    0.0000 O.2     1  LIG1       -0.2262
     31 O          -0.0040    2.2750    0.0000 O.3     1  LIG1       -0.4345
     32 C          -0.8710    2.7710    0.0000 C.3     1  LIG1        0.2102
     33 C          -1.7420    2.2750    0.0000 C.3     1  LIG1        0.0513
     34 C           1.7290    1.2630    0.0000 C.3     1  LIG1        0.1182
     35 C           2.5960    0.7630    0.0000 C.3     1  LIG1        0.1150
     36 O           5.1880    1.2630    0.0000 O.2     1  LIG1       -0.2745
     37 C           3.4540   -1.7540    0.0000 C.ar    1  LIG1       -0.0023
     38 C           2.5960   -2.2540    0.0000 C.ar    1  LIG1        0.0174
@<TRIPOS>BOND
     1     1     2   ar
     2     1     6   ar
     3     1    19    1
     4     2     3   ar
     5     2    18    2
     6     3     4   ar
     7     3    11   ar
     8     4     5   ar
     9     4     8   ar
    10     5     6   ar
    11     6     7    2
    12     8     9   ar
    13     9    10   ar
    14     9    15    1
    15    10    11   ar
    16    10    12    1
    17    12    13    1
    18    13    14    1
    19    15    16    1
    20    16    17    1
    21    19    20   ar
    22    19    38   ar
    23    20    21   ar
    24    21    22   ar
    25    22    23    1
    26    22    37   ar
    27    23    24    1
    28    24    25   am
    29    24    36    2
    30    25    26    1
    31    25    35    1
    32    26    27    1
    33    27    28    1
    34    28    29   am
    35    28    34    1
    36    29    30    2
    37    29    31    1
    38    31    32    1
    39    32    33    1
    40    34    35    1
    41    37    38   ar
