@<TRIPOS>MOLECULE
37576_ChemDiv_C614-0909
 30 33 0 0 0
SMALL
GASTEIGER
Energy = 0

@<TRIPOS>ATOM
      1 N          -1.6330    1.0580    0.0000 N.ar    1  LIG1       -0.2961
      2 C          -1.0420    1.8670    0.0000 C.ar    1  LIG1        0.1222
      3 N          -1.6330    2.6790    0.0000 N.ar    1  LIG1       -0.2293
      4 C          -2.5790    2.3670    0.0000 C.ar    1  LIG1        0.1167
      5 C          -2.5790    1.3670    0.0000 C.ar    1  LIG1        0.1627
      6 N          -3.4500    0.8630    0.0000 N.ar    1  LIG1       -0.2252
      7 C          -4.3130    1.3630    0.0000 C.ar    1  LIG1        0.1006
      8 C          -4.3130    2.3670    0.0000 C.ar    1  LIG1        0.0223
      9 C          -3.4500    2.8670    0.0000 C.ar    1  LIG1        0.0238
     10 C          -0.0420    1.8670    0.0000 C.3     1  LIG1        0.0736
     11 C           0.4580    1.0040    0.0000 C.3     1  LIG1        0.0947
     12 C           1.4540    1.0040    0.0000 C.2     1  LIG1        0.2421
     13 N           1.9630    0.1420    0.0000 N.am    1  LIG1       -0.2005
     14 C           2.9580    0.1500    0.0000 C.3     1  LIG1        0.1430
     15 C           3.4580   -0.7130    0.0000 C.ar    1  LIG1        0.0186
     16 C           4.4580   -0.7080    0.0000 C.ar    1  LIG1        0.0963
     17 N           4.9670   -1.5710    0.0000 N.ar    1  LIG1       -0.2426
     18 C           4.4670   -2.4380    0.0000 C.ar    1  LIG1        0.0989
     19 C           3.4580   -2.4460    0.0000 C.ar    1  LIG1        0.0204
     20 C           2.9580   -1.5830    0.0000 C.ar    1  LIG1        0.0006
     21 O           1.9540    1.8750    0.0000 O.2     1  LIG1       -0.2733
     22 C          -1.3250    0.1040    0.0000 C.3     1  LIG1        0.1353
     23 C          -1.9920   -0.6380    0.0000 C.ar    1  LIG1        0.0007
     24 C          -1.6750   -1.5750    0.0000 C.ar    1  LIG1        0.0007
     25 C          -2.3420   -2.3170    0.0000 C.ar    1  LIG1        0.0366
     26 C          -3.3250   -2.1210    0.0000 C.ar    1  LIG1        0.1387
     27 C          -3.6420   -1.1670    0.0000 C.ar    1  LIG1        0.0366
     28 C          -2.9630   -0.4250    0.0000 C.ar    1  LIG1        0.0007
     29 O          -4.0040   -2.8630    0.0000 O.3     1  LIG1       -0.4714
     30 C          -4.9710   -2.6500    0.0000 C.3     1  LIG1        0.2525
@<TRIPOS>BOND
     1     1     2   ar
     2     1     5   ar
     3     1    22    1
     4     2     3   ar
     5     2    10    1
     6     3     4   ar
     7     4     5   ar
     8     4     9   ar
     9     5     6   ar
    10     6     7   ar
    11     7     8   ar
    12     8     9   ar
    13    10    11    1
    14    11    12    1
    15    12    13   am
    16    12    21    2
    17    13    14    1
    18    14    15    1
    19    15    16   ar
    20    15    20   ar
    21    16    17   ar
    22    17    18   ar
    23    18    19   ar
    24    19    20   ar
    25    22    23    1
    26    23    24   ar
    27    23    28   ar
    28    24    25   ar
    29    25    26   ar
    30    26    27   ar
    31    26    29    1
    32    27    28   ar
    33    29    30    1
