@<TRIPOS>MOLECULE
37578_ChemDiv_C614-0921
 31 34 0 0 0
SMALL
GASTEIGER
Energy = 0

@<TRIPOS>ATOM
      1 N          -2.1080    1.0630    0.0000 N.ar    1  LIG1       -0.2961
      2 C          -1.5170    1.8670    0.0000 C.ar    1  LIG1        0.1222
      3 N          -2.1080    2.6830    0.0000 N.ar    1  LIG1       -0.2293
      4 C          -3.0630    2.3670    0.0000 C.ar    1  LIG1        0.1167
      5 C          -3.0630    1.3670    0.0000 C.ar    1  LIG1        0.1627
      6 N          -3.9290    0.8670    0.0000 N.ar    1  LIG1       -0.2252
      7 C          -4.7920    1.3670    0.0000 C.ar    1  LIG1        0.1006
      8 C          -4.7920    2.3670    0.0000 C.ar    1  LIG1        0.0223
      9 C          -3.9290    2.8670    0.0000 C.ar    1  LIG1        0.0238
     10 C          -0.5170    1.8670    0.0000 C.3     1  LIG1        0.0736
     11 C          -0.0170    1.0040    0.0000 C.3     1  LIG1        0.0947
     12 C           0.9830    1.0040    0.0000 C.2     1  LIG1        0.2421
     13 N           1.4830    0.1380    0.0000 N.am    1  LIG1       -0.2005
     14 C           2.4830    0.1420    0.0000 C.3     1  LIG1        0.1415
     15 C           2.9710    1.0170    0.0000 C.ar    1  LIG1        0.0003
     16 C           3.9710    1.0210    0.0000 C.ar    1  LIG1        0.0088
     17 C           4.4540    1.8880    0.0000 C.ar    1  LIG1        0.0574
     18 CL          5.4540    1.9000    0.0000 Cl      1  LIG1       -0.0823
     19 C           3.9500    2.7460    0.0000 C.ar    1  LIG1        0.0114
     20 C           2.9500    2.7290    0.0000 C.ar    1  LIG1        0.0006
     21 C           2.4630    1.8670    0.0000 C.ar    1  LIG1       -0.0025
     22 O           1.4830    1.8710    0.0000 O.2     1  LIG1       -0.2733
     23 C          -1.7960    0.1080    0.0000 C.3     1  LIG1        0.1353
     24 C          -2.4750   -0.6330    0.0000 C.ar    1  LIG1        0.0007
     25 C          -2.1540   -1.5830    0.0000 C.ar    1  LIG1        0.0007
     26 C          -2.8210   -2.3290    0.0000 C.ar    1  LIG1        0.0366
     27 C          -3.8080   -2.1210    0.0000 C.ar    1  LIG1        0.1387
     28 C          -4.1170   -1.1670    0.0000 C.ar    1  LIG1        0.0366
     29 C          -3.4420   -0.4210    0.0000 C.ar    1  LIG1        0.0007
     30 O          -4.4750   -2.8630    0.0000 O.3     1  LIG1       -0.4714
     31 C          -5.4580   -2.6630    0.0000 C.3     1  LIG1        0.2525
@<TRIPOS>BOND
     1     1     2   ar
     2     1     5   ar
     3     1    23    1
     4     2     3   ar
     5     2    10    1
     6     3     4   ar
     7     4     5   ar
     8     4     9   ar
     9     5     6   ar
    10     6     7   ar
    11     7     8   ar
    12     8     9   ar
    13    10    11    1
    14    11    12    1
    15    12    13   am
    16    12    22    2
    17    13    14    1
    18    14    15    1
    19    15    16   ar
    20    15    21   ar
    21    16    17   ar
    22    17    18    1
    23    17    19   ar
    24    19    20   ar
    25    20    21   ar
    26    23    24    1
    27    24    25   ar
    28    24    29   ar
    29    25    26   ar
    30    26    27   ar
    31    27    28   ar
    32    27    30    1
    33    28    29   ar
    34    30    31    1
