@<TRIPOS>MOLECULE
37571_ChemDiv_K284-7591
 29 32 0 0 0
SMALL
GASTEIGER
Energy = 0

@<TRIPOS>ATOM
      1 N          -1.6040   -2.0130    0.0000 N.ar    1  LIG1       -0.2536
      2 C          -1.6040   -3.0130    0.0000 C.ar    1  LIG1        0.1878
      3 N          -2.4710   -3.5130    0.0000 N.ar    1  LIG1       -0.2214
      4 C          -3.3330   -3.0130    0.0000 C.ar    1  LIG1        0.0880
      5 C          -3.3330   -2.0130    0.0000 C.ar    1  LIG1        0.0742
      6 C          -2.4710   -1.5130    0.0000 C.ar    1  LIG1        0.2676
      7 O          -2.4710   -0.5170    0.0000 O.2     1  LIG1       -0.2665
      8 C          -4.1960   -1.5130    0.0000 C.ar    1  LIG1        0.0063
      9 C          -5.0670   -2.0130    0.0000 C.ar    1  LIG1        0.0003
     10 C          -5.0670   -3.0130    0.0000 C.ar    1  LIG1        0.0015
     11 C          -4.1960   -3.5130    0.0000 C.ar    1  LIG1        0.0193
     12 S          -0.7290   -3.5170    0.0000 S.2     1  LIG1       -0.0105
     13 C          -0.6330   -1.7460    0.0000 C.ar    1  LIG1        0.0687
     14 C          -0.3790   -0.7790    0.0000 C.ar    1  LIG1        0.0174
     15 C           0.5880   -0.5210    0.0000 C.ar    1  LIG1       -0.0023
     16 C           1.2880   -1.2170    0.0000 C.ar    1  LIG1       -0.0129
     17 C           2.2540   -0.9420    0.0000 C.3     1  LIG1        0.1131
     18 C           2.5080    0.0290    0.0000 C.2     1  LIG1        0.2458
     19 N           3.4670    0.3000    0.0000 N.am    1  LIG1       -0.2069
     20 C           3.7170    1.2710    0.0000 C.3     1  LIG1        0.0953
     21 C           4.6750    1.5420    0.0000 C.3     1  LIG1        0.0217
     22 C           5.0630    2.4630    0.0000 C.3     1  LIG1        0.0018
     23 C           4.5880    3.3380    0.0000 C.3     1  LIG1        0.0001
     24 C           3.6000    3.5210    0.0000 C.3     1  LIG1        0.0001
     25 C           2.8540    2.8580    0.0000 C.3     1  LIG1        0.0018
     26 C           2.9040    1.8540    0.0000 C.3     1  LIG1        0.0217
     27 O           1.7960    0.7250    0.0000 O.2     1  LIG1       -0.2730
     28 C           1.0250   -2.2000    0.0000 C.ar    1  LIG1       -0.0023
     29 C           0.0750   -2.4580    0.0000 C.ar    1  LIG1        0.0174
@<TRIPOS>BOND
     1     1     2   ar
     2     1     6   ar
     3     1    13    1
     4     2     3   ar
     5     2    12    2
     6     3     4   ar
     7     4     5   ar
     8     4    11   ar
     9     5     6   ar
    10     5     8   ar
    11     6     7    2
    12     8     9   ar
    13     9    10   ar
    14    10    11   ar
    15    13    14   ar
    16    13    29   ar
    17    14    15   ar
    18    15    16   ar
    19    16    17    1
    20    16    28   ar
    21    17    18    1
    22    18    19   am
    23    18    27    2
    24    19    20    1
    25    20    21    1
    26    20    26    1
    27    21    22    1
    28    22    23    1
    29    23    24    1
    30    24    25    1
    31    25    26    1
    32    28    29   ar
