@<TRIPOS>MOLECULE
37581_ChemDiv_C517-5229
 34 38 0 0 0
SMALL
GASTEIGER
Energy = 0

@<TRIPOS>ATOM
      1 S           0.5580    0.5000    0.0000 S.O2    1  LIG1        0.0638
      2 N          -0.4330    0.5000    0.0000 N.3     1  LIG1       -0.1433
      3 C          -0.8920   -0.3250    0.0000 C.3     1  LIG1        0.1585
      4 C          -1.8960   -0.3250    0.0000 C.3     1  LIG1        0.1587
      5 N          -2.3880    0.5000    0.0000 N.4     1  LIG1        0.3815
      6 C          -3.4000    0.5000    0.0000 C.3     1  LIG1        0.1331
      7 C          -3.8170   -0.2500    0.0000 C.ar    1  LIG1        0.0328
      8 C          -3.3170   -1.1250    0.0000 C.ar    1  LIG1        0.0024
      9 C          -3.8170   -2.0000    0.0000 C.ar    1  LIG1        0.0113
     10 C          -4.8710   -2.0000    0.0000 C.ar    1  LIG1        0.0577
     11 C          -5.3630   -1.1250    0.0000 C.ar    1  LIG1        0.0113
     12 C          -4.8710   -0.2500    0.0000 C.ar    1  LIG1        0.0024
     13 CL         -5.4500   -3.0540    0.0000 Cl      1  LIG1       -0.0822
     14 C          -3.8170    1.3000    0.0000 C.ar    1  LIG1        0.0328
     15 C          -3.3170    2.1630    0.0000 C.ar    1  LIG1        0.0016
     16 C          -3.8170    3.0580    0.0000 C.ar    1  LIG1       -0.0001
     17 C          -4.8710    3.0580    0.0000 C.ar    1  LIG1       -0.0000
     18 C          -5.3630    2.1630    0.0000 C.ar    1  LIG1       -0.0001
     19 C          -4.8710    1.3000    0.0000 C.ar    1  LIG1        0.0016
     20 C          -1.8960    1.3960    0.0000 C.3     1  LIG1        0.1587
     21 C          -0.8920    1.3960    0.0000 C.3     1  LIG1        0.1585
     22 C           1.5630    0.5000    0.0000 C.ar    1  LIG1        0.1253
     23 C           2.0500   -0.3540    0.0000 C.ar    1  LIG1        0.0590
     24 C           3.0330   -0.3540    0.0000 C.ar    1  LIG1        0.1673
     25 O           3.6960   -1.0790    0.0000 O.2     1  LIG1       -0.4067
     26 C           4.5920   -0.6880    0.0000 C.ar    1  LIG1        0.4220
     27 N           4.4960    0.2960    0.0000 N.ar    1  LIG1       -0.2601
     28 C           3.5250    0.5080    0.0000 C.ar    1  LIG1        0.1001
     29 C           3.0330    1.3500    0.0000 C.ar    1  LIG1        0.0218
     30 C           2.0500    1.3500    0.0000 C.ar    1  LIG1        0.0216
     31 C           5.2210    0.9670    0.0000 C.3     1  LIG1        0.1369
     32 O           5.4460   -1.1750    0.0000 O.2     1  LIG1       -0.2226
     33 O           0.5460    1.4920    0.0000 O.2     1  LIG1       -0.1528
     34 O           0.5580   -0.5040    0.0000 O.2     1  LIG1       -0.1528
@<TRIPOS>BOND
     1     1     2    1
     2     1    22    1
     3     1    33    2
     4     1    34    2
     5     2     3    1
     6     2    21    1
     7     3     4    1
     8     4     5    1
     9     5     6    1
    10     5    20    1
    11     6     7    1
    12     6    14    1
    13     7     8   ar
    14     7    12   ar
    15     8     9   ar
    16     9    10   ar
    17    10    11   ar
    18    10    13    1
    19    11    12   ar
    20    14    15   ar
    21    14    19   ar
    22    15    16   ar
    23    16    17   ar
    24    17    18   ar
    25    18    19   ar
    26    20    21    1
    27    22    23   ar
    28    22    30   ar
    29    23    24   ar
    30    24    25   ar
    31    24    28   ar
    32    25    26   ar
    33    26    27   ar
    34    26    32    2
    35    27    28   ar
    36    27    31    1
    37    28    29   ar
    38    29    30   ar
