@<TRIPOS>MOLECULE
37580_ChemDiv_C614-0970
 28 31 0 0 0
SMALL
GASTEIGER
Energy = 0

@<TRIPOS>ATOM
      1 N          -1.9540    0.8630    0.0000 N.ar    1  LIG1       -0.2961
      2 C          -1.3670    1.6630    0.0000 C.ar    1  LIG1        0.1222
      3 N          -1.9540    2.4790    0.0000 N.ar    1  LIG1       -0.2293
      4 C          -2.9040    2.1630    0.0000 C.ar    1  LIG1        0.1167
      5 C          -2.9040    1.1630    0.0000 C.ar    1  LIG1        0.1627
      6 N          -3.7710    0.6670    0.0000 N.ar    1  LIG1       -0.2252
      7 C          -4.6330    1.1630    0.0000 C.ar    1  LIG1        0.1006
      8 C          -4.6330    2.1630    0.0000 C.ar    1  LIG1        0.0223
      9 C          -3.7710    2.6630    0.0000 C.ar    1  LIG1        0.0238
     10 C          -0.3670    1.6630    0.0000 C.3     1  LIG1        0.0736
     11 C           0.1330    0.8000    0.0000 C.3     1  LIG1        0.0947
     12 C           1.1290    0.8000    0.0000 C.2     1  LIG1        0.2421
     13 N           1.6330   -0.0630    0.0000 N.am    1  LIG1       -0.2005
     14 C           2.6330   -0.0540    0.0000 C.3     1  LIG1        0.1415
     15 C           3.1330   -0.9250    0.0000 C.ar    1  LIG1       -0.0006
     16 C           2.6170   -1.7830    0.0000 C.ar    1  LIG1       -0.0026
     17 C           3.1170   -2.6580    0.0000 C.ar    1  LIG1       -0.0003
     18 C           4.1250   -2.6580    0.0000 C.ar    1  LIG1       -0.0000
     19 C           4.6290   -1.7830    0.0000 C.ar    1  LIG1       -0.0003
     20 C           4.1290   -0.9170    0.0000 C.ar    1  LIG1       -0.0026
     21 O           1.6290    1.6670    0.0000 O.2     1  LIG1       -0.2733
     22 C          -1.6500   -0.0920    0.0000 C.3     1  LIG1        0.1353
     23 C          -2.3130   -0.8330    0.0000 C.ar    1  LIG1        0.0005
     24 C          -3.2880   -0.6210    0.0000 C.ar    1  LIG1       -0.0024
     25 C          -3.9630   -1.3630    0.0000 C.ar    1  LIG1       -0.0003
     26 C          -3.6500   -2.3130    0.0000 C.ar    1  LIG1       -0.0000
     27 C          -2.6670   -2.5210    0.0000 C.ar    1  LIG1       -0.0003
     28 C          -2.0000   -1.7790    0.0000 C.ar    1  LIG1       -0.0024
@<TRIPOS>BOND
     1     1     2   ar
     2     1     5   ar
     3     1    22    1
     4     2     3   ar
     5     2    10    1
     6     3     4   ar
     7     4     5   ar
     8     4     9   ar
     9     5     6   ar
    10     6     7   ar
    11     7     8   ar
    12     8     9   ar
    13    10    11    1
    14    11    12    1
    15    12    13   am
    16    12    21    2
    17    13    14    1
    18    14    15    1
    19    15    16   ar
    20    15    20   ar
    21    16    17   ar
    22    17    18   ar
    23    18    19   ar
    24    19    20   ar
    25    22    23    1
    26    23    24   ar
    27    23    28   ar
    28    24    25   ar
    29    25    26   ar
    30    26    27   ar
    31    27    28   ar
