@<TRIPOS>MOLECULE
37589_ChemDiv_C533-1467
 26 29 0 0 0
SMALL
GASTEIGER
Energy = 0

@<TRIPOS>ATOM
      1 C           2.0790    0.1830    0.0000 C.2     1  LIG1        0.0694
      2 C           3.0130    0.5290    0.0000 C.3     1  LIG1        0.1589
      3 O           3.6290   -0.2710    0.0000 O.3     1  LIG1       -0.4486
      4 C           3.0630   -1.0880    0.0000 C.2     1  LIG1        0.3372
      5 C           2.1130   -0.8040    0.0000 C.2     1  LIG1        0.0574
      6 C           1.3130   -1.4210    0.0000 C.3     1  LIG1        0.0378
      7 O           3.3790   -2.0540    0.0000 O.2     1  LIG1       -0.2453
      8 C           2.2540    1.1580    0.0000 C.3     1  LIG1        0.0446
      9 C           2.4290    2.1420    0.0000 C.3     1  LIG1        0.0039
     10 C           3.3630    2.4920    0.0000 C.3     1  LIG1        0.0003
     11 C           4.1380    1.8420    0.0000 C.3     1  LIG1        0.0039
     12 C           3.9540    0.8630    0.0000 C.3     1  LIG1        0.0446
     13 C           1.2460    0.7460    0.0000 C.2     1  LIG1        0.2483
     14 N           0.3460    0.3130    0.0000 N.am    1  LIG1       -0.2727
     15 C          -0.4880    0.8630    0.0000 C.3     1  LIG1        0.1151
     16 C          -1.3880    0.4130    0.0000 C.3     1  LIG1        0.1123
     17 N          -1.4540   -0.5880    0.0000 N.pl3   1  LIG1       -0.3041
     18 C          -0.6080   -1.1380    0.0000 C.3     1  LIG1        0.1123
     19 C           0.2790   -0.6880    0.0000 C.3     1  LIG1        0.1151
     20 C          -2.3540   -1.0380    0.0000 C.ar    1  LIG1        0.0479
     21 C          -3.1830   -0.4880    0.0000 C.ar    1  LIG1        0.0145
     22 C          -4.0750   -0.9380    0.0000 C.ar    1  LIG1        0.0013
     23 C          -4.1420   -1.9380    0.0000 C.ar    1  LIG1        0.0001
     24 C          -3.3000   -2.4880    0.0000 C.ar    1  LIG1        0.0013
     25 C          -2.4210   -2.0380    0.0000 C.ar    1  LIG1        0.0145
     26 O           1.3130    1.7420    0.0000 O.2     1  LIG1       -0.2701
@<TRIPOS>BOND
     1     1     2    1
     2     1     5    2
     3     1    13    1
     4     2     3    1
     5     2     8    1
     6     2    12    1
     7     3     4    1
     8     4     5    1
     9     4     7    2
    10     5     6    1
    11     8     9    1
    12     9    10    1
    13    10    11    1
    14    11    12    1
    15    13    14   am
    16    13    26    2
    17    14    15    1
    18    14    19    1
    19    15    16    1
    20    16    17    1
    21    17    18    1
    22    17    20    1
    23    18    19    1
    24    20    21   ar
    25    20    25   ar
    26    21    22   ar
    27    22    23   ar
    28    23    24   ar
    29    24    25   ar
