@<TRIPOS>MOLECULE
37583_ChemDiv_C517-5280
 19 21 0 0 0
SMALL
GASTEIGER
Energy = 0

@<TRIPOS>ATOM
      1 S          -1.1920    0.3460    0.0000 S.O2    1  LIG1        0.0634
      2 C          -0.1790    0.3460    0.0000 C.ar    1  LIG1        0.1253
      3 C           0.3170   -0.5170    0.0000 C.ar    1  LIG1        0.0590
      4 C           1.3080   -0.5170    0.0000 C.ar    1  LIG1        0.1673
      5 O           1.9750   -1.2500    0.0000 O.2     1  LIG1       -0.4067
      6 C           2.8790   -0.8500    0.0000 C.ar    1  LIG1        0.4220
      7 N           2.7830    0.1420    0.0000 N.ar    1  LIG1       -0.2601
      8 C           1.8040    0.3580    0.0000 C.ar    1  LIG1        0.1001
      9 C           1.3080    1.2080    0.0000 C.ar    1  LIG1        0.0218
     10 C           0.3170    1.2080    0.0000 C.ar    1  LIG1        0.0216
     11 C           3.5170    0.8210    0.0000 C.3     1  LIG1        0.1369
     12 O           3.7420   -1.3460    0.0000 O.2     1  LIG1       -0.2226
     13 N          -2.1960    0.3460    0.0000 N.3     1  LIG1       -0.1555
     14 C          -2.7880   -0.4630    0.0000 C.3     1  LIG1        0.0958
     15 C          -3.7460   -0.1580    0.0000 C.3     1  LIG1        0.0206
     16 C          -3.7380    0.8540    0.0000 C.3     1  LIG1        0.0206
     17 C          -2.7880    1.1670    0.0000 C.3     1  LIG1        0.0958
     18 O          -1.1920   -0.6670    0.0000 O.2     1  LIG1       -0.1528
     19 O          -1.2040    1.3500    0.0000 O.2     1  LIG1       -0.1528
@<TRIPOS>BOND
     1     1     2    1
     2     1    13    1
     3     1    18    2
     4     1    19    2
     5     2     3   ar
     6     2    10   ar
     7     3     4   ar
     8     4     5   ar
     9     4     8   ar
    10     5     6   ar
    11     6     7   ar
    12     6    12    2
    13     7     8   ar
    14     7    11    1
    15     8     9   ar
    16     9    10   ar
    17    13    14    1
    18    13    17    1
    19    14    15    1
    20    15    16    1
    21    16    17    1
