@<TRIPOS>MOLECULE
37582_ChemDiv_C614-0976
 30 33 0 0 0
SMALL
GASTEIGER
Energy = 0

@<TRIPOS>ATOM
      1 N          -2.4540    1.2880    0.0000 N.ar    1  LIG1       -0.2961
      2 C          -1.8630    2.1000    0.0000 C.ar    1  LIG1        0.1222
      3 N          -2.4540    2.9040    0.0000 N.ar    1  LIG1       -0.2293
      4 C          -3.4080    2.5960    0.0000 C.ar    1  LIG1        0.1167
      5 C          -3.4080    1.6000    0.0000 C.ar    1  LIG1        0.1627
      6 N          -4.2710    1.0880    0.0000 N.ar    1  LIG1       -0.2252
      7 C          -5.1330    1.5880    0.0000 C.ar    1  LIG1        0.1006
      8 C          -5.1330    2.5880    0.0000 C.ar    1  LIG1        0.0223
      9 C          -4.2710    3.0960    0.0000 C.ar    1  LIG1        0.0238
     10 C          -0.8670    2.1000    0.0000 C.3     1  LIG1        0.0736
     11 C          -0.3670    1.2330    0.0000 C.3     1  LIG1        0.0947
     12 C           0.6330    1.2330    0.0000 C.2     1  LIG1        0.2421
     13 N           1.1330    0.3710    0.0000 N.am    1  LIG1       -0.2005
     14 C           2.1330    0.3710    0.0000 C.3     1  LIG1        0.1415
     15 C           2.6290   -0.4920    0.0000 C.ar    1  LIG1       -0.0004
     16 C           2.1250   -1.3540    0.0000 C.ar    1  LIG1        0.0006
     17 C           2.6250   -2.2290    0.0000 C.ar    1  LIG1        0.0366
     18 C           3.6290   -2.2290    0.0000 C.ar    1  LIG1        0.1387
     19 C           4.1290   -1.3540    0.0000 C.ar    1  LIG1        0.0366
     20 C           3.6290   -0.4920    0.0000 C.ar    1  LIG1        0.0006
     21 O           4.1290   -3.0920    0.0000 O.3     1  LIG1       -0.4714
     22 C           5.1290   -3.0920    0.0000 C.3     1  LIG1        0.2525
     23 O           1.1330    2.1000    0.0000 O.2     1  LIG1       -0.2733
     24 C          -2.1420    0.3330    0.0000 C.3     1  LIG1        0.1353
     25 C          -2.8170   -0.4080    0.0000 C.ar    1  LIG1        0.0005
     26 C          -3.7880   -0.1960    0.0000 C.ar    1  LIG1       -0.0024
     27 C          -4.4580   -0.9380    0.0000 C.ar    1  LIG1       -0.0003
     28 C          -4.1500   -1.8920    0.0000 C.ar    1  LIG1       -0.0000
     29 C          -3.1670   -2.0960    0.0000 C.ar    1  LIG1       -0.0003
     30 C          -2.5000   -1.3540    0.0000 C.ar    1  LIG1       -0.0024
@<TRIPOS>BOND
     1     1     2   ar
     2     1     5   ar
     3     1    24    1
     4     2     3   ar
     5     2    10    1
     6     3     4   ar
     7     4     5   ar
     8     4     9   ar
     9     5     6   ar
    10     6     7   ar
    11     7     8   ar
    12     8     9   ar
    13    10    11    1
    14    11    12    1
    15    12    13   am
    16    12    23    2
    17    13    14    1
    18    14    15    1
    19    15    16   ar
    20    15    20   ar
    21    16    17   ar
    22    17    18   ar
    23    18    19   ar
    24    18    21    1
    25    19    20   ar
    26    21    22    1
    27    24    25    1
    28    25    26   ar
    29    25    30   ar
    30    26    27   ar
    31    27    28   ar
    32    28    29   ar
    33    29    30   ar
