@<TRIPOS>MOLECULE
37594_ChemDiv_C594-0024
 23 26 0 0 0
SMALL
GASTEIGER
Energy = 0

@<TRIPOS>ATOM
      1 N          -0.3750   -1.2880    0.0000 N.ar    1  LIG1       -0.1728
      2 C           0.5000   -0.8330    0.0000 C.ar    1  LIG1        0.1698
      3 C           1.1920   -1.5250    0.0000 C.ar    1  LIG1        0.0725
      4 C           0.7380   -2.4040    0.0000 C.ar    1  LIG1        0.1925
      5 N          -0.2170   -2.2830    0.0000 N.ar    1  LIG1       -0.1426
      6 N           1.2040   -3.3130    0.0000 N.pl3   1  LIG1       -0.1053
      7 C           2.1670   -1.2670    0.0000 C.ar    1  LIG1        0.0075
      8 C           2.4250   -0.3040    0.0000 C.ar    1  LIG1        0.0181
      9 C           1.7210    0.3960    0.0000 C.ar    1  LIG1        0.0860
     10 N           0.7580    0.1380    0.0000 N.ar    1  LIG1       -0.2262
     11 C           1.9790    1.3580    0.0000 C.ar    1  LIG1        0.0560
     12 C           2.9540    1.6170    0.0000 C.ar    1  LIG1        0.1402
     13 C           3.6460    0.9250    0.0000 C.ar    1  LIG1        0.0370
     14 C           3.3830   -0.0460    0.0000 C.ar    1  LIG1        0.0046
     15 O           3.2420    2.5880    0.0000 O.3     1  LIG1       -0.4714
     16 C           2.5500    3.3170    0.0000 C.3     1  LIG1        0.2525
     17 C          -1.2750   -0.8130    0.0000 C.2     1  LIG1        0.3163
     18 C          -2.1290   -1.3500    0.0000 C.ar    1  LIG1        0.2031
     19 O          -3.0880   -1.0630    0.0000 O.2     1  LIG1       -0.4455
     20 C          -3.6500   -1.8920    0.0000 C.ar    1  LIG1        0.1798
     21 C          -3.0420   -2.6920    0.0000 C.ar    1  LIG1        0.0440
     22 C          -2.0920   -2.3580    0.0000 C.ar    1  LIG1        0.0457
     23 O          -1.3130    0.1960    0.0000 O.2     1  LIG1       -0.2617
@<TRIPOS>BOND
     1     1     2   ar
     2     1     5   ar
     3     1    17   am
     4     2     3   ar
     5     2    10   ar
     6     3     4   ar
     7     3     7   ar
     8     4     5   ar
     9     4     6    1
    10     7     8   ar
    11     8     9   ar
    12     8    14   ar
    13     9    10   ar
    14     9    11   ar
    15    11    12   ar
    16    12    13   ar
    17    12    15    1
    18    13    14   ar
    19    15    16    1
    20    17    18    1
    21    17    23    2
    22    18    19   ar
    23    18    22   ar
    24    19    20   ar
    25    20    21   ar
    26    21    22   ar
