@<TRIPOS>MOLECULE
37592_ChemDiv_C594-0017
 24 27 0 0 0
SMALL
GASTEIGER
Energy = 0

@<TRIPOS>ATOM
      1 N          -0.3210   -1.2500    0.0000 N.ar    1  LIG1       -0.1728
      2 C           0.5540   -0.8000    0.0000 C.ar    1  LIG1        0.1698
      3 C           1.2460   -1.4920    0.0000 C.ar    1  LIG1        0.0725
      4 C           0.7920   -2.3670    0.0000 C.ar    1  LIG1        0.1925
      5 N          -0.1630   -2.2500    0.0000 N.ar    1  LIG1       -0.1426
      6 N           1.2540   -3.2790    0.0000 N.pl3   1  LIG1       -0.1053
      7 C           2.2210   -1.2330    0.0000 C.ar    1  LIG1        0.0075
      8 C           2.4790   -0.2750    0.0000 C.ar    1  LIG1        0.0181
      9 C           1.7710    0.4330    0.0000 C.ar    1  LIG1        0.0860
     10 N           0.8130    0.1710    0.0000 N.ar    1  LIG1       -0.2262
     11 C           2.0330    1.3920    0.0000 C.ar    1  LIG1        0.0560
     12 C           3.0040    1.6500    0.0000 C.ar    1  LIG1        0.1402
     13 C           3.6960    0.9580    0.0000 C.ar    1  LIG1        0.0370
     14 C           3.4380   -0.0170    0.0000 C.ar    1  LIG1        0.0046
     15 O           3.2960    2.6170    0.0000 O.3     1  LIG1       -0.4714
     16 C           2.6000    3.3460    0.0000 C.3     1  LIG1        0.2525
     17 C          -1.2210   -0.7790    0.0000 C.2     1  LIG1        0.3163
     18 C          -2.0710   -1.3130    0.0000 C.ar    1  LIG1        0.2036
     19 O          -2.2460   -2.3040    0.0000 O.2     1  LIG1       -0.4421
     20 C          -3.2330   -2.4460    0.0000 C.ar    1  LIG1        0.1793
     21 C          -3.6790   -1.5460    0.0000 C.ar    1  LIG1        0.0478
     22 C          -2.9580   -0.8420    0.0000 C.ar    1  LIG1        0.0462
     23 BR         -3.7000   -3.3420    0.0000 Br      1  LIG1       -0.0078
     24 O          -1.2580    0.2290    0.0000 O.2     1  LIG1       -0.2617
@<TRIPOS>BOND
     1     1     2   ar
     2     1     5   ar
     3     1    17   am
     4     2     3   ar
     5     2    10   ar
     6     3     4   ar
     7     3     7   ar
     8     4     5   ar
     9     4     6    1
    10     7     8   ar
    11     8     9   ar
    12     8    14   ar
    13     9    10   ar
    14     9    11   ar
    15    11    12   ar
    16    12    13   ar
    17    12    15    1
    18    13    14   ar
    19    15    16    1
    20    17    18    1
    21    17    24    2
    22    18    19   ar
    23    18    22   ar
    24    19    20   ar
    25    20    21   ar
    26    20    23    1
    27    21    22   ar
