@<TRIPOS>MOLECULE
37591_ChemDiv_C533-1470
 28 31 0 0 0
SMALL
GASTEIGER
Energy = 0

@<TRIPOS>ATOM
      1 C           2.0750    0.6830    0.0000 C.2     1  LIG1        0.0694
      2 C           3.0080    1.0290    0.0000 C.3     1  LIG1        0.1589
      3 O           3.6250    0.2290    0.0000 O.3     1  LIG1       -0.4486
      4 C           3.0580   -0.5880    0.0000 C.2     1  LIG1        0.3372
      5 C           2.1080   -0.3040    0.0000 C.2     1  LIG1        0.0574
      6 C           1.3130   -0.9210    0.0000 C.3     1  LIG1        0.0378
      7 O           3.3750   -1.5500    0.0000 O.2     1  LIG1       -0.2453
      8 C           2.2540    1.6540    0.0000 C.3     1  LIG1        0.0446
      9 C           2.4250    2.6380    0.0000 C.3     1  LIG1        0.0039
     10 C           3.3580    2.9880    0.0000 C.3     1  LIG1        0.0003
     11 C           4.1380    2.3380    0.0000 C.3     1  LIG1        0.0039
     12 C           3.9540    1.3630    0.0000 C.3     1  LIG1        0.0446
     13 C           1.2460    1.2460    0.0000 C.2     1  LIG1        0.2483
     14 N           0.3460    0.8130    0.0000 N.am    1  LIG1       -0.2727
     15 C           0.2790   -0.1880    0.0000 C.3     1  LIG1        0.1151
     16 C          -0.6080   -0.6380    0.0000 C.3     1  LIG1        0.1123
     17 N          -1.4540   -0.0880    0.0000 N.pl3   1  LIG1       -0.3043
     18 C          -2.3540   -0.5380    0.0000 C.ar    1  LIG1        0.0436
     19 C          -2.4210   -1.5330    0.0000 C.ar    1  LIG1       -0.0125
     20 C          -3.2960   -1.9830    0.0000 C.ar    1  LIG1       -0.0246
     21 C          -4.1420   -1.4330    0.0000 C.ar    1  LIG1       -0.0045
     22 C          -4.0710   -0.4380    0.0000 C.ar    1  LIG1        0.0009
     23 C          -3.1790    0.0130    0.0000 C.ar    1  LIG1        0.0142
     24 C          -3.3420   -2.9830    0.0000 C.3     1  LIG1        0.0307
     25 C          -1.5710   -2.1000    0.0000 C.3     1  LIG1        0.0320
     26 C          -1.3880    0.9130    0.0000 C.3     1  LIG1        0.1123
     27 C          -0.4880    1.3630    0.0000 C.3     1  LIG1        0.1151
     28 O           1.3130    2.2380    0.0000 O.2     1  LIG1       -0.2701
@<TRIPOS>BOND
     1     1     2    1
     2     1     5    2
     3     1    13    1
     4     2     3    1
     5     2     8    1
     6     2    12    1
     7     3     4    1
     8     4     5    1
     9     4     7    2
    10     5     6    1
    11     8     9    1
    12     9    10    1
    13    10    11    1
    14    11    12    1
    15    13    14   am
    16    13    28    2
    17    14    15    1
    18    14    27    1
    19    15    16    1
    20    16    17    1
    21    17    18    1
    22    17    26    1
    23    18    19   ar
    24    18    23   ar
    25    19    20   ar
    26    19    25    1
    27    20    21   ar
    28    20    24    1
    29    21    22   ar
    30    22    23   ar
    31    26    27    1
