@<TRIPOS>MOLECULE
37599_ChemDiv_C533-1498
 28 31 0 0 0
SMALL
GASTEIGER
Energy = 0

@<TRIPOS>ATOM
      1 C           1.8080    1.6500    0.0000 C.2     1  LIG1        0.0694
      2 C           2.5920    2.2880    0.0000 C.3     1  LIG1        0.1589
      3 O           3.4250    1.7330    0.0000 O.3     1  LIG1       -0.4486
      4 C           3.1580    0.7710    0.0000 C.2     1  LIG1        0.3372
      5 C           2.1670    0.7170    0.0000 C.2     1  LIG1        0.0574
      6 C           1.6210   -0.1330    0.0000 C.3     1  LIG1        0.0378
      7 O           3.7790   -0.0170    0.0000 O.2     1  LIG1       -0.2453
      8 C           1.7790    2.8790    0.0000 C.3     1  LIG1        0.0446
      9 C           1.8830    3.8670    0.0000 C.3     1  LIG1        0.0039
     10 C           2.7920    4.2670    0.0000 C.3     1  LIG1        0.0003
     11 C           3.6040    3.6790    0.0000 C.3     1  LIG1        0.0039
     12 C           3.5000    2.6880    0.0000 C.3     1  LIG1        0.0446
     13 C           0.8380    1.9080    0.0000 C.2     1  LIG1        0.2483
     14 N           0.1380    1.2000    0.0000 N.am    1  LIG1       -0.2727
     15 C          -0.8330    1.4580    0.0000 C.3     1  LIG1        0.1151
     16 C          -1.5420    0.7460    0.0000 C.3     1  LIG1        0.1123
     17 N          -1.2670   -0.2080    0.0000 N.pl3   1  LIG1       -0.3041
     18 C          -1.8130   -1.0460    0.0000 C.ar    1  LIG1        0.0481
     19 C          -2.7880   -0.8500    0.0000 C.ar    1  LIG1        0.0176
     20 C          -3.4500   -1.6080    0.0000 C.ar    1  LIG1        0.0382
     21 C          -3.1210   -2.5630    0.0000 C.ar    1  LIG1        0.1388
     22 C          -2.1460   -2.7540    0.0000 C.ar    1  LIG1        0.0382
     23 C          -1.4830   -2.0000    0.0000 C.ar    1  LIG1        0.0176
     24 O          -3.7830   -3.3290    0.0000 O.3     1  LIG1       -0.4714
     25 C          -3.4500   -4.2670    0.0000 C.3     1  LIG1        0.2525
     26 C          -0.3130   -0.4540    0.0000 C.3     1  LIG1        0.1123
     27 C           0.3960    0.2580    0.0000 C.3     1  LIG1        0.1151
     28 O           0.5750    2.8790    0.0000 O.2     1  LIG1       -0.2701
@<TRIPOS>BOND
     1     1     2    1
     2     1     5    2
     3     1    13    1
     4     2     3    1
     5     2     8    1
     6     2    12    1
     7     3     4    1
     8     4     5    1
     9     4     7    2
    10     5     6    1
    11     8     9    1
    12     9    10    1
    13    10    11    1
    14    11    12    1
    15    13    14   am
    16    13    28    2
    17    14    15    1
    18    14    27    1
    19    15    16    1
    20    16    17    1
    21    17    18    1
    22    17    26    1
    23    18    19   ar
    24    18    23   ar
    25    19    20   ar
    26    20    21   ar
    27    21    22   ar
    28    21    24    1
    29    22    23   ar
    30    24    25    1
    31    26    27    1
