@<TRIPOS>MOLECULE
37604_ChemDiv_C696-0806
 31 34 0 0 0
SMALL
GASTEIGER
Energy = 0

@<TRIPOS>ATOM
      1 N           0.4960    0.0000    0.0000 N.ar    1  LIG1       -0.2074
      2 N           0.9960   -0.8670    0.0000 N.ar    1  LIG1       -0.1704
      3 C           1.9960   -0.8670    0.0000 C.ar    1  LIG1        0.0832
      4 C           2.4960    0.0000    0.0000 C.ar    1  LIG1        0.0202
      5 C           1.9960    0.8630    0.0000 C.ar    1  LIG1        0.0588
      6 C           0.9960    0.8630    0.0000 C.ar    1  LIG1        0.2768
      7 O           0.4960    1.7330    0.0000 O.2     1  LIG1       -0.2655
      8 C           2.4960    1.7330    0.0000 C.ar    1  LIG1        0.0048
      9 C           3.4960    1.7330    0.0000 C.ar    1  LIG1        0.0002
     10 C           3.9960    0.8630    0.0000 C.ar    1  LIG1        0.0000
     11 C           3.4960    0.0000    0.0000 C.ar    1  LIG1        0.0014
     12 C           2.4960   -1.7330    0.0000 C.3     1  LIG1        0.0739
     13 C           1.9960   -2.5960    0.0000 C.ar    1  LIG1       -0.0131
     14 C           0.9960   -2.5960    0.0000 C.ar    1  LIG1        0.0168
     15 C           0.4960   -3.4580    0.0000 C.ar    1  LIG1        0.0986
     16 N           0.9960   -4.3250    0.0000 N.ar    1  LIG1       -0.2423
     17 C           1.9960   -4.3250    0.0000 C.ar    1  LIG1        0.0986
     18 C           2.4960   -3.4580    0.0000 C.ar    1  LIG1        0.0168
     19 C          -0.5040    0.0000    0.0000 C.3     1  LIG1        0.2156
     20 C          -1.0040    0.8630    0.0000 C.2     1  LIG1        0.2544
     21 N          -2.0000    0.8630    0.0000 N.am    1  LIG1       -0.2555
     22 C          -2.5000    1.7330    0.0000 C.ar    1  LIG1        0.0508
     23 C          -2.0000    2.6000    0.0000 C.ar    1  LIG1        0.0260
     24 C          -2.5000    3.4630    0.0000 C.ar    1  LIG1        0.0589
     25 C          -3.5000    3.4630    0.0000 C.ar    1  LIG1        0.0112
     26 C          -4.0000    2.6000    0.0000 C.ar    1  LIG1       -0.0022
     27 C          -3.5000    1.7330    0.0000 C.ar    1  LIG1       -0.0081
     28 C          -4.0000    0.8630    0.0000 C.3     1  LIG1        0.0323
     29 CL         -2.0000    4.3250    0.0000 Cl      1  LIG1       -0.0822
     30 C          -2.5000    0.0000    0.0000 C.3     1  LIG1        0.1201
     31 O          -0.5040    1.7330    0.0000 O.2     1  LIG1       -0.2724
@<TRIPOS>BOND
     1     1     2   ar
     2     1     6   ar
     3     1    19    1
     4     2     3   ar
     5     3     4   ar
     6     3    12    1
     7     4     5   ar
     8     4    11   ar
     9     5     6   ar
    10     5     8   ar
    11     6     7    2
    12     8     9   ar
    13     9    10   ar
    14    10    11   ar
    15    12    13    1
    16    13    14   ar
    17    13    18   ar
    18    14    15   ar
    19    15    16   ar
    20    16    17   ar
    21    17    18   ar
    22    19    20    1
    23    20    21   am
    24    20    31    2
    25    21    22    1
    26    21    30    1
    27    22    23   ar
    28    22    27   ar
    29    23    24   ar
    30    24    25   ar
    31    24    29    1
    32    25    26   ar
    33    26    27   ar
    34    27    28    1
