@<TRIPOS>MOLECULE
37609_ChemDiv_C614-0572
 32 35 0 0 0
SMALL
GASTEIGER
Energy = 0

@<TRIPOS>ATOM
      1 N          -2.8830    1.0580    0.0000 N.ar    1  LIG1       -0.2961
      2 C          -2.2920    1.8670    0.0000 C.ar    1  LIG1        0.1222
      3 N          -2.8830    2.6790    0.0000 N.ar    1  LIG1       -0.2293
      4 C          -3.8290    2.3670    0.0000 C.ar    1  LIG1        0.1167
      5 C          -3.8290    1.3670    0.0000 C.ar    1  LIG1        0.1627
      6 N          -4.7000    0.8630    0.0000 N.ar    1  LIG1       -0.2252
      7 C          -5.5630    1.3630    0.0000 C.ar    1  LIG1        0.1006
      8 C          -5.5630    2.3670    0.0000 C.ar    1  LIG1        0.0223
      9 C          -4.7000    2.8670    0.0000 C.ar    1  LIG1        0.0238
     10 C          -1.2920    1.8670    0.0000 C.3     1  LIG1        0.0736
     11 C          -0.7920    1.0040    0.0000 C.3     1  LIG1        0.0951
     12 C           0.2080    1.0040    0.0000 C.2     1  LIG1        0.2460
     13 N           0.7170    0.1420    0.0000 N.am    1  LIG1       -0.1792
     14 C           1.7170    0.1420    0.0000 C.ar    1  LIG1        0.0736
     15 C           2.2080   -0.7210    0.0000 C.ar    1  LIG1        0.0197
     16 C           3.2080   -0.7210    0.0000 C.ar    1  LIG1        0.0382
     17 C           3.7080    0.1500    0.0000 C.ar    1  LIG1        0.1386
     18 C           3.2000    1.0130    0.0000 C.ar    1  LIG1        0.0382
     19 C           2.2080    1.0040    0.0000 C.ar    1  LIG1        0.0197
     20 O           4.7080    0.1500    0.0000 O.3     1  LIG1       -0.4755
     21 C           5.2170   -0.7130    0.0000 C.3     1  LIG1        0.2055
     22 C           6.2170   -0.7130    0.0000 C.3     1  LIG1        0.0512
     23 O           0.7080    1.8790    0.0000 O.2     1  LIG1       -0.2730
     24 C          -2.5670    0.1040    0.0000 C.3     1  LIG1        0.1353
     25 C          -3.2380   -0.6380    0.0000 C.ar    1  LIG1        0.0007
     26 C          -4.2170   -0.4250    0.0000 C.ar    1  LIG1        0.0007
     27 C          -4.8830   -1.1670    0.0000 C.ar    1  LIG1        0.0366
     28 C          -4.5790   -2.1210    0.0000 C.ar    1  LIG1        0.1387
     29 C          -3.5960   -2.3170    0.0000 C.ar    1  LIG1        0.0366
     30 C          -2.9290   -1.5750    0.0000 C.ar    1  LIG1        0.0007
     31 O          -5.2460   -2.8630    0.0000 O.3     1  LIG1       -0.4714
     32 C          -6.2170   -2.6500    0.0000 C.3     1  LIG1        0.2525
@<TRIPOS>BOND
     1     1     2   ar
     2     1     5   ar
     3     1    24    1
     4     2     3   ar
     5     2    10    1
     6     3     4   ar
     7     4     5   ar
     8     4     9   ar
     9     5     6   ar
    10     6     7   ar
    11     7     8   ar
    12     8     9   ar
    13    10    11    1
    14    11    12    1
    15    12    13   am
    16    12    23    2
    17    13    14    1
    18    14    15   ar
    19    14    19   ar
    20    15    16   ar
    21    16    17   ar
    22    17    18   ar
    23    17    20    1
    24    18    19   ar
    25    20    21    1
    26    21    22    1
    27    24    25    1
    28    25    26   ar
    29    25    30   ar
    30    26    27   ar
    31    27    28   ar
    32    28    29   ar
    33    28    31    1
    34    29    30   ar
    35    31    32    1
