@<TRIPOS>MOLECULE
37602_ChemDiv_C696-0767
 31 35 0 0 0
SMALL
GASTEIGER
Energy = 0

@<TRIPOS>ATOM
      1 N           1.0380    1.3000    0.0000 N.ar    1  LIG1       -0.2074
      2 N           1.5380    0.4330    0.0000 N.ar    1  LIG1       -0.1704
      3 C           2.5380    0.4330    0.0000 C.ar    1  LIG1        0.0832
      4 C           3.0380    1.3000    0.0000 C.ar    1  LIG1        0.0202
      5 C           2.5380    2.1630    0.0000 C.ar    1  LIG1        0.0588
      6 C           1.5380    2.1630    0.0000 C.ar    1  LIG1        0.2768
      7 O           1.0380    3.0290    0.0000 O.2     1  LIG1       -0.2655
      8 C           3.0380    3.0290    0.0000 C.ar    1  LIG1        0.0048
      9 C           4.0370    3.0290    0.0000 C.ar    1  LIG1        0.0002
     10 C           4.5420    2.1630    0.0000 C.ar    1  LIG1        0.0000
     11 C           4.0370    1.3000    0.0000 C.ar    1  LIG1        0.0014
     12 C           3.0380   -0.4330    0.0000 C.3     1  LIG1        0.0739
     13 C           2.5380   -1.3000    0.0000 C.ar    1  LIG1       -0.0131
     14 C           1.5380   -1.3000    0.0000 C.ar    1  LIG1        0.0168
     15 C           1.0380   -2.1630    0.0000 C.ar    1  LIG1        0.0986
     16 N           1.5380   -3.0250    0.0000 N.ar    1  LIG1       -0.2423
     17 C           2.5380   -3.0250    0.0000 C.ar    1  LIG1        0.0986
     18 C           3.0380   -2.1630    0.0000 C.ar    1  LIG1        0.0168
     19 C           0.0380    1.3000    0.0000 C.3     1  LIG1        0.2172
     20 C          -0.4630    2.1630    0.0000 C.2     1  LIG1        0.2705
     21 N          -1.4580    2.1630    0.0000 N.am    1  LIG1       -0.1774
     22 C          -1.9580    1.3000    0.0000 C.ar    1  LIG1        0.0767
     23 C          -2.9580    1.3000    0.0000 C.ar    1  LIG1        0.0568
     24 C          -3.4580    0.4330    0.0000 C.ar    1  LIG1        0.1777
     25 C          -2.9580   -0.4330    0.0000 C.ar    1  LIG1        0.1765
     26 O          -3.6290   -1.1790    0.0000 O.3     1  LIG1       -0.4346
     27 C          -4.5460   -0.7670    0.0000 C.3     1  LIG1        0.4294
     28 O          -4.4330    0.2250    0.0000 O.3     1  LIG1       -0.4346
     29 C          -1.9580   -0.4330    0.0000 C.ar    1  LIG1        0.0415
     30 C          -1.4580    0.4330    0.0000 C.ar    1  LIG1        0.0199
     31 O           0.0380    3.0290    0.0000 O.2     1  LIG1       -0.2708
@<TRIPOS>BOND
     1     1     2   ar
     2     1     6   ar
     3     1    19    1
     4     2     3   ar
     5     3     4   ar
     6     3    12    1
     7     4     5   ar
     8     4    11   ar
     9     5     6   ar
    10     5     8   ar
    11     6     7    2
    12     8     9   ar
    13     9    10   ar
    14    10    11   ar
    15    12    13    1
    16    13    14   ar
    17    13    18   ar
    18    14    15   ar
    19    15    16   ar
    20    16    17   ar
    21    17    18   ar
    22    19    20    1
    23    20    21   am
    24    20    31    2
    25    21    22    1
    26    22    23   ar
    27    22    30   ar
    28    23    24   ar
    29    24    25   ar
    30    24    28    1
    31    25    26    1
    32    25    29   ar
    33    26    27    1
    34    27    28    1
    35    29    30   ar
