@<TRIPOS>MOLECULE
37601_ChemDiv_C614-0979
 29 32 0 0 0
SMALL
GASTEIGER
Energy = 0

@<TRIPOS>ATOM
      1 N          -1.9580    1.2880    0.0000 N.ar    1  LIG1       -0.2961
      2 C          -1.3710    2.0960    0.0000 C.ar    1  LIG1        0.1222
      3 N          -1.9580    2.9040    0.0000 N.ar    1  LIG1       -0.2293
      4 C          -2.9040    2.5960    0.0000 C.ar    1  LIG1        0.1167
      5 C          -2.9040    1.6000    0.0000 C.ar    1  LIG1        0.1627
      6 N          -3.7750    1.0880    0.0000 N.ar    1  LIG1       -0.2252
      7 C          -4.6380    1.5880    0.0000 C.ar    1  LIG1        0.1006
      8 C          -4.6380    2.5880    0.0000 C.ar    1  LIG1        0.0223
      9 C          -3.7750    3.0960    0.0000 C.ar    1  LIG1        0.0238
     10 C          -0.3710    2.0960    0.0000 C.3     1  LIG1        0.0736
     11 C           0.1290    1.2330    0.0000 C.3     1  LIG1        0.0947
     12 C           1.1290    1.2330    0.0000 C.2     1  LIG1        0.2421
     13 N           1.6380    0.3710    0.0000 N.am    1  LIG1       -0.2005
     14 C           2.6380    0.3710    0.0000 C.3     1  LIG1        0.1415
     15 C           3.1330   -0.4920    0.0000 C.ar    1  LIG1       -0.0005
     16 C           4.1330   -0.4920    0.0000 C.ar    1  LIG1       -0.0017
     17 C           4.6330   -1.3540    0.0000 C.ar    1  LIG1        0.0111
     18 C           4.1250   -2.2290    0.0000 C.ar    1  LIG1        0.0577
     19 CL          4.6250   -3.0920    0.0000 Cl      1  LIG1       -0.0822
     20 C           3.1250   -2.2290    0.0000 C.ar    1  LIG1        0.0111
     21 C           2.6250   -1.3540    0.0000 C.ar    1  LIG1       -0.0017
     22 O           1.6290    2.0960    0.0000 O.2     1  LIG1       -0.2733
     23 C          -1.6420    0.3330    0.0000 C.3     1  LIG1        0.1353
     24 C          -2.3130   -0.4080    0.0000 C.ar    1  LIG1        0.0005
     25 C          -3.2920   -0.1960    0.0000 C.ar    1  LIG1       -0.0024
     26 C          -3.9580   -0.9380    0.0000 C.ar    1  LIG1       -0.0003
     27 C          -3.6540   -1.8920    0.0000 C.ar    1  LIG1       -0.0000
     28 C          -2.6710   -2.0960    0.0000 C.ar    1  LIG1       -0.0003
     29 C          -2.0040   -1.3540    0.0000 C.ar    1  LIG1       -0.0024
@<TRIPOS>BOND
     1     1     2   ar
     2     1     5   ar
     3     1    23    1
     4     2     3   ar
     5     2    10    1
     6     3     4   ar
     7     4     5   ar
     8     4     9   ar
     9     5     6   ar
    10     6     7   ar
    11     7     8   ar
    12     8     9   ar
    13    10    11    1
    14    11    12    1
    15    12    13   am
    16    12    22    2
    17    13    14    1
    18    14    15    1
    19    15    16   ar
    20    15    21   ar
    21    16    17   ar
    22    17    18   ar
    23    18    19    1
    24    18    20   ar
    25    20    21   ar
    26    23    24    1
    27    24    25   ar
    28    24    29   ar
    29    25    26   ar
    30    26    27   ar
    31    27    28   ar
    32    28    29   ar
