@<TRIPOS>MOLECULE
37605_ChemDiv_C614-0982
 29 32 0 0 0
SMALL
GASTEIGER
Energy = 0

@<TRIPOS>ATOM
      1 N          -1.9580    0.8540    0.0000 N.ar    1  LIG1       -0.2961
      2 C          -1.3670    1.6670    0.0000 C.ar    1  LIG1        0.1222
      3 N          -1.9580    2.4750    0.0000 N.ar    1  LIG1       -0.2293
      4 C          -2.9000    2.1670    0.0000 C.ar    1  LIG1        0.1167
      5 C          -2.9000    1.1670    0.0000 C.ar    1  LIG1        0.1627
      6 N          -3.7750    0.6580    0.0000 N.ar    1  LIG1       -0.2252
      7 C          -4.6380    1.1580    0.0000 C.ar    1  LIG1        0.1006
      8 C          -4.6380    2.1540    0.0000 C.ar    1  LIG1        0.0223
      9 C          -3.7750    2.6670    0.0000 C.ar    1  LIG1        0.0238
     10 C          -0.3710    1.6670    0.0000 C.3     1  LIG1        0.0735
     11 C           0.1290    0.8040    0.0000 C.3     1  LIG1        0.0932
     12 C           1.1290    0.8040    0.0000 C.2     1  LIG1        0.2264
     13 N           1.6380   -0.0580    0.0000 N.am    1  LIG1       -0.2737
     14 C           2.6380   -0.0580    0.0000 C.3     1  LIG1        0.1202
     15 C           3.1330   -0.9210    0.0000 C.ar    1  LIG1       -0.0023
     16 C           2.6250   -1.7830    0.0000 C.ar    1  LIG1       -0.0026
     17 C           3.1250   -2.6630    0.0000 C.ar    1  LIG1       -0.0003
     18 C           4.1250   -2.6630    0.0000 C.ar    1  LIG1       -0.0000
     19 C           4.6330   -1.7830    0.0000 C.ar    1  LIG1       -0.0003
     20 C           4.1330   -0.9210    0.0000 C.ar    1  LIG1       -0.0026
     21 C           1.1420   -0.9290    0.0000 C.3     1  LIG1        0.1152
     22 O           1.6250    1.6670    0.0000 O.2     1  LIG1       -0.2748
     23 C          -1.6420   -0.1000    0.0000 C.3     1  LIG1        0.1353
     24 C          -2.3130   -0.8420    0.0000 C.ar    1  LIG1        0.0005
     25 C          -2.0040   -1.7830    0.0000 C.ar    1  LIG1       -0.0024
     26 C          -2.6710   -2.5250    0.0000 C.ar    1  LIG1       -0.0003
     27 C          -3.6540   -2.3210    0.0000 C.ar    1  LIG1       -0.0000
     28 C          -3.9540   -1.3710    0.0000 C.ar    1  LIG1       -0.0003
     29 C          -3.2920   -0.6290    0.0000 C.ar    1  LIG1       -0.0024
@<TRIPOS>BOND
     1     1     2   ar
     2     1     5   ar
     3     1    23    1
     4     2     3   ar
     5     2    10    1
     6     3     4   ar
     7     4     5   ar
     8     4     9   ar
     9     5     6   ar
    10     6     7   ar
    11     7     8   ar
    12     8     9   ar
    13    10    11    1
    14    11    12    1
    15    12    13   am
    16    12    22    2
    17    13    14    1
    18    13    21    1
    19    14    15    1
    20    15    16   ar
    21    15    20   ar
    22    16    17   ar
    23    17    18   ar
    24    18    19   ar
    25    19    20   ar
    26    23    24    1
    27    24    25   ar
    28    24    29   ar
    29    25    26   ar
    30    26    27   ar
    31    27    28   ar
    32    28    29   ar
