@<TRIPOS>MOLECULE
37606_ChemDiv_C696-0968
 31 33 0 0 0
SMALL
GASTEIGER
Energy = 0

@<TRIPOS>ATOM
      1 N           1.2460    1.3000    0.0000 N.ar    1  LIG1       -0.2075
      2 N           1.7460    0.4330    0.0000 N.ar    1  LIG1       -0.1704
      3 C           2.7460    0.4330    0.0000 C.ar    1  LIG1        0.0832
      4 C           3.2460    1.3000    0.0000 C.ar    1  LIG1        0.0202
      5 C           2.7460    2.1630    0.0000 C.ar    1  LIG1        0.0588
      6 C           1.7460    2.1630    0.0000 C.ar    1  LIG1        0.2768
      7 O           1.2460    3.0330    0.0000 O.2     1  LIG1       -0.2655
      8 C           3.2460    3.0330    0.0000 C.ar    1  LIG1        0.0048
      9 C           4.2500    3.0330    0.0000 C.ar    1  LIG1        0.0002
     10 C           4.7500    2.1630    0.0000 C.ar    1  LIG1        0.0000
     11 C           4.2500    1.3000    0.0000 C.ar    1  LIG1        0.0014
     12 C           3.2460   -0.4330    0.0000 C.3     1  LIG1        0.0739
     13 C           2.7460   -1.3000    0.0000 C.ar    1  LIG1       -0.0131
     14 C           1.7460   -1.3000    0.0000 C.ar    1  LIG1        0.0168
     15 C           1.2460   -2.1630    0.0000 C.ar    1  LIG1        0.0986
     16 N           1.7460   -3.0290    0.0000 N.ar    1  LIG1       -0.2423
     17 C           2.7460   -3.0290    0.0000 C.ar    1  LIG1        0.0986
     18 C           3.2460   -2.1630    0.0000 C.ar    1  LIG1        0.0168
     19 C           0.2460    1.3000    0.0000 C.3     1  LIG1        0.2153
     20 C          -0.2540    2.1630    0.0000 C.2     1  LIG1        0.2507
     21 N          -1.2500    2.1630    0.0000 N.am    1  LIG1       -0.2759
     22 C          -1.7500    1.3000    0.0000 C.3     1  LIG1        0.0997
     23 C          -2.7500    1.3000    0.0000 C.3     1  LIG1        0.0841
     24 C          -3.2500    0.4330    0.0000 C.3     1  LIG1        0.1403
     25 N          -4.2540    0.4330    0.0000 N.4     1  LIG1        0.3773
     26 C          -4.7540   -0.4330    0.0000 C.3     1  LIG1        0.1388
     27 C          -4.2540   -1.3000    0.0000 C.3     1  LIG1        0.0688
     28 C          -4.7540    1.3000    0.0000 C.3     1  LIG1        0.1388
     29 C          -4.2540    2.1630    0.0000 C.3     1  LIG1        0.0688
     30 C          -1.7500    3.0330    0.0000 C.3     1  LIG1        0.1149
     31 O           0.2460    3.0330    0.0000 O.2     1  LIG1       -0.2727
@<TRIPOS>BOND
     1     1     2   ar
     2     1     6   ar
     3     1    19    1
     4     2     3   ar
     5     3     4   ar
     6     3    12    1
     7     4     5   ar
     8     4    11   ar
     9     5     6   ar
    10     5     8   ar
    11     6     7    2
    12     8     9   ar
    13     9    10   ar
    14    10    11   ar
    15    12    13    1
    16    13    14   ar
    17    13    18   ar
    18    14    15   ar
    19    15    16   ar
    20    16    17   ar
    21    17    18   ar
    22    19    20    1
    23    20    21   am
    24    20    31    2
    25    21    22    1
    26    21    30    1
    27    22    23    1
    28    23    24    1
    29    24    25    1
    30    25    26    1
    31    25    28    1
    32    26    27    1
    33    28    29    1
