@<TRIPOS>MOLECULE
37614_ChemDiv_C696-1216
 28 30 0 0 0
SMALL
GASTEIGER
Energy = 0

@<TRIPOS>ATOM
      1 N           0.4960    0.8670    0.0000 N.ar    1  LIG1       -0.2075
      2 N           0.9960    0.0000    0.0000 N.ar    1  LIG1       -0.1704
      3 C           1.9960    0.0000    0.0000 C.ar    1  LIG1        0.0832
      4 C           2.4960    0.8670    0.0000 C.ar    1  LIG1        0.0202
      5 C           1.9960    1.7290    0.0000 C.ar    1  LIG1        0.0588
      6 C           0.9960    1.7290    0.0000 C.ar    1  LIG1        0.2768
      7 O           0.4960    2.6000    0.0000 O.2     1  LIG1       -0.2655
      8 C           2.4960    2.6000    0.0000 C.ar    1  LIG1        0.0048
      9 C           3.4960    2.6000    0.0000 C.ar    1  LIG1        0.0002
     10 C           4.0000    1.7290    0.0000 C.ar    1  LIG1        0.0000
     11 C           3.4960    0.8670    0.0000 C.ar    1  LIG1        0.0014
     12 C           2.4960   -0.8670    0.0000 C.3     1  LIG1        0.0754
     13 C           1.9960   -1.7290    0.0000 C.ar    1  LIG1        0.0030
     14 C           0.9960   -1.7290    0.0000 C.ar    1  LIG1        0.0950
     15 N           0.4960   -2.5960    0.0000 N.ar    1  LIG1       -0.2426
     16 C           0.9960   -3.4580    0.0000 C.ar    1  LIG1        0.0989
     17 C           1.9960   -3.4580    0.0000 C.ar    1  LIG1        0.0204
     18 C           2.4960   -2.5960    0.0000 C.ar    1  LIG1       -0.0008
     19 C          -0.5040    0.8670    0.0000 C.3     1  LIG1        0.2153
     20 C          -1.0040    1.7290    0.0000 C.2     1  LIG1        0.2506
     21 N          -2.0000    1.7290    0.0000 N.am    1  LIG1       -0.2779
     22 C          -2.5000    0.8670    0.0000 C.3     1  LIG1        0.0935
     23 C          -3.5000    0.8670    0.0000 C.3     1  LIG1        0.0215
     24 C          -4.0000    0.0000    0.0000 C.3     1  LIG1        0.0018
     25 C          -2.5000    2.6000    0.0000 C.3     1  LIG1        0.0935
     26 C          -3.5000    2.6000    0.0000 C.3     1  LIG1        0.0215
     27 C          -4.0000    3.4630    0.0000 C.3     1  LIG1        0.0018
     28 O          -0.5040    2.6000    0.0000 O.2     1  LIG1       -0.2727
@<TRIPOS>BOND
     1     1     2   ar
     2     1     6   ar
     3     1    19    1
     4     2     3   ar
     5     3     4   ar
     6     3    12    1
     7     4     5   ar
     8     4    11   ar
     9     5     6   ar
    10     5     8   ar
    11     6     7    2
    12     8     9   ar
    13     9    10   ar
    14    10    11   ar
    15    12    13    1
    16    13    14   ar
    17    13    18   ar
    18    14    15   ar
    19    15    16   ar
    20    16    17   ar
    21    17    18   ar
    22    19    20    1
    23    20    21   am
    24    20    28    2
    25    21    22    1
    26    21    25    1
    27    22    23    1
    28    23    24    1
    29    25    26    1
    30    26    27    1
