@<TRIPOS>MOLECULE
37619_ChemDiv_C614-0974
 28 31 0 0 0
SMALL
GASTEIGER
Energy = 0

@<TRIPOS>ATOM
      1 N          -2.0330    0.7960    0.0000 N.ar    1  LIG1       -0.2961
      2 C          -1.4460    1.5960    0.0000 C.ar    1  LIG1        0.1222
      3 N          -2.0330    2.4130    0.0000 N.ar    1  LIG1       -0.2293
      4 C          -2.9880    2.0960    0.0000 C.ar    1  LIG1        0.1167
      5 C          -2.9880    1.0960    0.0000 C.ar    1  LIG1        0.1627
      6 N          -3.8500    0.5960    0.0000 N.ar    1  LIG1       -0.2252
      7 C          -4.7130    1.0960    0.0000 C.ar    1  LIG1        0.1006
      8 C          -4.7130    2.0960    0.0000 C.ar    1  LIG1        0.0223
      9 C          -3.8500    2.5960    0.0000 C.ar    1  LIG1        0.0238
     10 C          -0.4460    1.5960    0.0000 C.3     1  LIG1        0.0736
     11 C           0.0540    0.7330    0.0000 C.3     1  LIG1        0.0947
     12 C           1.0540    0.7330    0.0000 C.2     1  LIG1        0.2418
     13 N           1.5500   -0.1290    0.0000 N.am    1  LIG1       -0.2072
     14 C           2.5500   -0.1250    0.0000 C.3     1  LIG1        0.0953
     15 C           2.9750   -1.0670    0.0000 C.3     1  LIG1        0.0217
     16 C           3.7920   -1.3830    0.0000 C.3     1  LIG1        0.0018
     17 C           4.6420   -0.8380    0.0000 C.3     1  LIG1        0.0001
     18 C           4.7080    0.2330    0.0000 C.3     1  LIG1        0.0001
     19 C           3.9000    0.9460    0.0000 C.3     1  LIG1        0.0018
     20 C           2.9000    0.7170    0.0000 C.3     1  LIG1        0.0217
     21 O           1.5500    1.6000    0.0000 O.2     1  LIG1       -0.2733
     22 C          -1.7210   -0.1580    0.0000 C.3     1  LIG1        0.1353
     23 C          -2.4000   -0.9000    0.0000 C.ar    1  LIG1        0.0005
     24 C          -2.0790   -1.8500    0.0000 C.ar    1  LIG1       -0.0024
     25 C          -2.7460   -2.5920    0.0000 C.ar    1  LIG1       -0.0003
     26 C          -3.7290   -2.3830    0.0000 C.ar    1  LIG1       -0.0000
     27 C          -4.0370   -1.4290    0.0000 C.ar    1  LIG1       -0.0003
     28 C          -3.3670   -0.6880    0.0000 C.ar    1  LIG1       -0.0024
@<TRIPOS>BOND
     1     1     2   ar
     2     1     5   ar
     3     1    22    1
     4     2     3   ar
     5     2    10    1
     6     3     4   ar
     7     4     5   ar
     8     4     9   ar
     9     5     6   ar
    10     6     7   ar
    11     7     8   ar
    12     8     9   ar
    13    10    11    1
    14    11    12    1
    15    12    13   am
    16    12    21    2
    17    13    14    1
    18    14    15    1
    19    14    20    1
    20    15    16    1
    21    16    17    1
    22    17    18    1
    23    18    19    1
    24    19    20    1
    25    22    23    1
    26    23    24   ar
    27    23    28   ar
    28    24    25   ar
    29    25    26   ar
    30    26    27   ar
    31    27    28   ar
