@<TRIPOS>MOLECULE
37612_ChemDiv_C696-1178
 30 33 0 0 0
SMALL
GASTEIGER
Energy = 0

@<TRIPOS>ATOM
      1 N           1.7420    0.8670    0.0000 N.ar    1  LIG1       -0.2074
      2 N           2.2460    0.0000    0.0000 N.ar    1  LIG1       -0.1704
      3 C           3.2460    0.0000    0.0000 C.ar    1  LIG1        0.0832
      4 C           3.7460    0.8670    0.0000 C.ar    1  LIG1        0.0202
      5 C           3.2460    1.7290    0.0000 C.ar    1  LIG1        0.0588
      6 C           2.2460    1.7290    0.0000 C.ar    1  LIG1        0.2768
      7 O           1.7420    2.5960    0.0000 O.2     1  LIG1       -0.2655
      8 C           3.7460    2.5960    0.0000 C.ar    1  LIG1        0.0048
      9 C           4.7460    2.5960    0.0000 C.ar    1  LIG1        0.0002
     10 C           5.2460    1.7290    0.0000 C.ar    1  LIG1        0.0000
     11 C           4.7460    0.8670    0.0000 C.ar    1  LIG1        0.0014
     12 C           3.7460   -0.8670    0.0000 C.3     1  LIG1        0.0754
     13 C           3.2460   -1.7290    0.0000 C.ar    1  LIG1        0.0030
     14 C           2.2460   -1.7290    0.0000 C.ar    1  LIG1        0.0950
     15 N           1.7420   -2.5920    0.0000 N.ar    1  LIG1       -0.2426
     16 C           2.2460   -3.4580    0.0000 C.ar    1  LIG1        0.0989
     17 C           3.2460   -3.4580    0.0000 C.ar    1  LIG1        0.0204
     18 C           3.7460   -2.5920    0.0000 C.ar    1  LIG1       -0.0008
     19 C           0.7460    0.8670    0.0000 C.3     1  LIG1        0.2168
     20 C           0.2460    1.7290    0.0000 C.2     1  LIG1        0.2667
     21 N          -0.7500    1.7290    0.0000 N.am    1  LIG1       -0.1989
     22 C          -1.2500    2.5960    0.0000 C.3     1  LIG1        0.1415
     23 C          -2.2500    2.5960    0.0000 C.ar    1  LIG1       -0.0006
     24 C          -2.7500    3.4630    0.0000 C.ar    1  LIG1       -0.0029
     25 C          -3.7540    3.4630    0.0000 C.ar    1  LIG1       -0.0045
     26 C          -4.2540    2.5960    0.0000 C.ar    1  LIG1       -0.0219
     27 C          -3.7540    1.7290    0.0000 C.ar    1  LIG1       -0.0045
     28 C          -2.7500    1.7290    0.0000 C.ar    1  LIG1       -0.0029
     29 C          -5.2500    2.5960    0.0000 C.3     1  LIG1        0.0310
     30 O           0.7460    2.5960    0.0000 O.2     1  LIG1       -0.2711
@<TRIPOS>BOND
     1     1     2   ar
     2     1     6   ar
     3     1    19    1
     4     2     3   ar
     5     3     4   ar
     6     3    12    1
     7     4     5   ar
     8     4    11   ar
     9     5     6   ar
    10     5     8   ar
    11     6     7    2
    12     8     9   ar
    13     9    10   ar
    14    10    11   ar
    15    12    13    1
    16    13    14   ar
    17    13    18   ar
    18    14    15   ar
    19    15    16   ar
    20    16    17   ar
    21    17    18   ar
    22    19    20    1
    23    20    21   am
    24    20    30    2
    25    21    22    1
    26    22    23    1
    27    23    24   ar
    28    23    28   ar
    29    24    25   ar
    30    25    26   ar
    31    26    27   ar
    32    26    29    1
    33    27    28   ar
