@<TRIPOS>MOLECULE
37617_ChemDiv_C614-0972
 26 29 0 0 0
SMALL
GASTEIGER
Energy = 0

@<TRIPOS>ATOM
      1 N          -1.7290    0.7960    0.0000 N.ar    1  LIG1       -0.2961
      2 C          -1.1420    1.5960    0.0000 C.ar    1  LIG1        0.1222
      3 N          -1.7290    2.4130    0.0000 N.ar    1  LIG1       -0.2293
      4 C          -2.6790    2.0960    0.0000 C.ar    1  LIG1        0.1167
      5 C          -2.6790    1.0960    0.0000 C.ar    1  LIG1        0.1627
      6 N          -3.5460    0.5960    0.0000 N.ar    1  LIG1       -0.2252
      7 C          -4.4080    1.0960    0.0000 C.ar    1  LIG1        0.1006
      8 C          -4.4080    2.0960    0.0000 C.ar    1  LIG1        0.0223
      9 C          -3.5460    2.5960    0.0000 C.ar    1  LIG1        0.0238
     10 C          -0.1420    1.5960    0.0000 C.3     1  LIG1        0.0736
     11 C           0.3580    0.7330    0.0000 C.3     1  LIG1        0.0947
     12 C           1.3580    0.7330    0.0000 C.2     1  LIG1        0.2418
     13 N           1.8630   -0.1290    0.0000 N.am    1  LIG1       -0.2072
     14 C           2.8630   -0.1250    0.0000 C.3     1  LIG1        0.0953
     15 C           3.4500   -0.9250    0.0000 C.3     1  LIG1        0.0217
     16 C           4.4040   -0.6080    0.0000 C.3     1  LIG1        0.0018
     17 C           4.3920    0.4000    0.0000 C.3     1  LIG1        0.0018
     18 C           3.4380    0.6920    0.0000 C.3     1  LIG1        0.0217
     19 O           1.8580    1.6000    0.0000 O.2     1  LIG1       -0.2733
     20 C          -1.4210   -0.1580    0.0000 C.3     1  LIG1        0.1353
     21 C          -2.0880   -0.9000    0.0000 C.ar    1  LIG1        0.0005
     22 C          -1.7750   -1.8500    0.0000 C.ar    1  LIG1       -0.0024
     23 C          -2.4420   -2.5920    0.0000 C.ar    1  LIG1       -0.0003
     24 C          -3.4250   -2.3830    0.0000 C.ar    1  LIG1       -0.0000
     25 C          -3.7380   -1.4290    0.0000 C.ar    1  LIG1       -0.0003
     26 C          -3.0630   -0.6880    0.0000 C.ar    1  LIG1       -0.0024
@<TRIPOS>BOND
     1     1     2   ar
     2     1     5   ar
     3     1    20    1
     4     2     3   ar
     5     2    10    1
     6     3     4   ar
     7     4     5   ar
     8     4     9   ar
     9     5     6   ar
    10     6     7   ar
    11     7     8   ar
    12     8     9   ar
    13    10    11    1
    14    11    12    1
    15    12    13   am
    16    12    19    2
    17    13    14    1
    18    14    15    1
    19    14    18    1
    20    15    16    1
    21    16    17    1
    22    17    18    1
    23    20    21    1
    24    21    22   ar
    25    21    26   ar
    26    22    23   ar
    27    23    24   ar
    28    24    25   ar
    29    25    26   ar
