@<TRIPOS>MOLECULE
37610_ChemDiv_C696-1164
 31 34 0 0 0
SMALL
GASTEIGER
Energy = 0

@<TRIPOS>ATOM
      1 N           1.7630    1.3000    0.0000 N.ar    1  LIG1       -0.2074
      2 N           2.2630    0.4330    0.0000 N.ar    1  LIG1       -0.1704
      3 C           3.2670    0.4330    0.0000 C.ar    1  LIG1        0.0832
      4 C           3.7670    1.3000    0.0000 C.ar    1  LIG1        0.0202
      5 C           3.2670    2.1630    0.0000 C.ar    1  LIG1        0.0588
      6 C           2.2630    2.1630    0.0000 C.ar    1  LIG1        0.2768
      7 O           1.7630    3.0330    0.0000 O.2     1  LIG1       -0.2655
      8 C           3.7670    3.0330    0.0000 C.ar    1  LIG1        0.0048
      9 C           4.7670    3.0330    0.0000 C.ar    1  LIG1        0.0002
     10 C           5.2670    2.1630    0.0000 C.ar    1  LIG1        0.0000
     11 C           4.7670    1.3000    0.0000 C.ar    1  LIG1        0.0014
     12 C           3.7670   -0.4380    0.0000 C.3     1  LIG1        0.0754
     13 C           3.2670   -1.3000    0.0000 C.ar    1  LIG1        0.0030
     14 C           2.2630   -1.3000    0.0000 C.ar    1  LIG1        0.0950
     15 N           1.7630   -2.1630    0.0000 N.ar    1  LIG1       -0.2426
     16 C           2.2630   -3.0290    0.0000 C.ar    1  LIG1        0.0989
     17 C           3.2670   -3.0290    0.0000 C.ar    1  LIG1        0.0204
     18 C           3.7670   -2.1630    0.0000 C.ar    1  LIG1       -0.0008
     19 C           0.7670    1.3000    0.0000 C.3     1  LIG1        0.2168
     20 C           0.2630    2.1630    0.0000 C.2     1  LIG1        0.2664
     21 O           0.7670    3.0330    0.0000 O.2     1  LIG1       -0.2712
     22 N          -0.7330    2.1630    0.0000 N.am    1  LIG1       -0.2037
     23 C          -1.2330    1.3000    0.0000 C.3     1  LIG1        0.1170
     24 C          -2.2330    1.3000    0.0000 C.3     1  LIG1        0.0449
     25 C          -2.7330    0.4330    0.0000 C.3     1  LIG1        0.0952
     26 N          -3.7380    0.4330    0.0000 N.am    1  LIG1       -0.2795
     27 C          -4.3210    1.2380    0.0000 C.2     1  LIG1        0.2257
     28 O          -4.0130    2.1960    0.0000 O.2     1  LIG1       -0.2749
     29 C          -5.2710    0.9330    0.0000 C.3     1  LIG1        0.0870
     30 C          -5.2710   -0.0630    0.0000 C.3     1  LIG1        0.0311
     31 C          -4.3210   -0.3750    0.0000 C.3     1  LIG1        0.0939
@<TRIPOS>BOND
     1     1     2   ar
     2     1     6   ar
     3     1    19    1
     4     2     3   ar
     5     3     4   ar
     6     3    12    1
     7     4     5   ar
     8     4    11   ar
     9     5     6   ar
    10     5     8   ar
    11     6     7    2
    12     8     9   ar
    13     9    10   ar
    14    10    11   ar
    15    12    13    1
    16    13    14   ar
    17    13    18   ar
    18    14    15   ar
    19    15    16   ar
    20    16    17   ar
    21    17    18   ar
    22    19    20    1
    23    20    21    2
    24    20    22   am
    25    22    23    1
    26    23    24    1
    27    24    25    1
    28    25    26    1
    29    26    27   am
    30    26    31    1
    31    27    28    2
    32    27    29    1
    33    29    30    1
    34    30    31    1
