@<TRIPOS>MOLECULE
37615_ChemDiv_C614-0576
 31 34 0 0 0
SMALL
GASTEIGER
Energy = 0

@<TRIPOS>ATOM
      1 N          -1.6330    1.0630    0.0000 N.ar    1  LIG1       -0.2961
      2 C          -1.0460    1.8630    0.0000 C.ar    1  LIG1        0.1222
      3 N          -1.6330    2.6830    0.0000 N.ar    1  LIG1       -0.2293
      4 C          -2.5790    2.3630    0.0000 C.ar    1  LIG1        0.1167
      5 C          -2.5790    1.3670    0.0000 C.ar    1  LIG1        0.1627
      6 N          -3.4500    0.8670    0.0000 N.ar    1  LIG1       -0.2252
      7 C          -4.3130    1.3670    0.0000 C.ar    1  LIG1        0.1006
      8 C          -4.3130    2.3630    0.0000 C.ar    1  LIG1        0.0223
      9 C          -3.4500    2.8630    0.0000 C.ar    1  LIG1        0.0238
     10 C          -0.0460    1.8630    0.0000 C.3     1  LIG1        0.0736
     11 C           0.4540    1.0000    0.0000 C.3     1  LIG1        0.0951
     12 C           1.4540    1.0000    0.0000 C.2     1  LIG1        0.2460
     13 N           1.9630    0.1380    0.0000 N.am    1  LIG1       -0.1795
     14 C           2.9630    0.1420    0.0000 C.ar    1  LIG1        0.0691
     15 C           3.4670   -0.7210    0.0000 C.ar    1  LIG1       -0.0104
     16 C           4.4670   -0.7080    0.0000 C.ar    1  LIG1       -0.0245
     17 C           4.9630    0.1710    0.0000 C.ar    1  LIG1       -0.0045
     18 C           4.4460    1.0330    0.0000 C.ar    1  LIG1        0.0010
     19 C           3.4460    1.0170    0.0000 C.ar    1  LIG1        0.0163
     20 C           4.9670   -1.5710    0.0000 C.3     1  LIG1        0.0307
     21 C           2.9670   -1.5880    0.0000 C.3     1  LIG1        0.0321
     22 O           1.9540    1.8710    0.0000 O.2     1  LIG1       -0.2730
     23 C          -1.3170    0.1080    0.0000 C.3     1  LIG1        0.1353
     24 C          -1.9880   -0.6330    0.0000 C.ar    1  LIG1        0.0007
     25 C          -1.6790   -1.5830    0.0000 C.ar    1  LIG1        0.0007
     26 C          -2.3460   -2.3250    0.0000 C.ar    1  LIG1        0.0366
     27 C          -3.3290   -2.1170    0.0000 C.ar    1  LIG1        0.1387
     28 C          -3.6330   -1.1630    0.0000 C.ar    1  LIG1        0.0366
     29 C          -2.9670   -0.4210    0.0000 C.ar    1  LIG1        0.0007
     30 O          -3.9960   -2.8580    0.0000 O.3     1  LIG1       -0.4714
     31 C          -4.9710   -2.6580    0.0000 C.3     1  LIG1        0.2525
@<TRIPOS>BOND
     1     1     2   ar
     2     1     5   ar
     3     1    23    1
     4     2     3   ar
     5     2    10    1
     6     3     4   ar
     7     4     5   ar
     8     4     9   ar
     9     5     6   ar
    10     6     7   ar
    11     7     8   ar
    12     8     9   ar
    13    10    11    1
    14    11    12    1
    15    12    13   am
    16    12    22    2
    17    13    14    1
    18    14    15   ar
    19    14    19   ar
    20    15    16   ar
    21    15    21    1
    22    16    17   ar
    23    16    20    1
    24    17    18   ar
    25    18    19   ar
    26    23    24    1
    27    24    25   ar
    28    24    29   ar
    29    25    26   ar
    30    26    27   ar
    31    27    28   ar
    32    27    30    1
    33    28    29   ar
    34    30    31    1
