@<TRIPOS>MOLECULE
37618_ChemDiv_C638-0398
 33 38 0 0 0
SMALL
GASTEIGER
Energy = 0

@<TRIPOS>ATOM
      1 C          -2.9170    3.0210    0.0000 C.ar    1  LIG1        0.2367
      2 N          -1.9670    3.3380    0.0000 N.ar    1  LIG1       -0.2100
      3 C          -1.3750    2.5330    0.0000 C.ar    1  LIG1        0.0964
      4 C          -1.9580    1.7290    0.0000 C.ar    1  LIG1        0.0621
      5 N          -2.9080    2.0330    0.0000 N.ar    1  LIG1       -0.2774
      6 C          -3.7790    1.5210    0.0000 C.ar    1  LIG1        0.0842
      7 C          -4.6420    2.0170    0.0000 C.ar    1  LIG1        0.0398
      8 C          -4.6420    3.0210    0.0000 C.ar    1  LIG1        0.1036
      9 N          -3.7790    3.5250    0.0000 N.ar    1  LIG1       -0.2095
     10 C          -1.6500    0.7710    0.0000 C.3     1  LIG1        0.0521
     11 C          -0.3750    2.5380    0.0000 C.ar    1  LIG1        0.0202
     12 C           0.1250    1.6710    0.0000 C.ar    1  LIG1        0.0181
     13 C           1.1290    1.6830    0.0000 C.ar    1  LIG1        0.0734
     14 N           1.6290    0.8170    0.0000 N.am    1  LIG1       -0.1787
     15 C           1.1380   -0.0580    0.0000 C.2     1  LIG1        0.2535
     16 C           1.6420   -0.9130    0.0000 C.3     1  LIG1        0.1287
     17 C           1.1460   -1.7790    0.0000 C.ar    1  LIG1        0.0250
     18 C           1.6540   -2.6460    0.0000 C.ar    1  LIG1        0.1420
     19 O           2.6500   -2.6460    0.0000 O.3     1  LIG1       -0.4541
     20 C           3.1500   -1.7790    0.0000 C.ar    1  LIG1        0.1420
     21 C           2.6420   -0.9130    0.0000 C.ar    1  LIG1        0.0250
     22 C           3.1170   -0.0500    0.0000 C.ar    1  LIG1       -0.0005
     23 C           4.1210   -0.0500    0.0000 C.ar    1  LIG1       -0.0001
     24 C           4.6380   -0.9130    0.0000 C.ar    1  LIG1        0.0031
     25 C           4.1380   -1.7790    0.0000 C.ar    1  LIG1        0.0372
     26 C           1.1580   -3.5130    0.0000 C.ar    1  LIG1        0.0372
     27 C           0.1580   -3.5210    0.0000 C.ar    1  LIG1        0.0031
     28 C          -0.3460   -2.6540    0.0000 C.ar    1  LIG1       -0.0001
     29 C           0.1580   -1.7790    0.0000 C.ar    1  LIG1       -0.0005
     30 O           0.1380   -0.0630    0.0000 O.2     1  LIG1       -0.2723
     31 C           1.6290    2.5500    0.0000 C.ar    1  LIG1        0.0166
     32 C           1.1130    3.4290    0.0000 C.ar    1  LIG1        0.0014
     33 C           0.1130    3.4130    0.0000 C.ar    1  LIG1        0.0016
@<TRIPOS>BOND
     1     1     2   ar
     2     1     5   ar
     3     1     9   ar
     4     2     3   ar
     5     3     4   ar
     6     3    11    1
     7     4     5   ar
     8     4    10    1
     9     5     6   ar
    10     6     7   ar
    11     7     8   ar
    12     8     9   ar
    13    11    12   ar
    14    11    33   ar
    15    12    13   ar
    16    13    14    1
    17    13    31   ar
    18    14    15   am
    19    15    16    1
    20    15    30    2
    21    16    17    1
    22    16    21    1
    23    17    18   ar
    24    17    29   ar
    25    18    19    1
    26    18    26   ar
    27    19    20    1
    28    20    21   ar
    29    20    25   ar
    30    21    22   ar
    31    22    23   ar
    32    23    24   ar
    33    24    25   ar
    34    26    27   ar
    35    27    28   ar
    36    28    29   ar
    37    31    32   ar
    38    32    33   ar
