@<TRIPOS>MOLECULE
37625_ChemDiv_C614-1025
 34 38 0 0 0
SMALL
GASTEIGER
Energy = 0

@<TRIPOS>ATOM
      1 N          -0.2000   -2.5960    0.0000 N.ar    1  LIG1       -0.3228
      2 C           0.3580   -1.7540    0.0000 C.ar    1  LIG1        0.0339
      3 C          -0.2000   -0.9080    0.0000 C.ar    1  LIG1       -0.0093
      4 C          -1.1040   -1.2420    0.0000 C.ar    1  LIG1        0.0129
      5 C          -1.1040   -2.2790    0.0000 C.ar    1  LIG1        0.0597
      6 C          -1.9380   -2.7830    0.0000 C.ar    1  LIG1        0.0172
      7 C          -2.7630   -2.2790    0.0000 C.ar    1  LIG1        0.0015
      8 C          -2.7630   -1.2420    0.0000 C.ar    1  LIG1        0.0001
      9 C          -1.9380   -0.7080    0.0000 C.ar    1  LIG1        0.0012
     10 C           0.1380    0.0630    0.0000 C.3     1  LIG1        0.0264
     11 C           1.0750    0.2330    0.0000 C.3     1  LIG1        0.0236
     12 C           1.4080    1.2000    0.0000 C.3     1  LIG1        0.0961
     13 N           0.8040    2.0170    0.0000 N.3     1  LIG1       -0.1555
     14 S           1.1380    3.0000    0.0000 S.O2    1  LIG1        0.0633
     15 C           1.4710    3.9830    0.0000 C.ar    1  LIG1        0.1222
     16 C           2.4250    4.1630    0.0000 C.ar    1  LIG1        0.0196
     17 C           2.7580    5.1460    0.0000 C.ar    1  LIG1       -0.0029
     18 C           2.1380    5.9540    0.0000 C.ar    1  LIG1       -0.0218
     19 C           1.1750    5.7710    0.0000 C.ar    1  LIG1       -0.0029
     20 C           0.8500    4.7830    0.0000 C.ar    1  LIG1        0.0196
     21 C           2.5000    6.8880    0.0000 C.3     1  LIG1        0.0310
     22 O           2.0460    2.6380    0.0000 O.2     1  LIG1       -0.1528
     23 O           0.2290    3.3630    0.0000 O.2     1  LIG1       -0.1528
     24 C          -0.1380    1.8330    0.0000 C.3     1  LIG1        0.0961
     25 C          -0.4710    0.8540    0.0000 C.3     1  LIG1        0.0236
     26 C           1.3290   -1.7540    0.0000 C.3     1  LIG1        0.0497
     27 C           0.1000   -3.5670    0.0000 C.3     1  LIG1        0.1916
     28 C          -0.5580   -4.3290    0.0000 C.2     1  LIG1        0.2487
     29 N          -0.2420   -5.2830    0.0000 N.am    1  LIG1       -0.2780
     30 C          -0.8170   -6.0880    0.0000 C.3     1  LIG1        0.0935
     31 C          -0.2170   -6.8880    0.0000 C.3     1  LIG1        0.0233
     32 C           0.7290   -6.5710    0.0000 C.3     1  LIG1        0.0233
     33 C           0.7210   -5.5710    0.0000 C.3     1  LIG1        0.0935
     34 O          -1.5040   -4.1170    0.0000 O.2     1  LIG1       -0.2728
@<TRIPOS>BOND
     1     1     2   ar
     2     1     5   ar
     3     1    27    1
     4     2     3   ar
     5     2    26    1
     6     3     4   ar
     7     3    10    1
     8     4     5   ar
     9     4     9   ar
    10     5     6   ar
    11     6     7   ar
    12     7     8   ar
    13     8     9   ar
    14    10    11    1
    15    10    25    1
    16    11    12    1
    17    12    13    1
    18    13    14    1
    19    13    24    1
    20    14    15    1
    21    14    22    2
    22    14    23    2
    23    15    16   ar
    24    15    20   ar
    25    16    17   ar
    26    17    18   ar
    27    18    19   ar
    28    18    21    1
    29    19    20   ar
    30    24    25    1
    31    27    28    1
    32    28    29   am
    33    28    34    2
    34    29    30    1
    35    29    33    1
    36    30    31    1
    37    31    32    1
    38    32    33    1
