@<TRIPOS>MOLECULE
37624_ChemDiv_C646-0093
 31 34 0 0 0
SMALL
GASTEIGER
Energy = 0

@<TRIPOS>ATOM
      1 S           1.3130    0.4880    0.0000 S.O2    1  LIG1        0.0773
      2 N           0.4750    0.0000    0.0000 N.3     1  LIG1       -0.0699
      3 C           0.4750   -0.9670    0.0000 C.3     1  LIG1        0.1751
      4 C          -0.3630   -1.4500    0.0000 C.2     1  LIG1        0.2594
      5 N          -1.2000   -0.9670    0.0000 N.am    1  LIG1       -0.1993
      6 C          -2.0290   -1.4710    0.0000 C.3     1  LIG1        0.1416
      7 C          -2.8290   -1.0170    0.0000 C.ar    1  LIG1        0.0027
      8 C          -3.6790   -1.5170    0.0000 C.ar    1  LIG1        0.0376
      9 C          -4.5790   -1.0170    0.0000 C.ar    1  LIG1        0.1762
     10 C          -4.5790    0.0250    0.0000 C.ar    1  LIG1        0.1764
     11 O          -6.2830    0.0250    0.0000 O.3     1  LIG1       -0.4346
     12 C          -6.2830   -1.0170    0.0000 C.3     1  LIG1        0.4294
     13 O          -5.4420   -1.5170    0.0000 O.3     1  LIG1       -0.4346
     14 C          -3.6790    0.5080    0.0000 C.ar    1  LIG1        0.0399
     15 C          -2.8290    0.0250    0.0000 C.ar    1  LIG1        0.0008
     16 O          -0.3630   -2.4210    0.0000 O.2     1  LIG1       -0.2718
     17 C           1.3130   -1.4500    0.0000 C.3     1  LIG1        0.0269
     18 C           1.3130   -2.4210    0.0000 C.3     1  LIG1        0.0020
     19 C           2.1500   -0.9670    0.0000 C.3     1  LIG1        0.0020
     20 C           2.1500    0.9670    0.0000 C.ar    1  LIG1        0.1242
     21 C           2.9880    0.4830    0.0000 C.ar    1  LIG1        0.0280
     22 C           3.8250    0.9670    0.0000 C.ar    1  LIG1        0.0495
     23 S           4.7460    0.6710    0.0000 S.2     1  LIG1       -0.0707
     24 C           5.3130    1.4540    0.0000 C.ar    1  LIG1        0.0886
     25 N           4.7460    2.2380    0.0000 N.ar    1  LIG1       -0.2427
     26 C           3.8250    1.9380    0.0000 C.ar    1  LIG1        0.0875
     27 C           2.9880    2.4250    0.0000 C.ar    1  LIG1        0.0210
     28 C           2.1500    1.9380    0.0000 C.ar    1  LIG1        0.0215
     29 C           6.2830    1.4540    0.0000 C.3     1  LIG1        0.0594
     30 O           1.7960   -0.3500    0.0000 O.2     1  LIG1       -0.1516
     31 O           0.8290    1.3210    0.0000 O.2     1  LIG1       -0.1516
@<TRIPOS>BOND
     1     1     2    1
     2     1    20    1
     3     1    30    2
     4     1    31    2
     5     2     3    1
     6     3     4    1
     7     3    17    1
     8     4     5   am
     9     4    16    2
    10     5     6    1
    11     6     7    1
    12     7     8   ar
    13     7    15   ar
    14     8     9   ar
    15     9    10   ar
    16     9    13    1
    17    10    11    1
    18    10    14   ar
    19    11    12    1
    20    12    13    1
    21    14    15   ar
    22    17    18    1
    23    17    19    1
    24    20    21   ar
    25    20    28   ar
    26    21    22   ar
    27    22    23   ar
    28    22    26   ar
    29    23    24   ar
    30    24    25   ar
    31    24    29    1
    32    25    26   ar
    33    26    27   ar
    34    27    28   ar
