@<TRIPOS>MOLECULE
37620_ChemDiv_C645-0143
 33 38 0 0 0
SMALL
GASTEIGER
Energy = 0

@<TRIPOS>ATOM
      1 C           0.0040    1.4750    0.0000 C.ar    1  LIG1        0.0560
      2 C          -0.8580    1.9750    0.0000 C.ar    1  LIG1        0.1072
      3 C          -1.7210    1.4750    0.0000 C.ar    1  LIG1        0.0385
      4 C          -1.7210    0.4750    0.0000 C.ar    1  LIG1        0.0649
      5 N          -0.8580   -0.0250    0.0000 N.ar    1  LIG1       -0.3215
      6 C           0.0040    0.4750    0.0000 C.ar    1  LIG1        0.0792
      7 C          -0.8580   -1.0210    0.0000 C.3     1  LIG1        0.1350
      8 C           0.0040   -1.5210    0.0000 C.ar    1  LIG1        0.0279
      9 C           0.0040   -2.5330    0.0000 C.ar    1  LIG1        0.1380
     10 F          -0.8710   -3.0460    0.0000 F       1  LIG1       -0.2044
     11 C           0.8670   -3.0330    0.0000 C.ar    1  LIG1        0.0294
     12 C           1.7330   -2.5330    0.0000 C.ar    1  LIG1        0.0023
     13 C           1.7330   -1.5210    0.0000 C.ar    1  LIG1       -0.0001
     14 C           0.8670   -1.0210    0.0000 C.ar    1  LIG1       -0.0002
     15 C          -2.5830   -0.0250    0.0000 C.ar    1  LIG1        0.0573
     16 C          -3.4500    0.4750    0.0000 C.ar    1  LIG1        0.1738
     17 C          -3.4500    1.4750    0.0000 C.ar    1  LIG1        0.1725
     18 C          -2.5830    1.9750    0.0000 C.ar    1  LIG1        0.0430
     19 O          -4.3250    1.9750    0.0000 O.3     1  LIG1       -0.4684
     20 C          -5.1880    1.4750    0.0000 C.3     1  LIG1        0.2526
     21 C          -5.1880    0.4750    0.0000 C.3     1  LIG1        0.2526
     22 O          -4.3250   -0.0250    0.0000 O.3     1  LIG1       -0.4683
     23 N          -0.6460    2.9500    0.0000 N.ar    1  LIG1       -0.1479
     24 N           0.3380    3.0500    0.0000 N.ar    1  LIG1       -0.1479
     25 C           0.7580    2.1460    0.0000 C.ar    1  LIG1        0.1057
     26 C           1.7460    2.0500    0.0000 C.ar    1  LIG1        0.0197
     27 C           2.1710    1.1420    0.0000 C.ar    1  LIG1        0.0047
     28 C           3.1670    1.0500    0.0000 C.ar    1  LIG1        0.0369
     29 C           3.7460    1.8710    0.0000 C.ar    1  LIG1        0.1387
     30 C           3.3210    2.7790    0.0000 C.ar    1  LIG1        0.0369
     31 C           2.3330    2.8670    0.0000 C.ar    1  LIG1        0.0047
     32 O           4.7460    1.7960    0.0000 O.3     1  LIG1       -0.4714
     33 C           5.1830    0.9000    0.0000 C.3     1  LIG1        0.2525
@<TRIPOS>BOND
     1     1     2   ar
     2     1     6   ar
     3     1    25   ar
     4     2     3   ar
     5     2    23   ar
     6     3     4   ar
     7     3    18   ar
     8     4     5   ar
     9     4    15   ar
    10     5     6   ar
    11     5     7    1
    12     7     8    1
    13     8     9   ar
    14     8    14   ar
    15     9    10    1
    16     9    11   ar
    17    11    12   ar
    18    12    13   ar
    19    13    14   ar
    20    15    16   ar
    21    16    17   ar
    22    16    22    1
    23    17    18   ar
    24    17    19    1
    25    19    20    1
    26    20    21    1
    27    21    22    1
    28    23    24   ar
    29    24    25   ar
    30    25    26    1
    31    26    27   ar
    32    26    31   ar
    33    27    28   ar
    34    28    29   ar
    35    29    30   ar
    36    29    32    1
    37    30    31   ar
    38    32    33    1
