@<TRIPOS>MOLECULE
37627_ChemDiv_C614-1028
 34 38 0 0 0
SMALL
GASTEIGER
Energy = 0

@<TRIPOS>ATOM
      1 N          -0.2000   -2.7040    0.0000 N.ar    1  LIG1       -0.3228
      2 C           0.3880   -1.9000    0.0000 C.ar    1  LIG1        0.0339
      3 C          -0.2000   -1.0830    0.0000 C.ar    1  LIG1       -0.0093
      4 C          -1.1540   -1.3960    0.0000 C.ar    1  LIG1        0.0129
      5 C          -1.1540   -2.3960    0.0000 C.ar    1  LIG1        0.0597
      6 C          -2.0170   -2.8960    0.0000 C.ar    1  LIG1        0.0172
      7 C          -2.8790   -2.3960    0.0000 C.ar    1  LIG1        0.0015
      8 C          -2.8790   -1.3960    0.0000 C.ar    1  LIG1        0.0001
      9 C          -2.0170   -0.8960    0.0000 C.ar    1  LIG1        0.0012
     10 C           0.1500   -0.1540    0.0000 C.3     1  LIG1        0.0264
     11 C           1.1330    0.0130    0.0000 C.3     1  LIG1        0.0236
     12 C           1.4830    0.9460    0.0000 C.3     1  LIG1        0.0961
     13 N           0.8460    1.7250    0.0000 N.3     1  LIG1       -0.1555
     14 S           1.1960    2.6710    0.0000 S.O2    1  LIG1        0.0633
     15 C           1.5420    3.6250    0.0000 C.ar    1  LIG1        0.1223
     16 C           2.5250    3.7920    0.0000 C.ar    1  LIG1        0.0222
     17 C           2.8750    4.7130    0.0000 C.ar    1  LIG1        0.0310
     18 C           2.2250    5.5000    0.0000 C.ar    1  LIG1        0.1402
     19 C           1.2420    5.3250    0.0000 C.ar    1  LIG1        0.0310
     20 C           0.9000    4.3960    0.0000 C.ar    1  LIG1        0.0222
     21 F           2.5710    6.4290    0.0000 F       1  LIG1       -0.2042
     22 O           2.1500    2.3250    0.0000 O.2     1  LIG1       -0.1528
     23 O           0.2500    3.0210    0.0000 O.2     1  LIG1       -0.1528
     24 C          -0.1380    1.5500    0.0000 C.3     1  LIG1        0.0961
     25 C          -0.4880    0.6170    0.0000 C.3     1  LIG1        0.0236
     26 C           1.3880   -1.9000    0.0000 C.3     1  LIG1        0.0497
     27 C           0.1040   -3.6580    0.0000 C.3     1  LIG1        0.1916
     28 C           1.0830   -3.8710    0.0000 C.2     1  LIG1        0.2487
     29 N           1.3920   -4.8250    0.0000 N.am    1  LIG1       -0.2780
     30 C           0.8920   -5.6880    0.0000 C.3     1  LIG1        0.0935
     31 C           1.5750   -6.4290    0.0000 C.3     1  LIG1        0.0233
     32 C           2.4670   -6.0210    0.0000 C.3     1  LIG1        0.0233
     33 C           2.3630   -5.0380    0.0000 C.3     1  LIG1        0.0935
     34 O           1.7540   -3.1290    0.0000 O.2     1  LIG1       -0.2728
@<TRIPOS>BOND
     1     1     2   ar
     2     1     5   ar
     3     1    27    1
     4     2     3   ar
     5     2    26    1
     6     3     4   ar
     7     3    10    1
     8     4     5   ar
     9     4     9   ar
    10     5     6   ar
    11     6     7   ar
    12     7     8   ar
    13     8     9   ar
    14    10    11    1
    15    10    25    1
    16    11    12    1
    17    12    13    1
    18    13    14    1
    19    13    24    1
    20    14    15    1
    21    14    22    2
    22    14    23    2
    23    15    16   ar
    24    15    20   ar
    25    16    17   ar
    26    17    18   ar
    27    18    19   ar
    28    18    21    1
    29    19    20   ar
    30    24    25    1
    31    27    28    1
    32    28    29   am
    33    28    34    2
    34    29    30    1
    35    29    33    1
    36    30    31    1
    37    31    32    1
    38    32    33    1
