@<TRIPOS>MOLECULE
37622_ChemDiv_C645-0437
 31 36 0 0 0
SMALL
GASTEIGER
Energy = 0

@<TRIPOS>ATOM
      1 C           0.6290    1.4670    0.0000 C.ar    1  LIG1        0.0560
      2 C          -0.2380    1.9670    0.0000 C.ar    1  LIG1        0.1072
      3 C          -1.1040    1.4670    0.0000 C.ar    1  LIG1        0.0385
      4 C          -1.1040    0.4710    0.0000 C.ar    1  LIG1        0.0649
      5 N          -0.2380   -0.0290    0.0000 N.ar    1  LIG1       -0.3215
      6 C           0.6290    0.4710    0.0000 C.ar    1  LIG1        0.0792
      7 C          -0.2380   -1.0290    0.0000 C.3     1  LIG1        0.1358
      8 C           0.6250   -1.5290    0.0000 C.ar    1  LIG1        0.0344
      9 C           0.6250   -2.5330    0.0000 C.ar    1  LIG1        0.1365
     10 O          -0.2500   -3.0500    0.0000 O.3     1  LIG1       -0.4717
     11 C          -1.1290   -2.5500    0.0000 C.3     1  LIG1        0.2525
     12 C           1.4880   -3.0330    0.0000 C.ar    1  LIG1        0.0366
     13 C           2.3540   -2.5330    0.0000 C.ar    1  LIG1        0.0031
     14 C           2.3540   -1.5290    0.0000 C.ar    1  LIG1       -0.0001
     15 C           1.4880   -1.0290    0.0000 C.ar    1  LIG1        0.0006
     16 C          -1.9670   -0.0290    0.0000 C.ar    1  LIG1        0.0574
     17 C          -2.8380    0.4710    0.0000 C.ar    1  LIG1        0.1779
     18 C          -2.8380    1.4670    0.0000 C.ar    1  LIG1        0.1766
     19 C          -1.9670    1.9670    0.0000 C.ar    1  LIG1        0.0432
     20 O          -3.7830    1.7790    0.0000 O.3     1  LIG1       -0.4346
     21 C          -4.3670    0.9630    0.0000 C.3     1  LIG1        0.4294
     22 O          -3.7830    0.1630    0.0000 O.3     1  LIG1       -0.4346
     23 N          -0.0290    2.9460    0.0000 N.ar    1  LIG1       -0.1479
     24 N           0.9630    3.0540    0.0000 N.ar    1  LIG1       -0.1479
     25 C           1.3710    2.1460    0.0000 C.ar    1  LIG1        0.1057
     26 C           2.3710    2.0540    0.0000 C.ar    1  LIG1        0.0195
     27 C           2.9460    2.8630    0.0000 C.ar    1  LIG1        0.0016
     28 C           3.9460    2.7670    0.0000 C.ar    1  LIG1        0.0000
     29 C           4.3630    1.8630    0.0000 C.ar    1  LIG1        0.0000
     30 C           3.7790    1.0460    0.0000 C.ar    1  LIG1        0.0000
     31 C           2.7880    1.1460    0.0000 C.ar    1  LIG1        0.0016
@<TRIPOS>BOND
     1     1     2   ar
     2     1     6   ar
     3     1    25   ar
     4     2     3   ar
     5     2    23   ar
     6     3     4   ar
     7     3    19   ar
     8     4     5   ar
     9     4    16   ar
    10     5     6   ar
    11     5     7    1
    12     7     8    1
    13     8     9   ar
    14     8    15   ar
    15     9    10    1
    16     9    12   ar
    17    10    11    1
    18    12    13   ar
    19    13    14   ar
    20    14    15   ar
    21    16    17   ar
    22    17    18   ar
    23    17    22    1
    24    18    19   ar
    25    18    20    1
    26    20    21    1
    27    21    22    1
    28    23    24   ar
    29    24    25   ar
    30    25    26    1
    31    26    27   ar
    32    26    31   ar
    33    27    28   ar
    34    28    29   ar
    35    29    30   ar
    36    30    31   ar
