@<TRIPOS>MOLECULE
37621_ChemDiv_C614-0984
 28 31 0 0 0
SMALL
GASTEIGER
Energy = 0

@<TRIPOS>ATOM
      1 N          -2.4580    0.7880    0.0000 N.ar    1  LIG1       -0.2961
      2 C          -1.8710    1.6000    0.0000 C.ar    1  LIG1        0.1222
      3 N          -2.4580    2.4080    0.0000 N.ar    1  LIG1       -0.2293
      4 C          -3.4040    2.1000    0.0000 C.ar    1  LIG1        0.1167
      5 C          -3.4040    1.1000    0.0000 C.ar    1  LIG1        0.1627
      6 N          -4.2750    0.5920    0.0000 N.ar    1  LIG1       -0.2252
      7 C          -5.1380    1.0880    0.0000 C.ar    1  LIG1        0.1006
      8 C          -5.1380    2.0880    0.0000 C.ar    1  LIG1        0.0223
      9 C          -4.2750    2.6000    0.0000 C.ar    1  LIG1        0.0238
     10 C          -0.8710    1.6000    0.0000 C.3     1  LIG1        0.0736
     11 C          -0.3710    0.7380    0.0000 C.3     1  LIG1        0.0947
     12 C           0.6290    0.7380    0.0000 C.2     1  LIG1        0.2418
     13 N           1.1380   -0.1250    0.0000 N.am    1  LIG1       -0.2072
     14 C           2.1380   -0.1250    0.0000 C.3     1  LIG1        0.0953
     15 C           2.6420   -0.9880    0.0000 C.3     1  LIG1        0.0217
     16 C           3.6380   -0.9830    0.0000 C.3     1  LIG1        0.0018
     17 C           4.1330   -0.1130    0.0000 C.3     1  LIG1        0.0001
     18 C           3.6250    0.7500    0.0000 C.3     1  LIG1        0.0018
     19 C           2.6250    0.7500    0.0000 C.3     1  LIG1        0.0217
     20 C           5.1330   -0.1040    0.0000 C.3     1  LIG1        0.0000
     21 O           1.1290    1.6000    0.0000 O.2     1  LIG1       -0.2733
     22 C          -2.1420   -0.1670    0.0000 C.3     1  LIG1        0.1353
     23 C          -2.8130   -0.9080    0.0000 C.ar    1  LIG1        0.0005
     24 C          -3.7920   -0.6960    0.0000 C.ar    1  LIG1       -0.0024
     25 C          -4.4580   -1.4380    0.0000 C.ar    1  LIG1       -0.0003
     26 C          -4.1540   -2.3920    0.0000 C.ar    1  LIG1       -0.0000
     27 C          -3.1710   -2.5960    0.0000 C.ar    1  LIG1       -0.0003
     28 C          -2.5040   -1.8540    0.0000 C.ar    1  LIG1       -0.0024
@<TRIPOS>BOND
     1     1     2   ar
     2     1     5   ar
     3     1    22    1
     4     2     3   ar
     5     2    10    1
     6     3     4   ar
     7     4     5   ar
     8     4     9   ar
     9     5     6   ar
    10     6     7   ar
    11     7     8   ar
    12     8     9   ar
    13    10    11    1
    14    11    12    1
    15    12    13   am
    16    12    21    2
    17    13    14    1
    18    14    15    1
    19    14    19    1
    20    15    16    1
    21    16    17    1
    22    17    18    1
    23    17    20    1
    24    18    19    1
    25    22    23    1
    26    23    24   ar
    27    23    28   ar
    28    24    25   ar
    29    25    26   ar
    30    26    27   ar
    31    27    28   ar
