@<TRIPOS>MOLECULE
37638_ChemDiv_C663-0142
 33 37 0 0 0
SMALL
GASTEIGER
Energy = 0

@<TRIPOS>ATOM
      1 C          -2.6920    0.1540    0.0000 C.ar    1  LIG1        0.1707
      2 N          -1.9500   -0.5130    0.0000 N.ar    1  LIG1       -0.2709
      3 C          -1.0830   -0.0130    0.0000 C.ar    1  LIG1        0.1973
      4 N          -1.2920    0.9670    0.0000 N.ar    1  LIG1       -0.1220
      5 N          -2.2830    1.0670    0.0000 N.ar    1  LIG1       -0.1305
      6 S          -0.1670   -0.4170    0.0000 S.3     1  LIG1       -0.0654
      7 C           0.6460    0.1670    0.0000 C.3     1  LIG1        0.1520
      8 C           1.5630   -0.2460    0.0000 C.2     1  LIG1        0.2588
      9 N           2.3750    0.3380    0.0000 N.am    1  LIG1       -0.1521
     10 C           3.2790   -0.0670    0.0000 C.ar    1  LIG1        0.2077
     11 S           4.2080    0.3330    0.0000 S.2     1  LIG1       -0.0330
     12 C           4.8630   -0.4170    0.0000 C.ar    1  LIG1        0.1128
     13 N           4.3630   -1.2790    0.0000 N.ar    1  LIG1       -0.1440
     14 N           3.3790   -1.0670    0.0000 N.ar    1  LIG1       -0.1239
     15 C           5.8630   -0.3330    0.0000 C.3     1  LIG1        0.0614
     16 O           1.6630   -1.2330    0.0000 O.2     1  LIG1       -0.2720
     17 C          -2.0000   -1.5000    0.0000 C.ar    1  LIG1        0.0670
     18 C          -1.1670   -2.0460    0.0000 C.ar    1  LIG1        0.0176
     19 C          -1.2170   -3.0420    0.0000 C.ar    1  LIG1        0.0015
     20 C          -2.1000   -3.4920    0.0000 C.ar    1  LIG1        0.0001
     21 C          -2.9380   -2.9500    0.0000 C.ar    1  LIG1        0.0015
     22 C          -2.8880   -1.9500    0.0000 C.ar    1  LIG1        0.0176
     23 C          -3.6330   -0.1500    0.0000 C.3     1  LIG1        0.1756
     24 N          -4.3830    0.5170    0.0000 N.ar    1  LIG1       -0.2823
     25 C          -5.3670    0.3000    0.0000 C.ar    1  LIG1        0.2926
     26 S          -5.8670    1.1670    0.0000 S.2     1  LIG1       -0.0260
     27 C          -5.1830    1.9170    0.0000 C.ar    1  LIG1        0.0497
     28 C          -4.2710    1.5040    0.0000 C.ar    1  LIG1        0.0695
     29 C          -3.4540    2.1000    0.0000 C.ar    1  LIG1        0.0178
     30 C          -3.5540    3.0960    0.0000 C.ar    1  LIG1        0.0015
     31 C          -4.4830    3.4960    0.0000 C.ar    1  LIG1        0.0006
     32 C          -5.2880    2.9130    0.0000 C.ar    1  LIG1        0.0081
     33 O          -5.7670   -0.6170    0.0000 O.2     1  LIG1       -0.2594
@<TRIPOS>BOND
     1     1     2   ar
     2     1     5   ar
     3     1    23    1
     4     2     3   ar
     5     2    17    1
     6     3     4   ar
     7     3     6    1
     8     4     5   ar
     9     6     7    1
    10     7     8    1
    11     8     9   am
    12     8    16    2
    13     9    10    1
    14    10    11   ar
    15    10    14   ar
    16    11    12   ar
    17    12    13   ar
    18    12    15    1
    19    13    14   ar
    20    17    18   ar
    21    17    22   ar
    22    18    19   ar
    23    19    20   ar
    24    20    21   ar
    25    21    22   ar
    26    23    24    1
    27    24    25   ar
    28    24    28   ar
    29    25    26   ar
    30    25    33    2
    31    26    27   ar
    32    27    28   ar
    33    27    32   ar
    34    28    29   ar
    35    29    30   ar
    36    30    31   ar
    37    31    32   ar
