@<TRIPOS>MOLECULE
37636_ChemDiv_E165-0997
 26 29 0 0 0
SMALL
GASTEIGER
Energy = 0

@<TRIPOS>ATOM
      1 N          -0.2540   -0.4330    0.0000 N.ar    1  LIG1       -0.2124
      2 N           0.2500    0.4330    0.0000 N.ar    1  LIG1       -0.1706
      3 C           1.2500    0.4330    0.0000 C.ar    1  LIG1        0.0832
      4 C           1.7500   -0.4330    0.0000 C.ar    1  LIG1        0.0202
      5 C           1.2500   -1.3000    0.0000 C.ar    1  LIG1        0.0588
      6 C           0.2500   -1.3000    0.0000 C.ar    1  LIG1        0.2766
      7 O          -0.2540   -2.1630    0.0000 O.2     1  LIG1       -0.2655
      8 C           1.7500   -2.1630    0.0000 C.ar    1  LIG1        0.0048
      9 C           2.7500   -2.1630    0.0000 C.ar    1  LIG1        0.0002
     10 C           3.2500   -1.3000    0.0000 C.ar    1  LIG1        0.0000
     11 C           2.7500   -0.4330    0.0000 C.ar    1  LIG1        0.0014
     12 C           1.7500    1.3040    0.0000 C.3     1  LIG1        0.0754
     13 C           1.2500    2.1670    0.0000 C.ar    1  LIG1        0.0030
     14 C           0.2500    2.1670    0.0000 C.ar    1  LIG1        0.0950
     15 N          -0.2540    3.0330    0.0000 N.ar    1  LIG1       -0.2426
     16 C           0.2500    3.9000    0.0000 C.ar    1  LIG1        0.0989
     17 C           1.2500    3.9000    0.0000 C.ar    1  LIG1        0.0204
     18 C           1.7500    3.0330    0.0000 C.ar    1  LIG1       -0.0008
     19 C          -1.2540   -0.4330    0.0000 C.3     1  LIG1        0.1571
     20 C          -1.7540   -1.3000    0.0000 C.ar    1  LIG1        0.0024
     21 C          -2.7540   -1.3000    0.0000 C.ar    1  LIG1       -0.0000
     22 C          -3.2540   -2.1630    0.0000 C.ar    1  LIG1        0.0294
     23 C          -2.7540   -3.0290    0.0000 C.ar    1  LIG1        0.1401
     24 F          -3.2540   -3.8960    0.0000 F       1  LIG1       -0.2042
     25 C          -1.7540   -3.0290    0.0000 C.ar    1  LIG1        0.0294
     26 C          -1.2540   -2.1630    0.0000 C.ar    1  LIG1       -0.0000
@<TRIPOS>BOND
     1     1     2   ar
     2     1     6   ar
     3     1    19    1
     4     2     3   ar
     5     3     4   ar
     6     3    12    1
     7     4     5   ar
     8     4    11   ar
     9     5     6   ar
    10     5     8   ar
    11     6     7    2
    12     8     9   ar
    13     9    10   ar
    14    10    11   ar
    15    12    13    1
    16    13    14   ar
    17    13    18   ar
    18    14    15   ar
    19    15    16   ar
    20    16    17   ar
    21    17    18   ar
    22    19    20    1
    23    20    21   ar
    24    20    26   ar
    25    21    22   ar
    26    22    23   ar
    27    23    24    1
    28    23    25   ar
    29    25    26   ar
