@<TRIPOS>MOLECULE
37635_ChemDiv_C614-0578
 30 33 0 0 0
SMALL
GASTEIGER
Energy = 0

@<TRIPOS>ATOM
      1 N          -2.1330    1.0630    0.0000 N.ar    1  LIG1       -0.2961
      2 C          -1.5420    1.8630    0.0000 C.ar    1  LIG1        0.1222
      3 N          -2.1330    2.6830    0.0000 N.ar    1  LIG1       -0.2293
      4 C          -3.0750    2.3630    0.0000 C.ar    1  LIG1        0.1167
      5 C          -3.0750    1.3670    0.0000 C.ar    1  LIG1        0.1627
      6 N          -3.9500    0.8670    0.0000 N.ar    1  LIG1       -0.2252
      7 C          -4.8130    1.3670    0.0000 C.ar    1  LIG1        0.1006
      8 C          -4.8130    2.3630    0.0000 C.ar    1  LIG1        0.0223
      9 C          -3.9500    2.8630    0.0000 C.ar    1  LIG1        0.0238
     10 C          -0.5420    1.8630    0.0000 C.3     1  LIG1        0.0736
     11 C          -0.0420    1.0000    0.0000 C.3     1  LIG1        0.0951
     12 C           0.9580    1.0000    0.0000 C.2     1  LIG1        0.2460
     13 N           1.4670    0.1380    0.0000 N.am    1  LIG1       -0.1792
     14 C           2.4670    0.1420    0.0000 C.ar    1  LIG1        0.0735
     15 C           2.9500    1.0170    0.0000 C.ar    1  LIG1        0.0189
     16 C           3.9500    1.0330    0.0000 C.ar    1  LIG1        0.0310
     17 C           4.4630    0.1710    0.0000 C.ar    1  LIG1        0.1402
     18 F           5.4630    0.1750    0.0000 F       1  LIG1       -0.2042
     19 C           3.9710   -0.7080    0.0000 C.ar    1  LIG1        0.0310
     20 C           2.9710   -0.7210    0.0000 C.ar    1  LIG1        0.0189
     21 O           1.4580    1.8710    0.0000 O.2     1  LIG1       -0.2730
     22 C          -1.8130    0.1080    0.0000 C.3     1  LIG1        0.1353
     23 C          -2.4830   -0.6330    0.0000 C.ar    1  LIG1        0.0007
     24 C          -2.1750   -1.5830    0.0000 C.ar    1  LIG1        0.0007
     25 C          -2.8420   -2.3250    0.0000 C.ar    1  LIG1        0.0366
     26 C          -3.8290   -2.1170    0.0000 C.ar    1  LIG1        0.1387
     27 C          -4.1290   -1.1630    0.0000 C.ar    1  LIG1        0.0366
     28 C          -3.4630   -0.4210    0.0000 C.ar    1  LIG1        0.0007
     29 O          -4.4920   -2.8580    0.0000 O.3     1  LIG1       -0.4714
     30 C          -5.4670   -2.6580    0.0000 C.3     1  LIG1        0.2525
@<TRIPOS>BOND
     1     1     2   ar
     2     1     5   ar
     3     1    22    1
     4     2     3   ar
     5     2    10    1
     6     3     4   ar
     7     4     5   ar
     8     4     9   ar
     9     5     6   ar
    10     6     7   ar
    11     7     8   ar
    12     8     9   ar
    13    10    11    1
    14    11    12    1
    15    12    13   am
    16    12    21    2
    17    13    14    1
    18    14    15   ar
    19    14    20   ar
    20    15    16   ar
    21    16    17   ar
    22    17    18    1
    23    17    19   ar
    24    19    20   ar
    25    22    23    1
    26    23    24   ar
    27    23    28   ar
    28    24    25   ar
    29    25    26   ar
    30    26    27   ar
    31    26    29    1
    32    27    28   ar
    33    29    30    1
