@<TRIPOS>MOLECULE
37640_ChemDiv_C665-0078
 27 30 0 0 0
SMALL
GASTEIGER
Energy = 0

@<TRIPOS>ATOM
      1 N          -1.7920   -0.9960    0.0000 N.ar    1  LIG1       -0.1103
      2 S          -2.6670   -0.4790    0.0000 S.O2    1  LIG1        0.1033
      3 C          -3.5330    0.0330    0.0000 C.ar    1  LIG1        0.1489
      4 C          -3.5330    1.0290    0.0000 C.ar    1  LIG1        0.1279
      5 N          -2.7880    1.7080    0.0000 N.ar    1  LIG1       -0.1887
      6 S          -3.1960    2.6000    0.0000 S.2     1  LIG1        0.1165
      7 N          -4.1830    2.5080    0.0000 N.ar    1  LIG1       -0.1901
      8 C          -4.3920    1.5290    0.0000 C.ar    1  LIG1        0.1102
      9 C          -5.2670    1.0290    0.0000 C.ar    1  LIG1        0.0214
     10 C          -5.2670    0.0330    0.0000 C.ar    1  LIG1        0.0031
     11 C          -4.3920   -0.4670    0.0000 C.ar    1  LIG1        0.0221
     12 O          -3.1790   -1.3580    0.0000 O.2     1  LIG1       -0.1462
     13 O          -2.1540    0.3830    0.0000 O.2     1  LIG1       -0.1462
     14 N          -0.8420   -0.6920    0.0000 N.ar    1  LIG1       -0.1471
     15 C          -0.2630   -1.5040    0.0000 C.ar    1  LIG1        0.1056
     16 C          -0.8540   -2.3080    0.0000 C.ar    1  LIG1        0.0601
     17 C          -1.8040   -2.0080    0.0000 C.ar    1  LIG1        0.1922
     18 N          -2.6040   -2.5960    0.0000 N.pl3   1  LIG1       -0.1055
     19 C           0.7330   -1.4630    0.0000 C.ar    1  LIG1        0.0197
     20 C           1.2710   -2.3080    0.0000 C.ar    1  LIG1        0.0047
     21 C           2.2750   -2.2630    0.0000 C.ar    1  LIG1        0.0369
     22 C           2.7290   -1.3830    0.0000 C.ar    1  LIG1        0.1386
     23 C           2.2000   -0.5420    0.0000 C.ar    1  LIG1        0.0369
     24 C           1.2000   -0.5830    0.0000 C.ar    1  LIG1        0.0047
     25 O           3.7250   -1.3420    0.0000 O.3     1  LIG1       -0.4755
     26 C           4.2540   -2.1830    0.0000 C.3     1  LIG1        0.2055
     27 C           5.2630   -2.1420    0.0000 C.3     1  LIG1        0.0512
@<TRIPOS>BOND
     1     1     2    1
     2     1    14   ar
     3     1    17   ar
     4     2     3    1
     5     2    12    2
     6     2    13    2
     7     3     4   ar
     8     3    11   ar
     9     4     5   ar
    10     4     8   ar
    11     5     6   ar
    12     6     7   ar
    13     7     8   ar
    14     8     9   ar
    15     9    10   ar
    16    10    11   ar
    17    14    15   ar
    18    15    16   ar
    19    15    19    1
    20    16    17   ar
    21    17    18    1
    22    19    20   ar
    23    19    24   ar
    24    20    21   ar
    25    21    22   ar
    26    22    23   ar
    27    22    25    1
    28    23    24   ar
    29    25    26    1
    30    26    27    1
