@<TRIPOS>MOLECULE
37647_ChemDiv_C614-0900
 31 34 0 0 0
SMALL
GASTEIGER
Energy = 0

@<TRIPOS>ATOM
      1 N          -1.6290    1.0580    0.0000 N.ar    1  LIG1       -0.2961
      2 C          -1.0380    1.8670    0.0000 C.ar    1  LIG1        0.1222
      3 N          -1.6290    2.6790    0.0000 N.ar    1  LIG1       -0.2293
      4 C          -2.5750    2.3670    0.0000 C.ar    1  LIG1        0.1167
      5 C          -2.5750    1.3670    0.0000 C.ar    1  LIG1        0.1627
      6 N          -3.4460    0.8630    0.0000 N.ar    1  LIG1       -0.2252
      7 C          -4.3080    1.3630    0.0000 C.ar    1  LIG1        0.1006
      8 C          -4.3080    2.3670    0.0000 C.ar    1  LIG1        0.0223
      9 C          -3.4460    2.8670    0.0000 C.ar    1  LIG1        0.0238
     10 C          -0.0380    1.8670    0.0000 C.3     1  LIG1        0.0736
     11 C           0.4630    1.0040    0.0000 C.3     1  LIG1        0.0951
     12 C           1.4630    1.0040    0.0000 C.2     1  LIG1        0.2461
     13 N           1.9670    0.1420    0.0000 N.am    1  LIG1       -0.1761
     14 C           2.9670    0.1500    0.0000 C.ar    1  LIG1        0.1072
     15 C           3.4670   -0.7130    0.0000 C.ar    1  LIG1        0.1539
     16 O           2.9750   -1.5830    0.0000 O.3     1  LIG1       -0.4701
     17 C           3.4790   -2.4500    0.0000 C.3     1  LIG1        0.2525
     18 C           4.4670   -0.7080    0.0000 C.ar    1  LIG1        0.0383
     19 C           4.9670    0.1670    0.0000 C.ar    1  LIG1        0.0032
     20 C           4.4500    1.0290    0.0000 C.ar    1  LIG1        0.0015
     21 C           3.4500    1.0130    0.0000 C.ar    1  LIG1        0.0197
     22 O           1.9630    1.8790    0.0000 O.2     1  LIG1       -0.2730
     23 C          -1.3210    0.1040    0.0000 C.3     1  LIG1        0.1353
     24 C          -1.9880   -0.6380    0.0000 C.ar    1  LIG1        0.0007
     25 C          -2.9580   -0.4250    0.0000 C.ar    1  LIG1        0.0007
     26 C          -3.6380   -1.1670    0.0000 C.ar    1  LIG1        0.0366
     27 C          -3.3250   -2.1210    0.0000 C.ar    1  LIG1        0.1387
     28 C          -2.3380   -2.3170    0.0000 C.ar    1  LIG1        0.0366
     29 C          -1.6710   -1.5750    0.0000 C.ar    1  LIG1        0.0007
     30 O          -4.0000   -2.8630    0.0000 O.3     1  LIG1       -0.4714
     31 C          -4.9710   -2.6500    0.0000 C.3     1  LIG1        0.2525
@<TRIPOS>BOND
     1     1     2   ar
     2     1     5   ar
     3     1    23    1
     4     2     3   ar
     5     2    10    1
     6     3     4   ar
     7     4     5   ar
     8     4     9   ar
     9     5     6   ar
    10     6     7   ar
    11     7     8   ar
    12     8     9   ar
    13    10    11    1
    14    11    12    1
    15    12    13   am
    16    12    22    2
    17    13    14    1
    18    14    15   ar
    19    14    21   ar
    20    15    16    1
    21    15    18   ar
    22    16    17    1
    23    18    19   ar
    24    19    20   ar
    25    20    21   ar
    26    23    24    1
    27    24    25   ar
    28    24    29   ar
    29    25    26   ar
    30    26    27   ar
    31    27    28   ar
    32    27    30    1
    33    28    29   ar
    34    30    31    1
