@<TRIPOS>MOLECULE
37644_ChemDiv_C665-0322
 25 28 0 0 0
SMALL
GASTEIGER
Energy = 0

@<TRIPOS>ATOM
      1 N           0.7210   -0.2420    0.0000 N.ar    1  LIG1       -0.1103
      2 S           0.8880   -1.2250    0.0000 S.O2    1  LIG1        0.1033
      3 C           1.0670   -2.2130    0.0000 C.ar    1  LIG1        0.1489
      4 C           0.2960   -2.8500    0.0000 C.ar    1  LIG1        0.1279
      5 N          -0.6920   -2.7130    0.0000 N.ar    1  LIG1       -0.1887
      6 S          -1.1290   -3.6080    0.0000 S.2     1  LIG1        0.1165
      7 N          -0.4170   -4.3080    0.0000 N.ar    1  LIG1       -0.1901
      8 C           0.4750   -3.8380    0.0000 C.ar    1  LIG1        0.1102
      9 C           1.4040   -4.1830    0.0000 C.ar    1  LIG1        0.0214
     10 C           2.1790   -3.5420    0.0000 C.ar    1  LIG1        0.0031
     11 C           1.9960   -2.5630    0.0000 C.ar    1  LIG1        0.0221
     12 O          -0.1000   -1.3920    0.0000 O.2     1  LIG1       -0.1462
     13 O           1.8750   -1.0580    0.0000 O.2     1  LIG1       -0.1462
     14 N          -0.1170    0.2920    0.0000 N.ar    1  LIG1       -0.1471
     15 C           0.0670    1.2290    0.0000 C.ar    1  LIG1        0.1056
     16 C           1.1080    1.3210    0.0000 C.ar    1  LIG1        0.0601
     17 C           1.4790    0.3960    0.0000 C.ar    1  LIG1        0.1922
     18 N           2.4670    0.1540    0.0000 N.pl3   1  LIG1       -0.1055
     19 C          -0.5670    1.9750    0.0000 C.ar    1  LIG1        0.0195
     20 C          -0.2080    2.9040    0.0000 C.ar    1  LIG1        0.0021
     21 C          -0.8460    3.6880    0.0000 C.ar    1  LIG1        0.0067
     22 C          -1.8290    3.5210    0.0000 C.ar    1  LIG1        0.0346
     23 C          -2.1920    2.5880    0.0000 C.ar    1  LIG1        0.0067
     24 C          -1.5540    1.8080    0.0000 C.ar    1  LIG1        0.0021
     25 BR         -2.4710    4.3080    0.0000 Br      1  LIG1       -0.0490
@<TRIPOS>BOND
     1     1     2    1
     2     1    14   ar
     3     1    17   ar
     4     2     3    1
     5     2    12    2
     6     2    13    2
     7     3     4   ar
     8     3    11   ar
     9     4     5   ar
    10     4     8   ar
    11     5     6   ar
    12     6     7   ar
    13     7     8   ar
    14     8     9   ar
    15     9    10   ar
    16    10    11   ar
    17    14    15   ar
    18    15    16   ar
    19    15    19    1
    20    16    17   ar
    21    17    18    1
    22    19    20   ar
    23    19    24   ar
    24    20    21   ar
    25    21    22   ar
    26    22    23   ar
    27    22    25    1
    28    23    24   ar
