@<TRIPOS>MOLECULE
37646_ChemDiv_C665-0336
 31 33 0 0 0
SMALL
GASTEIGER
Energy = 0

@<TRIPOS>ATOM
      1 N          -0.9250   -1.5750    0.0000 N.ar    1  LIG1       -0.1103
      2 S          -1.9210   -1.5880    0.0000 S.O2    1  LIG1        0.1018
      3 C          -2.9170   -1.6080    0.0000 C.ar    1  LIG1        0.1292
      4 C          -3.4080   -2.4790    0.0000 C.ar    1  LIG1        0.0201
      5 C          -4.4040   -2.4960    0.0000 C.ar    1  LIG1       -0.0029
      6 C          -4.9210   -1.6250    0.0000 C.ar    1  LIG1       -0.0218
      7 C          -4.4330   -0.7670    0.0000 C.ar    1  LIG1       -0.0029
      8 C          -3.4250   -0.7500    0.0000 C.ar    1  LIG1        0.0201
      9 C          -5.9170   -1.6210    0.0000 C.3     1  LIG1        0.0310
     10 O          -1.9330   -0.5920    0.0000 O.2     1  LIG1       -0.1462
     11 O          -1.9000   -2.5830    0.0000 O.2     1  LIG1       -0.1462
     12 N          -0.3460   -0.7580    0.0000 N.ar    1  LIG1       -0.1471
     13 C           0.6040   -1.0210    0.0000 C.ar    1  LIG1        0.1058
     14 C           0.6040   -2.0630    0.0000 C.ar    1  LIG1        0.0601
     15 C          -0.3460   -2.3630    0.0000 C.ar    1  LIG1        0.1922
     16 N          -0.6630   -3.3250    0.0000 N.pl3   1  LIG1       -0.1055
     17 C           1.6000   -0.6540    0.0000 C.ar    1  LIG1        0.0257
     18 C           2.4540   -1.1500    0.0000 C.ar    1  LIG1        0.0418
     19 C           3.3210   -0.6540    0.0000 C.ar    1  LIG1        0.1753
     20 C           3.3210    0.3420    0.0000 C.ar    1  LIG1        0.2059
     21 C           2.4540    0.8380    0.0000 C.ar    1  LIG1        0.1753
     22 C           1.6000    0.3420    0.0000 C.ar    1  LIG1        0.0418
     23 O           2.4540    1.8330    0.0000 O.3     1  LIG1       -0.4723
     24 C           1.6000    2.3330    0.0000 C.3     1  LIG1        0.2057
     25 C           1.6000    3.3290    0.0000 C.3     1  LIG1        0.0512
     26 O           4.1880    0.8500    0.0000 O.3     1  LIG1       -0.4695
     27 C           5.0500    0.3500    0.0000 C.3     1  LIG1        0.2058
     28 C           5.9130    0.8500    0.0000 C.3     1  LIG1        0.0512
     29 O           4.1880   -1.1580    0.0000 O.3     1  LIG1       -0.4723
     30 C           5.0500   -0.6580    0.0000 C.3     1  LIG1        0.2057
     31 C           5.9130   -1.1580    0.0000 C.3     1  LIG1        0.0512
@<TRIPOS>BOND
     1     1     2    1
     2     1    12   ar
     3     1    15   ar
     4     2     3    1
     5     2    10    2
     6     2    11    2
     7     3     4   ar
     8     3     8   ar
     9     4     5   ar
    10     5     6   ar
    11     6     7   ar
    12     6     9    1
    13     7     8   ar
    14    12    13   ar
    15    13    14   ar
    16    13    17    1
    17    14    15   ar
    18    15    16    1
    19    17    18   ar
    20    17    22   ar
    21    18    19   ar
    22    19    20   ar
    23    19    29    1
    24    20    21   ar
    25    20    26    1
    26    21    22   ar
    27    21    23    1
    28    23    24    1
    29    24    25    1
    30    26    27    1
    31    27    28    1
    32    29    30    1
    33    30    31    1
