@<TRIPOS>MOLECULE
37656_ChemDiv_C647-0065
 35 40 0 0 0
SMALL
GASTEIGER
Energy = 0

@<TRIPOS>ATOM
      1 C           0.4580    2.2420    0.0000 C.ar    1  LIG1        0.0950
      2 C          -0.4080    2.7460    0.0000 C.ar    1  LIG1        0.2016
      3 C          -1.2790    2.2420    0.0000 C.ar    1  LIG1        0.0581
      4 C          -1.2830    1.2330    0.0000 C.ar    1  LIG1        0.0666
      5 N          -0.4170    0.7460    0.0000 N.ar    1  LIG1       -0.3174
      6 C           0.4580    1.2330    0.0000 C.ar    1  LIG1        0.0827
      7 C          -0.4210   -0.2580    0.0000 C.3     1  LIG1        0.1939
      8 C           0.4380   -0.7580    0.0000 C.2     1  LIG1        0.2686
      9 N           0.4380   -1.7460    0.0000 N.am    1  LIG1       -0.1775
     10 C           1.3000   -2.2540    0.0000 C.ar    1  LIG1        0.0767
     11 C           2.1580   -1.7460    0.0000 C.ar    1  LIG1        0.0568
     12 C           3.0210   -2.2420    0.0000 C.ar    1  LIG1        0.1777
     13 C           3.0080   -3.2380    0.0000 C.ar    1  LIG1        0.1765
     14 O           3.9710   -3.5580    0.0000 O.3     1  LIG1       -0.4346
     15 C           4.5670   -2.7500    0.0000 C.3     1  LIG1        0.4294
     16 O           3.9750   -1.9380    0.0000 O.3     1  LIG1       -0.4346
     17 C           2.1580   -3.7460    0.0000 C.ar    1  LIG1        0.0415
     18 C           1.3000   -3.2500    0.0000 C.ar    1  LIG1        0.0199
     19 O           1.3000   -0.2580    0.0000 O.2     1  LIG1       -0.2709
     20 C          -2.1460    0.7460    0.0000 C.ar    1  LIG1        0.0575
     21 C          -3.0040    1.2330    0.0000 C.ar    1  LIG1        0.1779
     22 C          -3.0040    2.2580    0.0000 C.ar    1  LIG1        0.1766
     23 C          -2.1460    2.7420    0.0000 C.ar    1  LIG1        0.0448
     24 O          -3.9710    2.5630    0.0000 O.3     1  LIG1       -0.4346
     25 C          -4.5710    1.7420    0.0000 C.3     1  LIG1        0.4294
     26 O          -3.9710    0.9290    0.0000 O.3     1  LIG1       -0.4346
     27 O          -0.4080    3.7500    0.0000 O.2     1  LIG1       -0.2864
     28 C           1.3290    2.7290    0.0000 C.2     1  LIG1        0.2001
     29 O           1.3290    3.7380    0.0000 O.2     1  LIG1       -0.2864
     30 C           2.1920    2.2330    0.0000 C.ar    1  LIG1        0.0391
     31 C           3.0420    2.7290    0.0000 C.ar    1  LIG1        0.0032
     32 C           3.9000    2.2330    0.0000 C.ar    1  LIG1        0.0001
     33 C           3.9000    1.2330    0.0000 C.ar    1  LIG1        0.0000
     34 C           3.0330    0.7460    0.0000 C.ar    1  LIG1        0.0001
     35 C           2.1750    1.2330    0.0000 C.ar    1  LIG1        0.0032
@<TRIPOS>BOND
     1     1     2   ar
     2     1     6   ar
     3     1    28    1
     4     2     3   ar
     5     2    27    2
     6     3     4   ar
     7     3    23   ar
     8     4     5   ar
     9     4    20   ar
    10     5     6   ar
    11     5     7    1
    12     7     8    1
    13     8     9   am
    14     8    19    2
    15     9    10    1
    16    10    11   ar
    17    10    18   ar
    18    11    12   ar
    19    12    13   ar
    20    12    16    1
    21    13    14    1
    22    13    17   ar
    23    14    15    1
    24    15    16    1
    25    17    18   ar
    26    20    21   ar
    27    21    22   ar
    28    21    26    1
    29    22    23   ar
    30    22    24    1
    31    24    25    1
    32    25    26    1
    33    28    29    2
    34    28    30    1
    35    30    31   ar
    36    30    35   ar
    37    31    32   ar
    38    32    33   ar
    39    33    34   ar
    40    34    35   ar
