@<TRIPOS>MOLECULE
37653_ChemDiv_C614-1042
 37 41 0 0 0
SMALL
GASTEIGER
Energy = 0

@<TRIPOS>ATOM
      1 N          -0.2000   -2.9790    0.0000 N.ar    1  LIG1       -0.3228
      2 C           0.3580   -2.1420    0.0000 C.ar    1  LIG1        0.0339
      3 C          -0.2000   -1.2920    0.0000 C.ar    1  LIG1       -0.0093
      4 C          -1.1040   -1.6170    0.0000 C.ar    1  LIG1        0.0129
      5 C          -1.1040   -2.6630    0.0000 C.ar    1  LIG1        0.0597
      6 C          -1.9380   -3.1710    0.0000 C.ar    1  LIG1        0.0172
      7 C          -2.7630   -2.6630    0.0000 C.ar    1  LIG1        0.0015
      8 C          -2.7630   -1.6250    0.0000 C.ar    1  LIG1        0.0001
      9 C          -1.9380   -1.0880    0.0000 C.ar    1  LIG1        0.0012
     10 C           0.1380   -0.3250    0.0000 C.3     1  LIG1        0.0264
     11 C           1.0750   -0.1460    0.0000 C.3     1  LIG1        0.0236
     12 C           1.4080    0.8130    0.0000 C.3     1  LIG1        0.0961
     13 N           0.8040    1.6420    0.0000 N.3     1  LIG1       -0.1555
     14 S           1.1380    2.6250    0.0000 S.O2    1  LIG1        0.0634
     15 C           1.4710    3.6080    0.0000 C.ar    1  LIG1        0.1254
     16 C           0.8500    4.3960    0.0000 C.ar    1  LIG1        0.0599
     17 C           1.1750    5.3920    0.0000 C.ar    1  LIG1        0.1737
     18 C           2.1380    5.5750    0.0000 C.ar    1  LIG1        0.1725
     19 C           2.7580    4.7710    0.0000 C.ar    1  LIG1        0.0414
     20 C           2.4250    3.7920    0.0000 C.ar    1  LIG1        0.0232
     21 O           2.4960    6.4960    0.0000 O.3     1  LIG1       -0.4684
     22 C           1.8630    7.2750    0.0000 C.3     1  LIG1        0.2526
     23 O           0.5170    6.1500    0.0000 O.3     1  LIG1       -0.4683
     24 C          -0.4580    5.9500    0.0000 C.3     1  LIG1        0.2526
     25 O           0.2290    2.9790    0.0000 O.2     1  LIG1       -0.1528
     26 O           2.0460    2.2500    0.0000 O.2     1  LIG1       -0.1528
     27 C          -0.1380    1.4580    0.0000 C.3     1  LIG1        0.0961
     28 C          -0.4710    0.4750    0.0000 C.3     1  LIG1        0.0236
     29 C           1.3290   -2.1420    0.0000 C.3     1  LIG1        0.0497
     30 C           0.1000   -3.9460    0.0000 C.3     1  LIG1        0.1916
     31 C          -0.5580   -4.7170    0.0000 C.2     1  LIG1        0.2487
     32 N          -0.2420   -5.6580    0.0000 N.am    1  LIG1       -0.2780
     33 C          -0.8170   -6.4710    0.0000 C.3     1  LIG1        0.0935
     34 C          -0.2170   -7.2750    0.0000 C.3     1  LIG1        0.0233
     35 C           0.7290   -6.9540    0.0000 C.3     1  LIG1        0.0233
     36 C           0.7210   -5.9580    0.0000 C.3     1  LIG1        0.0935
     37 O          -1.5040   -4.5040    0.0000 O.2     1  LIG1       -0.2728
@<TRIPOS>BOND
     1     1     2   ar
     2     1     5   ar
     3     1    30    1
     4     2     3   ar
     5     2    29    1
     6     3     4   ar
     7     3    10    1
     8     4     5   ar
     9     4     9   ar
    10     5     6   ar
    11     6     7   ar
    12     7     8   ar
    13     8     9   ar
    14    10    11    1
    15    10    28    1
    16    11    12    1
    17    12    13    1
    18    13    14    1
    19    13    27    1
    20    14    15    1
    21    14    25    2
    22    14    26    2
    23    15    16   ar
    24    15    20   ar
    25    16    17   ar
    26    17    18   ar
    27    17    23    1
    28    18    19   ar
    29    18    21    1
    30    19    20   ar
    31    21    22    1
    32    23    24    1
    33    27    28    1
    34    30    31    1
    35    31    32   am
    36    31    37    2
    37    32    33    1
    38    32    36    1
    39    33    34    1
    40    34    35    1
    41    35    36    1
