@<TRIPOS>MOLECULE
37659_ChemDiv_C614-1045
 36 41 0 0 0
SMALL
GASTEIGER
Energy = 0

@<TRIPOS>ATOM
      1 S           1.1290    3.2420    0.0000 S.O2    1  LIG1        0.0648
      2 C           1.4630    4.2170    0.0000 C.ar    1  LIG1        0.1419
      3 C           0.8460    5.0040    0.0000 C.ar    1  LIG1        0.1273
      4 N          -0.1960    5.0130    0.0000 N.ar    1  LIG1       -0.1888
      5 S          -0.5130    6.0080    0.0000 S.2     1  LIG1        0.1165
      6 N           0.3330    6.6130    0.0000 N.ar    1  LIG1       -0.1901
      7 C           1.1750    5.9960    0.0000 C.ar    1  LIG1        0.1102
      8 C           2.1250    6.1750    0.0000 C.ar    1  LIG1        0.0214
      9 C           2.7420    5.3750    0.0000 C.ar    1  LIG1        0.0030
     10 C           2.4130    4.3960    0.0000 C.ar    1  LIG1        0.0216
     11 N           0.8000    2.2580    0.0000 N.3     1  LIG1       -0.1555
     12 C          -0.1330    2.0790    0.0000 C.3     1  LIG1        0.0961
     13 C          -0.4670    1.1000    0.0000 C.3     1  LIG1        0.0236
     14 C           0.1380    0.3040    0.0000 C.3     1  LIG1        0.0264
     15 C          -0.2000   -0.6580    0.0000 C.ar    1  LIG1       -0.0093
     16 C           0.3580   -1.5040    0.0000 C.ar    1  LIG1        0.0339
     17 N          -0.2000   -2.3380    0.0000 N.ar    1  LIG1       -0.3228
     18 C          -1.1000   -2.0210    0.0000 C.ar    1  LIG1        0.0597
     19 C          -1.1000   -0.9790    0.0000 C.ar    1  LIG1        0.0129
     20 C          -1.9290   -0.4540    0.0000 C.ar    1  LIG1        0.0012
     21 C          -2.7460   -0.9920    0.0000 C.ar    1  LIG1        0.0001
     22 C          -2.7460   -2.0210    0.0000 C.ar    1  LIG1        0.0015
     23 C          -1.9290   -2.5290    0.0000 C.ar    1  LIG1        0.0172
     24 C           0.1000   -3.3000    0.0000 C.3     1  LIG1        0.1916
     25 C          -0.5580   -4.0670    0.0000 C.2     1  LIG1        0.2487
     26 N          -0.2420   -5.0040    0.0000 N.am    1  LIG1       -0.2780
     27 C           0.7170   -5.3000    0.0000 C.3     1  LIG1        0.0935
     28 C           0.7250   -6.2960    0.0000 C.3     1  LIG1        0.0233
     29 C          -0.2170   -6.6130    0.0000 C.3     1  LIG1        0.0233
     30 C          -0.8130   -5.8130    0.0000 C.3     1  LIG1        0.0935
     31 O          -1.4960   -3.8540    0.0000 O.2     1  LIG1       -0.2728
     32 C           1.3210   -1.5040    0.0000 C.3     1  LIG1        0.0497
     33 C           1.0710    0.4830    0.0000 C.3     1  LIG1        0.0236
     34 C           1.4000    1.4380    0.0000 C.3     1  LIG1        0.0961
     35 O           2.0330    2.8670    0.0000 O.2     1  LIG1       -0.1527
     36 O           0.2250    3.5920    0.0000 O.2     1  LIG1       -0.1527
@<TRIPOS>BOND
     1     1     2    1
     2     1    11    1
     3     1    35    2
     4     1    36    2
     5     2     3   ar
     6     2    10   ar
     7     3     4   ar
     8     3     7   ar
     9     4     5   ar
    10     5     6   ar
    11     6     7   ar
    12     7     8   ar
    13     8     9   ar
    14     9    10   ar
    15    11    12    1
    16    11    34    1
    17    12    13    1
    18    13    14    1
    19    14    15    1
    20    14    33    1
    21    15    16   ar
    22    15    19   ar
    23    16    17   ar
    24    16    32    1
    25    17    18   ar
    26    17    24    1
    27    18    19   ar
    28    18    23   ar
    29    19    20   ar
    30    20    21   ar
    31    21    22   ar
    32    22    23   ar
    33    24    25    1
    34    25    26   am
    35    25    31    2
    36    26    27    1
    37    26    30    1
    38    27    28    1
    39    28    29    1
    40    29    30    1
    41    33    34    1
