@<TRIPOS>MOLECULE
37665_ChemDiv_C614-0901
 32 35 0 0 0
SMALL
GASTEIGER
Energy = 0

@<TRIPOS>ATOM
      1 N          -1.6290    1.2880    0.0000 N.ar    1  LIG1       -0.2961
      2 C          -1.0380    2.0960    0.0000 C.ar    1  LIG1        0.1222
      3 N          -1.6290    2.9080    0.0000 N.ar    1  LIG1       -0.2293
      4 C          -2.5750    2.5960    0.0000 C.ar    1  LIG1        0.1167
      5 C          -2.5750    1.5960    0.0000 C.ar    1  LIG1        0.1627
      6 N          -3.4460    1.0920    0.0000 N.ar    1  LIG1       -0.2252
      7 C          -4.3080    1.5920    0.0000 C.ar    1  LIG1        0.1006
      8 C          -4.3080    2.5960    0.0000 C.ar    1  LIG1        0.0223
      9 C          -3.4460    3.0920    0.0000 C.ar    1  LIG1        0.0238
     10 C          -0.0380    2.0960    0.0000 C.3     1  LIG1        0.0736
     11 C           0.4630    1.2290    0.0000 C.3     1  LIG1        0.0951
     12 C           1.4630    1.2290    0.0000 C.2     1  LIG1        0.2461
     13 N           1.9670    0.3670    0.0000 N.am    1  LIG1       -0.1761
     14 C           2.9670    0.3790    0.0000 C.ar    1  LIG1        0.1072
     15 C           3.4670   -0.4830    0.0000 C.ar    1  LIG1        0.1537
     16 O           2.9750   -1.3580    0.0000 O.3     1  LIG1       -0.4741
     17 C           3.4790   -2.2210    0.0000 C.3     1  LIG1        0.2056
     18 C           2.9790   -3.0880    0.0000 C.3     1  LIG1        0.0512
     19 C           4.4670   -0.4790    0.0000 C.ar    1  LIG1        0.0382
     20 C           4.9670    0.3920    0.0000 C.ar    1  LIG1        0.0032
     21 C           4.4500    1.2580    0.0000 C.ar    1  LIG1        0.0015
     22 C           3.4500    1.2420    0.0000 C.ar    1  LIG1        0.0197
     23 O           1.9630    2.1040    0.0000 O.2     1  LIG1       -0.2730
     24 C          -1.3210    0.3330    0.0000 C.3     1  LIG1        0.1353
     25 C          -1.9880   -0.4080    0.0000 C.ar    1  LIG1        0.0007
     26 C          -2.9580   -0.1960    0.0000 C.ar    1  LIG1        0.0007
     27 C          -3.6380   -0.9380    0.0000 C.ar    1  LIG1        0.0366
     28 C          -3.3250   -1.8920    0.0000 C.ar    1  LIG1        0.1387
     29 C          -2.3380   -2.0920    0.0000 C.ar    1  LIG1        0.0366
     30 C          -1.6710   -1.3500    0.0000 C.ar    1  LIG1        0.0007
     31 O          -4.0000   -2.6380    0.0000 O.3     1  LIG1       -0.4714
     32 C          -4.9710   -2.4250    0.0000 C.3     1  LIG1        0.2525
@<TRIPOS>BOND
     1     1     2   ar
     2     1     5   ar
     3     1    24    1
     4     2     3   ar
     5     2    10    1
     6     3     4   ar
     7     4     5   ar
     8     4     9   ar
     9     5     6   ar
    10     6     7   ar
    11     7     8   ar
    12     8     9   ar
    13    10    11    1
    14    11    12    1
    15    12    13   am
    16    12    23    2
    17    13    14    1
    18    14    15   ar
    19    14    22   ar
    20    15    16    1
    21    15    19   ar
    22    16    17    1
    23    17    18    1
    24    19    20   ar
    25    20    21   ar
    26    21    22   ar
    27    24    25    1
    28    25    26   ar
    29    25    30   ar
    30    26    27   ar
    31    27    28   ar
    32    28    29   ar
    33    28    31    1
    34    29    30   ar
    35    31    32    1
