@<TRIPOS>MOLECULE
37666_ChemDiv_C677-0061
 35 39 0 0 0
SMALL
GASTEIGER
Energy = 0

@<TRIPOS>ATOM
      1 N           0.4250   -0.6210    0.0000 N.ar    1  LIG1       -0.2932
      2 C          -0.3750   -0.0170    0.0000 C.ar    1  LIG1        0.1496
      3 N          -0.0460    0.9250    0.0000 N.ar    1  LIG1       -0.1324
      4 N           0.9540    0.9080    0.0000 N.ar    1  LIG1       -0.1224
      5 C           1.2460   -0.0540    0.0000 C.ar    1  LIG1        0.1934
      6 S           2.1880   -0.3790    0.0000 S.3     1  LIG1       -0.0658
      7 C           2.9460    0.2710    0.0000 C.3     1  LIG1        0.1516
      8 C           2.7580    1.2580    0.0000 C.2     1  LIG1        0.2531
      9 N           1.8170    1.5920    0.0000 N.am    1  LIG1       -0.1998
     10 C           1.6380    2.5630    0.0000 C.3     1  LIG1        0.1416
     11 C           0.6880    2.9040    0.0000 C.ar    1  LIG1        0.0027
     12 C           0.5210    3.8880    0.0000 C.ar    1  LIG1        0.0376
     13 C          -0.4330    4.2170    0.0000 C.ar    1  LIG1        0.1762
     14 C          -1.1920    3.5710    0.0000 C.ar    1  LIG1        0.1764
     15 O          -2.0460    4.0790    0.0000 O.3     1  LIG1       -0.4346
     16 C          -1.8170    5.0500    0.0000 C.3     1  LIG1        0.4294
     17 O          -0.8170    5.1330    0.0000 O.3     1  LIG1       -0.4346
     18 C          -1.0000    2.5710    0.0000 C.ar    1  LIG1        0.0399
     19 C          -0.0540    2.2500    0.0000 C.ar    1  LIG1        0.0008
     20 O           3.5210    1.9080    0.0000 O.2     1  LIG1       -0.2724
     21 C          -1.3330   -0.3040    0.0000 C.3     1  LIG1        0.1095
     22 C          -2.0580    0.3790    0.0000 C.ar    1  LIG1        0.0448
     23 N          -3.0460    0.1960    0.0000 N.ar    1  LIG1       -0.3271
     24 C          -3.5250    1.0750    0.0000 C.ar    1  LIG1        0.0757
     25 C          -2.8420    1.8000    0.0000 C.ar    1  LIG1        0.0198
     26 C          -1.9380    1.3790    0.0000 C.ar    1  LIG1        0.0147
     27 C          -3.4670   -0.7080    0.0000 C.3     1  LIG1        0.1302
     28 C           0.4000   -1.6210    0.0000 C.3     1  LIG1        0.1138
     29 C           1.2630   -2.1460    0.0000 C.3     1  LIG1        0.0509
     30 C           1.2420   -3.1500    0.0000 C.ar    1  LIG1       -0.0202
     31 C           2.0960   -3.6500    0.0000 C.ar    1  LIG1       -0.0042
     32 C           2.0960   -4.6500    0.0000 C.ar    1  LIG1       -0.0003
     33 C           1.2170   -5.1330    0.0000 C.ar    1  LIG1       -0.0000
     34 C           0.3540   -4.6210    0.0000 C.ar    1  LIG1       -0.0003
     35 C           0.3710   -3.6210    0.0000 C.ar    1  LIG1       -0.0042
@<TRIPOS>BOND
     1     1     2   ar
     2     1     5   ar
     3     1    28    1
     4     2     3   ar
     5     2    21    1
     6     3     4   ar
     7     4     5   ar
     8     5     6    1
     9     6     7    1
    10     7     8    1
    11     8     9   am
    12     8    20    2
    13     9    10    1
    14    10    11    1
    15    11    12   ar
    16    11    19   ar
    17    12    13   ar
    18    13    14   ar
    19    13    17    1
    20    14    15    1
    21    14    18   ar
    22    15    16    1
    23    16    17    1
    24    18    19   ar
    25    21    22    1
    26    22    23   ar
    27    22    26   ar
    28    23    24   ar
    29    23    27    1
    30    24    25   ar
    31    25    26   ar
    32    28    29    1
    33    29    30    1
    34    30    31   ar
    35    30    35   ar
    36    31    32   ar
    37    32    33   ar
    38    33    34   ar
    39    34    35   ar
