@<TRIPOS>MOLECULE
37661_ChemDiv_C614-1026
 34 38 0 0 0
SMALL
GASTEIGER
Energy = 0

@<TRIPOS>ATOM
      1 N           0.1580   -2.4040    0.0000 N.ar    1  LIG1       -0.3228
      2 C           0.7170   -1.5670    0.0000 C.ar    1  LIG1        0.0339
      3 C           0.1580   -0.7170    0.0000 C.ar    1  LIG1       -0.0093
      4 C          -0.7500   -1.0420    0.0000 C.ar    1  LIG1        0.0129
      5 C          -0.7500   -2.0880    0.0000 C.ar    1  LIG1        0.0597
      6 C          -1.5830   -2.5960    0.0000 C.ar    1  LIG1        0.0172
      7 C          -2.4040   -2.0880    0.0000 C.ar    1  LIG1        0.0015
      8 C          -2.4040   -1.0500    0.0000 C.ar    1  LIG1        0.0001
      9 C          -1.5830   -0.5130    0.0000 C.ar    1  LIG1        0.0012
     10 C           0.4920    0.2500    0.0000 C.3     1  LIG1        0.0264
     11 C           1.4380    0.4290    0.0000 C.3     1  LIG1        0.0236
     12 C           1.7710    1.3880    0.0000 C.3     1  LIG1        0.0958
     13 N           1.1670    2.2170    0.0000 N.3     1  LIG1       -0.1591
     14 S           1.5000    3.2000    0.0000 S.O2    1  LIG1        0.0481
     15 C           1.8250    4.1790    0.0000 C.3     1  LIG1        0.1954
     16 C           1.2000    4.9710    0.0000 C.ar    1  LIG1        0.0029
     17 C           1.5920    5.9080    0.0000 C.ar    1  LIG1       -0.0025
     18 C           0.9750    6.7000    0.0000 C.ar    1  LIG1       -0.0003
     19 C          -0.0250    6.5630    0.0000 C.ar    1  LIG1       -0.0000
     20 C          -0.4040    5.6250    0.0000 C.ar    1  LIG1       -0.0003
     21 C           0.2170    4.8330    0.0000 C.ar    1  LIG1       -0.0025
     22 O           2.4000    2.8250    0.0000 O.2     1  LIG1       -0.1570
     23 O           0.5920    3.5540    0.0000 O.2     1  LIG1       -0.1570
     24 C           0.2170    2.0330    0.0000 C.3     1  LIG1        0.0958
     25 C          -0.1040    1.0500    0.0000 C.3     1  LIG1        0.0236
     26 C           1.6880   -1.5670    0.0000 C.3     1  LIG1        0.0497
     27 C           0.4580   -3.3710    0.0000 C.3     1  LIG1        0.1916
     28 C          -0.1960   -4.1420    0.0000 C.2     1  LIG1        0.2487
     29 N           0.1210   -5.0830    0.0000 N.am    1  LIG1       -0.2780
     30 C          -0.4540   -5.8960    0.0000 C.3     1  LIG1        0.0935
     31 C           0.1420   -6.7000    0.0000 C.3     1  LIG1        0.0233
     32 C           1.0920   -6.3830    0.0000 C.3     1  LIG1        0.0233
     33 C           1.0790   -5.3830    0.0000 C.3     1  LIG1        0.0935
     34 O          -1.1460   -3.9290    0.0000 O.2     1  LIG1       -0.2728
@<TRIPOS>BOND
     1     1     2   ar
     2     1     5   ar
     3     1    27    1
     4     2     3   ar
     5     2    26    1
     6     3     4   ar
     7     3    10    1
     8     4     5   ar
     9     4     9   ar
    10     5     6   ar
    11     6     7   ar
    12     7     8   ar
    13     8     9   ar
    14    10    11    1
    15    10    25    1
    16    11    12    1
    17    12    13    1
    18    13    14    1
    19    13    24    1
    20    14    15    1
    21    14    22    2
    22    14    23    2
    23    15    16    1
    24    16    17   ar
    25    16    21   ar
    26    17    18   ar
    27    18    19   ar
    28    19    20   ar
    29    20    21   ar
    30    24    25    1
    31    27    28    1
    32    28    29   am
    33    28    34    2
    34    29    30    1
    35    29    33    1
    36    30    31    1
    37    31    32    1
    38    32    33    1
