@<TRIPOS>MOLECULE
37667_ChemDiv_C614-0907
 30 33 0 0 0
SMALL
GASTEIGER
Energy = 0

@<TRIPOS>ATOM
      1 N          -2.1290    1.0580    0.0000 N.ar    1  LIG1       -0.2961
      2 C          -1.5380    1.8670    0.0000 C.ar    1  LIG1        0.1222
      3 N          -2.1290    2.6790    0.0000 N.ar    1  LIG1       -0.2293
      4 C          -3.0750    2.3670    0.0000 C.ar    1  LIG1        0.1167
      5 C          -3.0750    1.3670    0.0000 C.ar    1  LIG1        0.1627
      6 N          -3.9460    0.8630    0.0000 N.ar    1  LIG1       -0.2252
      7 C          -4.8080    1.3630    0.0000 C.ar    1  LIG1        0.1006
      8 C          -4.8080    2.3670    0.0000 C.ar    1  LIG1        0.0223
      9 C          -3.9460    2.8670    0.0000 C.ar    1  LIG1        0.0238
     10 C          -0.5380    1.8670    0.0000 C.3     1  LIG1        0.0736
     11 C          -0.0380    1.0040    0.0000 C.3     1  LIG1        0.0951
     12 C           0.9630    1.0040    0.0000 C.2     1  LIG1        0.2460
     13 N           1.4670    0.1420    0.0000 N.am    1  LIG1       -0.1792
     14 C           2.4670    0.1500    0.0000 C.ar    1  LIG1        0.0733
     15 C           2.9670   -0.7130    0.0000 C.ar    1  LIG1        0.0163
     16 C           3.9670   -0.7080    0.0000 C.ar    1  LIG1       -0.0029
     17 C           4.4670    0.1670    0.0000 C.ar    1  LIG1       -0.0218
     18 C           3.9500    1.0290    0.0000 C.ar    1  LIG1       -0.0029
     19 C           2.9500    1.0130    0.0000 C.ar    1  LIG1        0.0163
     20 C           5.4670    0.1790    0.0000 C.3     1  LIG1        0.0310
     21 O           1.4630    1.8790    0.0000 O.2     1  LIG1       -0.2730
     22 C          -1.8210    0.1040    0.0000 C.3     1  LIG1        0.1353
     23 C          -2.4880   -0.6380    0.0000 C.ar    1  LIG1        0.0007
     24 C          -3.4580   -0.4250    0.0000 C.ar    1  LIG1        0.0007
     25 C          -4.1380   -1.1670    0.0000 C.ar    1  LIG1        0.0366
     26 C          -3.8250   -2.1210    0.0000 C.ar    1  LIG1        0.1387
     27 C          -2.8380   -2.3170    0.0000 C.ar    1  LIG1        0.0366
     28 C          -2.1750   -1.5750    0.0000 C.ar    1  LIG1        0.0007
     29 O          -4.5000   -2.8630    0.0000 O.3     1  LIG1       -0.4714
     30 C          -5.4710   -2.6500    0.0000 C.3     1  LIG1        0.2525
@<TRIPOS>BOND
     1     1     2   ar
     2     1     5   ar
     3     1    22    1
     4     2     3   ar
     5     2    10    1
     6     3     4   ar
     7     4     5   ar
     8     4     9   ar
     9     5     6   ar
    10     6     7   ar
    11     7     8   ar
    12     8     9   ar
    13    10    11    1
    14    11    12    1
    15    12    13   am
    16    12    21    2
    17    13    14    1
    18    14    15   ar
    19    14    19   ar
    20    15    16   ar
    21    16    17   ar
    22    17    18   ar
    23    17    20    1
    24    18    19   ar
    25    22    23    1
    26    23    24   ar
    27    23    28   ar
    28    24    25   ar
    29    25    26   ar
    30    26    27   ar
    31    26    29    1
    32    27    28   ar
    33    29    30    1
