@<TRIPOS>MOLECULE
37660_ChemDiv_C647-0069
 37 42 0 0 0
SMALL
GASTEIGER
Energy = 0

@<TRIPOS>ATOM
      1 C          -0.0960    2.2500    0.0000 C.ar    1  LIG1        0.0950
      2 C          -0.9830    2.7500    0.0000 C.ar    1  LIG1        0.2016
      3 C          -1.8670    2.2500    0.0000 C.ar    1  LIG1        0.0581
      4 C          -1.8670    1.2500    0.0000 C.ar    1  LIG1        0.0666
      5 N          -0.9880    0.7580    0.0000 N.ar    1  LIG1       -0.3174
      6 C          -0.0960    1.2500    0.0000 C.ar    1  LIG1        0.0827
      7 C          -0.9880   -0.2330    0.0000 C.3     1  LIG1        0.1939
      8 C          -0.1250   -0.7330    0.0000 C.2     1  LIG1        0.2686
      9 N          -0.1250   -1.7290    0.0000 N.am    1  LIG1       -0.1775
     10 C           0.7380   -2.2290    0.0000 C.ar    1  LIG1        0.0767
     11 C           1.6000   -1.7290    0.0000 C.ar    1  LIG1        0.0568
     12 C           2.4630   -2.2290    0.0000 C.ar    1  LIG1        0.1777
     13 C           2.4630   -3.2290    0.0000 C.ar    1  LIG1        0.1765
     14 O           3.4170   -3.5420    0.0000 O.3     1  LIG1       -0.4346
     15 C           4.0040   -2.7290    0.0000 C.3     1  LIG1        0.4294
     16 O           3.4170   -1.9130    0.0000 O.3     1  LIG1       -0.4346
     17 C           1.6000   -3.7290    0.0000 C.ar    1  LIG1        0.0415
     18 C           0.7380   -3.2290    0.0000 C.ar    1  LIG1        0.0199
     19 O           0.7380   -0.2330    0.0000 O.2     1  LIG1       -0.2709
     20 C          -2.7420    0.7710    0.0000 C.ar    1  LIG1        0.0575
     21 C          -3.6290    1.2540    0.0000 C.ar    1  LIG1        0.1779
     22 C          -3.6210    2.2500    0.0000 C.ar    1  LIG1        0.1766
     23 C          -2.7420    2.7330    0.0000 C.ar    1  LIG1        0.0448
     24 O          -4.5710    2.5670    0.0000 O.3     1  LIG1       -0.4346
     25 C          -5.1580    1.7670    0.0000 C.3     1  LIG1        0.4294
     26 O          -4.5750    0.9630    0.0000 O.3     1  LIG1       -0.4346
     27 O          -0.9830    3.7330    0.0000 O.2     1  LIG1       -0.2864
     28 C           0.7830    2.7330    0.0000 C.2     1  LIG1        0.2001
     29 C           1.6580    2.2500    0.0000 C.ar    1  LIG1        0.0393
     30 C           1.6460    1.2540    0.0000 C.ar    1  LIG1        0.0063
     31 C           2.5210    0.7710    0.0000 C.ar    1  LIG1        0.0370
     32 C           3.4040    1.2500    0.0000 C.ar    1  LIG1        0.1387
     33 C           3.4040    2.2500    0.0000 C.ar    1  LIG1        0.0370
     34 C           2.5210    2.7330    0.0000 C.ar    1  LIG1        0.0063
     35 O           4.2670    0.7580    0.0000 O.3     1  LIG1       -0.4714
     36 C           5.1540    1.2500    0.0000 C.3     1  LIG1        0.2525
     37 O           0.7830    3.7170    0.0000 O.2     1  LIG1       -0.2864
@<TRIPOS>BOND
     1     1     2   ar
     2     1     6   ar
     3     1    28    1
     4     2     3   ar
     5     2    27    2
     6     3     4   ar
     7     3    23   ar
     8     4     5   ar
     9     4    20   ar
    10     5     6   ar
    11     5     7    1
    12     7     8    1
    13     8     9   am
    14     8    19    2
    15     9    10    1
    16    10    11   ar
    17    10    18   ar
    18    11    12   ar
    19    12    13   ar
    20    12    16    1
    21    13    14    1
    22    13    17   ar
    23    14    15    1
    24    15    16    1
    25    17    18   ar
    26    20    21   ar
    27    21    22   ar
    28    21    26    1
    29    22    23   ar
    30    22    24    1
    31    24    25    1
    32    25    26    1
    33    28    29    1
    34    28    37    2
    35    29    30   ar
    36    29    34   ar
    37    30    31   ar
    38    31    32   ar
    39    32    33   ar
    40    32    35    1
    41    33    34   ar
    42    35    36    1
