@<TRIPOS>MOLECULE
37676_ChemDiv_K248-0163
 31 35 0 0 0
SMALL
GASTEIGER
Energy = 0

@<TRIPOS>ATOM
      1 S          -5.6250    1.3380    0.0000 S.O2    1  LIG1       -0.0018
      2 C          -4.7210    1.7460    0.0000 C.3     1  LIG1        0.2359
      3 C          -4.0500    1.0040    0.0000 C.3     1  LIG1        0.3549
      4 N          -3.0670    0.7920    0.0000 N.2     1  LIG1        0.0735
      5 C          -2.9790   -0.2040    0.0000 C.2     1  LIG1        0.3942
      6 S          -3.8710   -0.6080    0.0000 S.3     1  LIG1       -0.0135
      7 C          -4.5500    0.1420    0.0000 C.3     1  LIG1        0.1620
      8 C          -5.5210    0.3540    0.0000 C.3     1  LIG1        0.1696
      9 N          -2.1170   -0.7170    0.0000 N.pl3   1  LIG1       -0.1424
     10 C          -1.2380   -0.2290    0.0000 C.ar    1  LIG1        0.0769
     11 C          -1.2250    0.7670    0.0000 C.ar    1  LIG1        0.0169
     12 C          -0.3630    1.2670    0.0000 C.ar    1  LIG1        0.0059
     13 C           0.5080    0.7460    0.0000 C.ar    1  LIG1        0.0537
     14 C           1.4000    1.2170    0.0000 C.2     1  LIG1        0.2493
     15 N           2.2540    0.6880    0.0000 N.am    1  LIG1       -0.2716
     16 C           3.1250    1.1880    0.0000 C.3     1  LIG1        0.1199
     17 C           3.9920    0.6880    0.0000 C.2     1  LIG1       -0.0089
     18 C           3.9920   -0.3130    0.0000 C.2     1  LIG1       -0.0231
     19 C           3.1290   -0.8210    0.0000 C.3     1  LIG1        0.0476
     20 C           2.2630   -0.3210    0.0000 C.3     1  LIG1        0.0987
     21 C           4.8540   -0.8080    0.0000 C.ar    1  LIG1       -0.0042
     22 C           4.8540   -1.8000    0.0000 C.ar    1  LIG1       -0.0003
     23 C           5.7170   -2.3000    0.0000 C.ar    1  LIG1       -0.0000
     24 C           6.5880   -1.7920    0.0000 C.ar    1  LIG1       -0.0000
     25 C           6.5750   -0.7960    0.0000 C.ar    1  LIG1       -0.0000
     26 C           5.7170   -0.3040    0.0000 C.ar    1  LIG1       -0.0003
     27 O           1.4380    2.2210    0.0000 O.2     1  LIG1       -0.2699
     28 C           0.4960   -0.2500    0.0000 C.ar    1  LIG1        0.0059
     29 C          -0.3790   -0.7420    0.0000 C.ar    1  LIG1        0.0169
     30 O          -6.5880    1.0710    0.0000 O.2     1  LIG1       -0.1727
     31 O          -5.8960    2.3040    0.0000 O.2     1  LIG1       -0.1727
@<TRIPOS>BOND
     1     1     2    1
     2     1     8    1
     3     1    30    2
     4     1    31    2
     5     2     3    1
     6     3     4    1
     7     3     7    1
     8     4     5    2
     9     5     6    1
    10     5     9    1
    11     6     7    1
    12     7     8    1
    13     9    10    1
    14    10    11   ar
    15    10    29   ar
    16    11    12   ar
    17    12    13   ar
    18    13    14    1
    19    13    28   ar
    20    14    15   am
    21    14    27    2
    22    15    16    1
    23    15    20    1
    24    16    17    1
    25    17    18    2
    26    18    19    1
    27    18    21    1
    28    19    20    1
    29    21    22   ar
    30    21    26   ar
    31    22    23   ar
    32    23    24   ar
    33    24    25   ar
    34    25    26   ar
    35    28    29   ar
