@<TRIPOS>MOLECULE
37677_ChemDiv_C614-0932
 33 36 0 0 0
SMALL
GASTEIGER
Energy = 0

@<TRIPOS>ATOM
      1 N          -2.7080   -0.7500    0.0000 N.ar    1  LIG1       -0.2961
      2 C          -2.1210    0.0540    0.0000 C.ar    1  LIG1        0.1222
      3 N          -2.7080    0.8750    0.0000 N.ar    1  LIG1       -0.2293
      4 C          -3.6630    0.5580    0.0000 C.ar    1  LIG1        0.1167
      5 C          -3.6630   -0.4290    0.0000 C.ar    1  LIG1        0.1627
      6 N          -4.5250   -0.9420    0.0000 N.ar    1  LIG1       -0.2252
      7 C          -5.3880   -0.4290    0.0000 C.ar    1  LIG1        0.1006
      8 C          -5.3880    0.5580    0.0000 C.ar    1  LIG1        0.0223
      9 C          -4.5250    1.0580    0.0000 C.ar    1  LIG1        0.0238
     10 C          -1.1210    0.0540    0.0000 C.3     1  LIG1        0.0736
     11 C          -0.6210    0.9210    0.0000 C.3     1  LIG1        0.0951
     12 C           0.3830    0.9210    0.0000 C.2     1  LIG1        0.2460
     13 N           0.8830    1.7830    0.0000 N.am    1  LIG1       -0.1791
     14 C           1.8830    1.7830    0.0000 C.ar    1  LIG1        0.0766
     15 C           2.3830    2.6500    0.0000 C.ar    1  LIG1        0.0566
     16 C           3.3830    2.6630    0.0000 C.ar    1  LIG1        0.1737
     17 C           3.8830    1.7830    0.0000 C.ar    1  LIG1        0.1725
     18 C           3.3830    0.9080    0.0000 C.ar    1  LIG1        0.0414
     19 C           2.3830    0.9210    0.0000 C.ar    1  LIG1        0.0199
     20 O           4.8830    1.7830    0.0000 O.3     1  LIG1       -0.4684
     21 C           5.3830    0.9210    0.0000 C.3     1  LIG1        0.2526
     22 O           3.8790    3.5250    0.0000 O.3     1  LIG1       -0.4683
     23 C           4.8710    3.5250    0.0000 C.3     1  LIG1        0.2526
     24 O           0.8830    0.0540    0.0000 O.2     1  LIG1       -0.2730
     25 C          -2.4040   -1.7040    0.0000 C.3     1  LIG1        0.1353
     26 C          -1.4250   -1.9170    0.0000 C.ar    1  LIG1        0.0007
     27 C          -0.7540   -1.1710    0.0000 C.ar    1  LIG1        0.0007
     28 C           0.2170   -1.3830    0.0000 C.ar    1  LIG1        0.0366
     29 C           0.5290   -2.3380    0.0000 C.ar    1  LIG1        0.1387
     30 C          -0.1460   -3.0750    0.0000 C.ar    1  LIG1        0.0366
     31 C          -1.1170   -2.8670    0.0000 C.ar    1  LIG1        0.0007
     32 O           1.5040   -2.5630    0.0000 O.3     1  LIG1       -0.4714
     33 C           1.8080   -3.5210    0.0000 C.3     1  LIG1        0.2525
@<TRIPOS>BOND
     1     1     2   ar
     2     1     5   ar
     3     1    25    1
     4     2     3   ar
     5     2    10    1
     6     3     4   ar
     7     4     5   ar
     8     4     9   ar
     9     5     6   ar
    10     6     7   ar
    11     7     8   ar
    12     8     9   ar
    13    10    11    1
    14    11    12    1
    15    12    13   am
    16    12    24    2
    17    13    14    1
    18    14    15   ar
    19    14    19   ar
    20    15    16   ar
    21    16    17   ar
    22    16    22    1
    23    17    18   ar
    24    17    20    1
    25    18    19   ar
    26    20    21    1
    27    22    23    1
    28    25    26    1
    29    26    27   ar
    30    26    31   ar
    31    27    28   ar
    32    28    29   ar
    33    29    30   ar
    34    29    32    1
    35    30    31   ar
    36    32    33    1
