@<TRIPOS>MOLECULE
37679_ChemDiv_C614-0948
 32 35 0 0 0
SMALL
GASTEIGER
Energy = 0

@<TRIPOS>ATOM
      1 N          -2.1420    1.0580    0.0000 N.ar    1  LIG1       -0.2961
      2 C          -1.5500    1.8670    0.0000 C.ar    1  LIG1        0.1222
      3 N          -2.1420    2.6790    0.0000 N.ar    1  LIG1       -0.2293
      4 C          -3.0830    2.3670    0.0000 C.ar    1  LIG1        0.1167
      5 C          -3.0830    1.3670    0.0000 C.ar    1  LIG1        0.1627
      6 N          -3.9580    0.8630    0.0000 N.ar    1  LIG1       -0.2252
      7 C          -4.8210    1.3630    0.0000 C.ar    1  LIG1        0.1006
      8 C          -4.8210    2.3670    0.0000 C.ar    1  LIG1        0.0223
      9 C          -3.9580    2.8670    0.0000 C.ar    1  LIG1        0.0238
     10 C          -0.5500    1.8670    0.0000 C.3     1  LIG1        0.0736
     11 C          -0.0500    1.0040    0.0000 C.3     1  LIG1        0.0951
     12 C           0.9500    1.0040    0.0000 C.2     1  LIG1        0.2460
     13 N           1.4580    0.1420    0.0000 N.am    1  LIG1       -0.1792
     14 C           2.4580    0.1500    0.0000 C.ar    1  LIG1        0.0735
     15 C           2.9630   -0.7130    0.0000 C.ar    1  LIG1        0.0194
     16 C           3.9630   -0.7080    0.0000 C.ar    1  LIG1        0.0360
     17 C           4.4750   -1.5710    0.0000 C.2     1  LIG1        0.1735
     18 O           3.9790   -2.4380    0.0000 O.2     1  LIG1       -0.2913
     19 C           5.4710   -1.5630    0.0000 C.3     1  LIG1        0.0773
     20 C           4.4580    0.1670    0.0000 C.ar    1  LIG1        0.0029
     21 C           3.9420    1.0290    0.0000 C.ar    1  LIG1        0.0014
     22 C           2.9420    1.0130    0.0000 C.ar    1  LIG1        0.0166
     23 O           1.4500    1.8790    0.0000 O.2     1  LIG1       -0.2730
     24 C          -1.8210    0.1040    0.0000 C.3     1  LIG1        0.1353
     25 C          -2.5040   -0.6380    0.0000 C.ar    1  LIG1        0.0007
     26 C          -2.1880   -1.5750    0.0000 C.ar    1  LIG1        0.0007
     27 C          -2.8500   -2.3170    0.0000 C.ar    1  LIG1        0.0366
     28 C          -3.8380   -2.1210    0.0000 C.ar    1  LIG1        0.1387
     29 C          -4.1380   -1.1670    0.0000 C.ar    1  LIG1        0.0366
     30 C          -3.4710   -0.4250    0.0000 C.ar    1  LIG1        0.0007
     31 O          -4.5040   -2.8630    0.0000 O.3     1  LIG1       -0.4714
     32 C          -5.4750   -2.6500    0.0000 C.3     1  LIG1        0.2525
@<TRIPOS>BOND
     1     1     2   ar
     2     1     5   ar
     3     1    24    1
     4     2     3   ar
     5     2    10    1
     6     3     4   ar
     7     4     5   ar
     8     4     9   ar
     9     5     6   ar
    10     6     7   ar
    11     7     8   ar
    12     8     9   ar
    13    10    11    1
    14    11    12    1
    15    12    13   am
    16    12    23    2
    17    13    14    1
    18    14    15   ar
    19    14    22   ar
    20    15    16   ar
    21    16    17    1
    22    16    20   ar
    23    17    18    2
    24    17    19    1
    25    20    21   ar
    26    21    22   ar
    27    24    25    1
    28    25    26   ar
    29    25    30   ar
    30    26    27   ar
    31    27    28   ar
    32    28    29   ar
    33    28    31    1
    34    29    30   ar
    35    31    32    1
