@<TRIPOS>MOLECULE
37674_ChemDiv_C685-0655
 32 36 0 0 0
SMALL
GASTEIGER
Energy = 0

@<TRIPOS>ATOM
      1 S          -5.6000   -0.7080    0.0000 S.O2    1  LIG1       -0.0018
      2 C          -4.6880   -1.1290    0.0000 C.3     1  LIG1        0.2359
      3 C          -4.0080   -0.3880    0.0000 C.3     1  LIG1        0.3549
      4 N          -3.0290   -0.1880    0.0000 N.2     1  LIG1        0.0735
      5 C          -2.9170    0.8080    0.0000 C.2     1  LIG1        0.3942
      6 S          -3.8290    1.2170    0.0000 S.3     1  LIG1       -0.0135
      7 C          -4.5080    0.4880    0.0000 C.3     1  LIG1        0.1620
      8 C          -5.4920    0.2830    0.0000 C.3     1  LIG1        0.1696
      9 N          -2.0460    1.2920    0.0000 N.pl3   1  LIG1       -0.1427
     10 C          -1.1920    0.7920    0.0000 C.ar    1  LIG1        0.0731
     11 C          -0.3170    1.2750    0.0000 C.ar    1  LIG1        0.0209
     12 C           0.5460    0.7750    0.0000 C.ar    1  LIG1        0.0549
     13 C           1.4080    1.2750    0.0000 C.2     1  LIG1        0.2493
     14 N           2.2750    0.7630    0.0000 N.am    1  LIG1       -0.2716
     15 C           2.2750   -0.2460    0.0000 C.3     1  LIG1        0.1199
     16 C           3.1460   -0.7540    0.0000 C.2     1  LIG1       -0.0089
     17 C           4.0130   -0.2540    0.0000 C.2     1  LIG1       -0.0231
     18 C           4.0250    0.7460    0.0000 C.3     1  LIG1        0.0476
     19 C           3.1500    1.2500    0.0000 C.3     1  LIG1        0.0987
     20 C           4.8710   -0.7630    0.0000 C.ar    1  LIG1       -0.0042
     21 C           4.8630   -1.7500    0.0000 C.ar    1  LIG1       -0.0003
     22 C           5.7250   -2.2580    0.0000 C.ar    1  LIG1       -0.0000
     23 C           6.5880   -1.7670    0.0000 C.ar    1  LIG1       -0.0000
     24 C           6.5960   -0.7670    0.0000 C.ar    1  LIG1       -0.0000
     25 C           5.7330   -0.2630    0.0000 C.ar    1  LIG1       -0.0003
     26 O           1.4250    2.2630    0.0000 O.2     1  LIG1       -0.2699
     27 C           0.5420   -0.2210    0.0000 C.ar    1  LIG1        0.0043
     28 C          -0.3290   -0.7210    0.0000 C.ar    1  LIG1       -0.0028
     29 C          -1.1920   -0.2080    0.0000 C.ar    1  LIG1       -0.0064
     30 C          -2.0540   -0.7000    0.0000 C.3     1  LIG1        0.0324
     31 O          -6.1080   -1.5710    0.0000 O.2     1  LIG1       -0.1727
     32 O          -6.5960   -0.7080    0.0000 O.2     1  LIG1       -0.1727
@<TRIPOS>BOND
     1     1     2    1
     2     1     8    1
     3     1    31    2
     4     1    32    2
     5     2     3    1
     6     3     4    1
     7     3     7    1
     8     4     5    2
     9     5     6    1
    10     5     9    1
    11     6     7    1
    12     7     8    1
    13     9    10    1
    14    10    11   ar
    15    10    29   ar
    16    11    12   ar
    17    12    13    1
    18    12    27   ar
    19    13    14   am
    20    13    26    2
    21    14    15    1
    22    14    19    1
    23    15    16    1
    24    16    17    2
    25    17    18    1
    26    17    20    1
    27    18    19    1
    28    20    21   ar
    29    20    25   ar
    30    21    22   ar
    31    22    23   ar
    32    23    24   ar
    33    24    25   ar
    34    27    28   ar
    35    28    29   ar
    36    29    30    1
