@<TRIPOS>MOLECULE
37678_ChemDiv_C686-1509
 31 35 0 0 0
SMALL
GASTEIGER
Energy = 0

@<TRIPOS>ATOM
      1 C          -0.0830   -2.3130    0.0000 C.ar    1  LIG1        0.2356
      2 C          -0.4040   -1.3540    0.0000 C.ar    1  LIG1        0.1172
      3 N           0.1920   -0.5380    0.0000 N.am    1  LIG1       -0.1752
      4 C          -0.2210    0.3750    0.0000 C.2     1  LIG1        0.2536
      5 C           0.3670    1.1790    0.0000 C.3     1  LIG1        0.1287
      6 C           1.3630    1.0880    0.0000 C.ar    1  LIG1        0.0250
      7 C           1.9500    1.8920    0.0000 C.ar    1  LIG1        0.1420
      8 O           1.5420    2.8040    0.0000 O.3     1  LIG1       -0.4541
      9 C           0.5540    2.8920    0.0000 C.ar    1  LIG1        0.1420
     10 C          -0.0380    2.0880    0.0000 C.ar    1  LIG1        0.0250
     11 C          -1.0250    2.1790    0.0000 C.ar    1  LIG1       -0.0005
     12 C          -1.4250    3.1000    0.0000 C.ar    1  LIG1       -0.0001
     13 C          -0.8420    3.9130    0.0000 C.ar    1  LIG1        0.0031
     14 C           0.1460    3.8040    0.0000 C.ar    1  LIG1        0.0372
     15 C           2.9420    1.7830    0.0000 C.ar    1  LIG1        0.0372
     16 C           3.3500    0.8750    0.0000 C.ar    1  LIG1        0.0031
     17 C           2.7580    0.0710    0.0000 C.ar    1  LIG1       -0.0001
     18 C           1.7580    0.1670    0.0000 C.ar    1  LIG1       -0.0005
     19 O          -1.2130    0.4790    0.0000 O.2     1  LIG1       -0.2723
     20 C          -1.3960   -1.3580    0.0000 C.ar    1  LIG1        0.0531
     21 C          -1.7080   -2.3130    0.0000 C.ar    1  LIG1        0.1469
     22 O          -0.9040   -2.8960    0.0000 O.2     1  LIG1       -0.4456
     23 C          -2.6830   -2.5130    0.0000 C.ar    1  LIG1        0.0375
     24 C          -3.3540   -1.7790    0.0000 C.ar    1  LIG1        0.0031
     25 C          -3.0500   -0.8210    0.0000 C.ar    1  LIG1        0.0002
     26 C          -2.0670   -0.6130    0.0000 C.ar    1  LIG1        0.0044
     27 C           0.8710   -2.6210    0.0000 C.2     1  LIG1        0.3776
     28 O           1.6170   -1.9460    0.0000 O.2     1  LIG1       -0.2414
     29 O           1.0710   -3.5960    0.0000 O.3     1  LIG1       -0.4433
     30 C           2.0290   -3.9080    0.0000 C.3     1  LIG1        0.2090
     31 C           2.7750   -3.2290    0.0000 C.3     1  LIG1        0.0513
@<TRIPOS>BOND
     1     1     2   ar
     2     1    22   ar
     3     1    27    1
     4     2     3    1
     5     2    20   ar
     6     3     4   am
     7     4     5    1
     8     4    19    2
     9     5     6    1
    10     5    10    1
    11     6     7   ar
    12     6    18   ar
    13     7     8    1
    14     7    15   ar
    15     8     9    1
    16     9    10   ar
    17     9    14   ar
    18    10    11   ar
    19    11    12   ar
    20    12    13   ar
    21    13    14   ar
    22    15    16   ar
    23    16    17   ar
    24    17    18   ar
    25    20    21   ar
    26    20    26   ar
    27    21    22   ar
    28    21    23   ar
    29    23    24   ar
    30    24    25   ar
    31    25    26   ar
    32    27    28    2
    33    27    29    1
    34    29    30    1
    35    30    31    1
