@<TRIPOS>MOLECULE
37689_ChemDiv_C614-6238
 30 33 0 0 0
SMALL
GASTEIGER
Energy = 0

@<TRIPOS>ATOM
      1 N          -3.1830    0.5290    0.0000 N.ar    1  LIG1       -0.2789
      2 C          -2.6000    1.3330    0.0000 C.ar    1  LIG1        0.1258
      3 N          -3.1830    2.1460    0.0000 N.ar    1  LIG1       -0.2290
      4 C          -4.1330    1.8460    0.0000 C.ar    1  LIG1        0.1170
      5 C          -4.1330    0.8380    0.0000 C.ar    1  LIG1        0.1663
      6 N          -5.0000    0.3330    0.0000 N.ar    1  LIG1       -0.2248
      7 C          -5.8710    0.8380    0.0000 C.ar    1  LIG1        0.1006
      8 C          -5.8710    1.8330    0.0000 C.ar    1  LIG1        0.0223
      9 C          -5.0000    2.3460    0.0000 C.ar    1  LIG1        0.0238
     10 C          -1.5960    1.3330    0.0000 C.3     1  LIG1        0.0739
     11 C          -1.0960    0.4630    0.0000 C.3     1  LIG1        0.0951
     12 C          -0.0830    0.4630    0.0000 C.2     1  LIG1        0.2460
     13 N           0.4130   -0.4000    0.0000 N.am    1  LIG1       -0.1792
     14 C           1.4130   -0.3920    0.0000 C.ar    1  LIG1        0.0734
     15 C           1.9080   -1.2460    0.0000 C.ar    1  LIG1        0.0179
     16 C           2.9000   -1.2380    0.0000 C.ar    1  LIG1        0.0179
     17 C           3.3830   -0.3710    0.0000 C.ar    1  LIG1        0.0734
     18 N           4.3830   -0.3630    0.0000 N.am    1  LIG1       -0.1792
     19 C           4.8710    0.5040    0.0000 C.2     1  LIG1        0.2461
     20 O           4.3580    1.3670    0.0000 O.2     1  LIG1       -0.2730
     21 C           5.8670    0.5210    0.0000 C.3     1  LIG1        0.0968
     22 C           2.8750    0.4880    0.0000 C.ar    1  LIG1        0.0179
     23 C           1.8880    0.4710    0.0000 C.ar    1  LIG1        0.0179
     24 O           0.4130    1.3330    0.0000 O.2     1  LIG1       -0.2730
     25 C          -2.8790   -0.4290    0.0000 C.ar    1  LIG1        0.0664
     26 C          -3.5580   -1.1710    0.0000 C.ar    1  LIG1        0.0176
     27 C          -3.2580   -2.1290    0.0000 C.ar    1  LIG1        0.0015
     28 C          -2.2750   -2.3420    0.0000 C.ar    1  LIG1        0.0001
     29 C          -1.5960   -1.6000    0.0000 C.ar    1  LIG1        0.0015
     30 C          -1.9000   -0.6420    0.0000 C.ar    1  LIG1        0.0176
@<TRIPOS>BOND
     1     1     2   ar
     2     1     5   ar
     3     1    25    1
     4     2     3   ar
     5     2    10    1
     6     3     4   ar
     7     4     5   ar
     8     4     9   ar
     9     5     6   ar
    10     6     7   ar
    11     7     8   ar
    12     8     9   ar
    13    10    11    1
    14    11    12    1
    15    12    13   am
    16    12    24    2
    17    13    14    1
    18    14    15   ar
    19    14    23   ar
    20    15    16   ar
    21    16    17   ar
    22    17    18    1
    23    17    22   ar
    24    18    19   am
    25    19    20    2
    26    19    21    1
    27    22    23   ar
    28    25    26   ar
    29    25    30   ar
    30    26    27   ar
    31    27    28   ar
    32    28    29   ar
    33    29    30   ar
