@<TRIPOS>MOLECULE
37682_ChemDiv_C647-0105
 34 38 0 0 0
SMALL
GASTEIGER
Energy = 0

@<TRIPOS>ATOM
      1 C           0.3670    2.2420    0.0000 C.ar    1  LIG1        0.0950
      2 C          -0.5000    2.7460    0.0000 C.ar    1  LIG1        0.2016
      3 C          -1.3710    2.2420    0.0000 C.ar    1  LIG1        0.0581
      4 C          -1.3750    1.2380    0.0000 C.ar    1  LIG1        0.0666
      5 N          -0.5080    0.7460    0.0000 N.ar    1  LIG1       -0.3174
      6 C           0.3670    1.2380    0.0000 C.ar    1  LIG1        0.0827
      7 C          -0.5130   -0.2580    0.0000 C.3     1  LIG1        0.1939
      8 C           0.3460   -0.7580    0.0000 C.2     1  LIG1        0.2686
      9 N           0.3460   -1.7460    0.0000 N.am    1  LIG1       -0.1776
     10 C           1.2080   -2.2540    0.0000 C.ar    1  LIG1        0.0736
     11 C           1.2080   -3.2500    0.0000 C.ar    1  LIG1        0.0197
     12 C           2.0710   -3.7500    0.0000 C.ar    1  LIG1        0.0382
     13 C           2.9290   -3.2500    0.0000 C.ar    1  LIG1        0.1388
     14 C           2.9290   -2.2460    0.0000 C.ar    1  LIG1        0.0382
     15 C           2.0710   -1.7460    0.0000 C.ar    1  LIG1        0.0197
     16 O           3.7920   -3.7500    0.0000 O.3     1  LIG1       -0.4714
     17 C           4.6580   -3.2500    0.0000 C.3     1  LIG1        0.2525
     18 O           1.2080   -0.2580    0.0000 O.2     1  LIG1       -0.2709
     19 C          -2.2330    0.7460    0.0000 C.ar    1  LIG1        0.0575
     20 C          -3.0960    1.2380    0.0000 C.ar    1  LIG1        0.1779
     21 C          -3.0960    2.2580    0.0000 C.ar    1  LIG1        0.1766
     22 C          -2.2330    2.7420    0.0000 C.ar    1  LIG1        0.0448
     23 O          -4.0630    2.5670    0.0000 O.3     1  LIG1       -0.4346
     24 C          -4.6630    1.7460    0.0000 C.3     1  LIG1        0.4294
     25 O          -4.0630    0.9290    0.0000 O.3     1  LIG1       -0.4346
     26 O          -0.5000    3.7540    0.0000 O.2     1  LIG1       -0.2864
     27 C           1.2380    2.7330    0.0000 C.2     1  LIG1        0.2001
     28 O           1.2380    3.7380    0.0000 O.2     1  LIG1       -0.2864
     29 C           2.1000    2.2330    0.0000 C.ar    1  LIG1        0.0391
     30 C           2.9500    2.7330    0.0000 C.ar    1  LIG1        0.0032
     31 C           3.8130    2.2330    0.0000 C.ar    1  LIG1        0.0001
     32 C           3.8130    1.2380    0.0000 C.ar    1  LIG1        0.0000
     33 C           2.9460    0.7460    0.0000 C.ar    1  LIG1        0.0001
     34 C           2.0830    1.2380    0.0000 C.ar    1  LIG1        0.0032
@<TRIPOS>BOND
     1     1     2   ar
     2     1     6   ar
     3     1    27    1
     4     2     3   ar
     5     2    26    2
     6     3     4   ar
     7     3    22   ar
     8     4     5   ar
     9     4    19   ar
    10     5     6   ar
    11     5     7    1
    12     7     8    1
    13     8     9   am
    14     8    18    2
    15     9    10    1
    16    10    11   ar
    17    10    15   ar
    18    11    12   ar
    19    12    13   ar
    20    13    14   ar
    21    13    16    1
    22    14    15   ar
    23    16    17    1
    24    19    20   ar
    25    20    21   ar
    26    20    25    1
    27    21    22   ar
    28    21    23    1
    29    23    24    1
    30    24    25    1
    31    27    28    2
    32    27    29    1
    33    29    30   ar
    34    29    34   ar
    35    30    31   ar
    36    31    32   ar
    37    32    33   ar
    38    33    34   ar
