@<TRIPOS>MOLECULE
37687_ChemDiv_C614-6235
 32 36 0 0 0
SMALL
GASTEIGER
Energy = 0

@<TRIPOS>ATOM
      1 N          -1.2000    2.1460    0.0000 N.ar    1  LIG1       -0.2789
      2 C          -0.6170    2.9460    0.0000 C.ar    1  LIG1        0.1258
      3 N          -1.2000    3.7630    0.0000 N.ar    1  LIG1       -0.2290
      4 C          -2.1500    3.4580    0.0000 C.ar    1  LIG1        0.1170
      5 C          -2.1500    2.4540    0.0000 C.ar    1  LIG1        0.1663
      6 N          -3.0170    1.9500    0.0000 N.ar    1  LIG1       -0.2248
      7 C          -3.8880    2.4540    0.0000 C.ar    1  LIG1        0.1006
      8 C          -3.8880    3.4500    0.0000 C.ar    1  LIG1        0.0223
      9 C          -3.0170    3.9580    0.0000 C.ar    1  LIG1        0.0238
     10 C           0.3880    2.9460    0.0000 C.3     1  LIG1        0.0739
     11 C           0.8830    2.0750    0.0000 C.3     1  LIG1        0.0932
     12 C           1.8960    2.0750    0.0000 C.2     1  LIG1        0.2261
     13 N           2.3920    1.2170    0.0000 N.am    1  LIG1       -0.2795
     14 C           1.8960    0.3580    0.0000 C.3     1  LIG1        0.0934
     15 C           2.3880   -0.4960    0.0000 C.3     1  LIG1        0.0219
     16 C           3.3830   -0.5040    0.0000 C.3     1  LIG1        0.0078
     17 C           3.8830   -1.3710    0.0000 C.3     1  LIG1        0.0265
     18 C           3.3830   -2.2330    0.0000 C.ar    1  LIG1       -0.0222
     19 C           2.3880   -2.2290    0.0000 C.ar    1  LIG1       -0.0043
     20 C           1.8790   -3.0880    0.0000 C.ar    1  LIG1       -0.0003
     21 C           2.3790   -3.9540    0.0000 C.ar    1  LIG1       -0.0000
     22 C           3.3830   -3.9540    0.0000 C.ar    1  LIG1       -0.0003
     23 C           3.8830   -3.0880    0.0000 C.ar    1  LIG1       -0.0043
     24 C           3.8830    0.3630    0.0000 C.3     1  LIG1        0.0219
     25 C           3.3920    1.2250    0.0000 C.3     1  LIG1        0.0934
     26 O           2.3920    2.9460    0.0000 O.2     1  LIG1       -0.2749
     27 C          -0.8960    1.1830    0.0000 C.ar    1  LIG1        0.0664
     28 C           0.0830    0.9750    0.0000 C.ar    1  LIG1        0.0176
     29 C           0.3880    0.0170    0.0000 C.ar    1  LIG1        0.0015
     30 C          -0.2960   -0.7210    0.0000 C.ar    1  LIG1        0.0001
     31 C          -1.2750   -0.5130    0.0000 C.ar    1  LIG1        0.0015
     32 C          -1.5790    0.4460    0.0000 C.ar    1  LIG1        0.0176
@<TRIPOS>BOND
     1     1     2   ar
     2     1     5   ar
     3     1    27    1
     4     2     3   ar
     5     2    10    1
     6     3     4   ar
     7     4     5   ar
     8     4     9   ar
     9     5     6   ar
    10     6     7   ar
    11     7     8   ar
    12     8     9   ar
    13    10    11    1
    14    11    12    1
    15    12    13   am
    16    12    26    2
    17    13    14    1
    18    13    25    1
    19    14    15    1
    20    15    16    1
    21    16    17    1
    22    16    24    1
    23    17    18    1
    24    18    19   ar
    25    18    23   ar
    26    19    20   ar
    27    20    21   ar
    28    21    22   ar
    29    22    23   ar
    30    24    25    1
    31    27    28   ar
    32    27    32   ar
    33    28    29   ar
    34    29    30   ar
    35    30    31   ar
    36    31    32   ar
