@<TRIPOS>MOLECULE
37680_ChemDiv_C688-0875
 29 33 0 0 0
SMALL
GASTEIGER
Energy = 0

@<TRIPOS>ATOM
      1 C          -0.6960    1.7880    0.0000 C.ar    1  LIG1        0.1019
      2 C          -0.6960    0.7920    0.0000 C.ar    1  LIG1        0.0754
      3 N           0.1670    0.2920    0.0000 N.ar    1  LIG1       -0.2713
      4 C           1.0380    0.7920    0.0000 C.ar    1  LIG1        0.3381
      5 N           1.0380    1.7880    0.0000 N.ar    1  LIG1       -0.2268
      6 C           0.1670    2.2880    0.0000 C.ar    1  LIG1        0.2755
      7 O           0.1670    3.2880    0.0000 O.2     1  LIG1       -0.2659
      8 C           1.9000    2.2880    0.0000 C.ar    1  LIG1        0.0711
      9 C           2.7630    1.7880    0.0000 C.ar    1  LIG1        0.0178
     10 C           3.6290    2.2880    0.0000 C.ar    1  LIG1        0.0015
     11 C           3.6290    3.2960    0.0000 C.ar    1  LIG1        0.0001
     12 C           2.7630    3.7960    0.0000 C.ar    1  LIG1        0.0015
     13 C           1.9000    3.2960    0.0000 C.ar    1  LIG1        0.0178
     14 O           1.9080    0.2790    0.0000 O.2     1  LIG1       -0.2458
     15 C           0.1670   -0.7080    0.0000 C.3     1  LIG1        0.1955
     16 C           1.0290   -1.2080    0.0000 C.2     1  LIG1        0.2489
     17 N           1.0290   -2.2170    0.0000 N.am    1  LIG1       -0.2780
     18 C           1.7790   -2.8920    0.0000 C.3     1  LIG1        0.0935
     19 C           1.3750   -3.7920    0.0000 C.3     1  LIG1        0.0233
     20 C           0.3790   -3.6960    0.0000 C.3     1  LIG1        0.0233
     21 C           0.1670   -2.7170    0.0000 C.3     1  LIG1        0.0935
     22 O           1.8960   -0.7080    0.0000 O.2     1  LIG1       -0.2728
     23 C          -1.6460    0.4830    0.0000 C.ar    1  LIG1        0.0226
     24 C          -2.2330    1.2830    0.0000 C.ar    1  LIG1        0.0310
     25 S          -1.6460    2.0960    0.0000 S.2     1  LIG1       -0.0807
     26 C          -3.2250    1.1790    0.0000 C.ar    1  LIG1        0.0065
     27 C          -3.6330    0.2630    0.0000 C.ar    1  LIG1        0.0005
     28 C          -3.0500   -0.5380    0.0000 C.ar    1  LIG1        0.0001
     29 C          -2.0540   -0.4330    0.0000 C.ar    1  LIG1        0.0020
@<TRIPOS>BOND
     1     1     2   ar
     2     1     6   ar
     3     1    25   ar
     4     2     3   ar
     5     2    23   ar
     6     3     4   ar
     7     3    15    1
     8     4     5   ar
     9     4    14    2
    10     5     6   ar
    11     5     8    1
    12     6     7    2
    13     8     9   ar
    14     8    13   ar
    15     9    10   ar
    16    10    11   ar
    17    11    12   ar
    18    12    13   ar
    19    15    16    1
    20    16    17   am
    21    16    22    2
    22    17    18    1
    23    17    21    1
    24    18    19    1
    25    19    20    1
    26    20    21    1
    27    23    24   ar
    28    23    29   ar
    29    24    25   ar
    30    24    26   ar
    31    26    27   ar
    32    27    28   ar
    33    28    29   ar
