@<TRIPOS>MOLECULE
37685_ChemDiv_C614-6191
 24 26 0 0 0
SMALL
GASTEIGER
Energy = 0

@<TRIPOS>ATOM
      1 N          -1.9540    0.5330    0.0000 N.ar    1  LIG1       -0.2789
      2 C          -1.3670    1.3330    0.0000 C.ar    1  LIG1        0.1258
      3 N          -1.9540    2.1500    0.0000 N.ar    1  LIG1       -0.2290
      4 C          -2.9040    1.8420    0.0000 C.ar    1  LIG1        0.1170
      5 C          -2.9040    0.8460    0.0000 C.ar    1  LIG1        0.1663
      6 N          -3.7670    0.3380    0.0000 N.ar    1  LIG1       -0.2248
      7 C          -4.6420    0.8460    0.0000 C.ar    1  LIG1        0.1006
      8 C          -4.6420    1.8420    0.0000 C.ar    1  LIG1        0.0223
      9 C          -3.7670    2.3420    0.0000 C.ar    1  LIG1        0.0238
     10 C          -0.3710    1.3290    0.0000 C.3     1  LIG1        0.0739
     11 C           0.1380    0.4710    0.0000 C.3     1  LIG1        0.0947
     12 C           1.1380    0.4710    0.0000 C.2     1  LIG1        0.2419
     13 O           1.6330    1.3330    0.0000 O.2     1  LIG1       -0.2733
     14 N           1.6330   -0.3920    0.0000 N.am    1  LIG1       -0.2027
     15 C           2.6290   -0.3830    0.0000 C.3     1  LIG1        0.1471
     16 C           3.1380   -1.2460    0.0000 C.3     1  LIG1        0.1656
     17 O           4.1330   -1.2330    0.0000 O.3     1  LIG1       -0.3492
     18 C           4.6380   -2.0920    0.0000 C.3     1  LIG1        0.1742
     19 C          -1.6460   -0.4210    0.0000 C.ar    1  LIG1        0.0664
     20 C          -0.6750   -0.6330    0.0000 C.ar    1  LIG1        0.0176
     21 C          -0.3710   -1.5920    0.0000 C.ar    1  LIG1        0.0015
     22 C          -1.0500   -2.3380    0.0000 C.ar    1  LIG1        0.0001
     23 C          -2.0290   -2.1210    0.0000 C.ar    1  LIG1        0.0015
     24 C          -2.3330   -1.1580    0.0000 C.ar    1  LIG1        0.0176
@<TRIPOS>BOND
     1     1     2   ar
     2     1     5   ar
     3     1    19    1
     4     2     3   ar
     5     2    10    1
     6     3     4   ar
     7     4     5   ar
     8     4     9   ar
     9     5     6   ar
    10     6     7   ar
    11     7     8   ar
    12     8     9   ar
    13    10    11    1
    14    11    12    1
    15    12    13    2
    16    12    14   am
    17    14    15    1
    18    15    16    1
    19    16    17    1
    20    17    18    1
    21    19    20   ar
    22    19    24   ar
    23    20    21   ar
    24    21    22   ar
    25    22    23   ar
    26    23    24   ar
