@<TRIPOS>MOLECULE
37683_ChemDiv_C614-6129
 29 33 0 0 0
SMALL
GASTEIGER
Energy = 0

@<TRIPOS>ATOM
      1 N          -2.4790    0.5290    0.0000 N.ar    1  LIG1       -0.2789
      2 C          -1.8960    1.3290    0.0000 C.ar    1  LIG1        0.1258
      3 N          -2.4790    2.1460    0.0000 N.ar    1  LIG1       -0.2290
      4 C          -3.4290    1.8420    0.0000 C.ar    1  LIG1        0.1170
      5 C          -3.4290    0.8380    0.0000 C.ar    1  LIG1        0.1663
      6 N          -4.2960    0.3330    0.0000 N.ar    1  LIG1       -0.2248
      7 C          -5.1670    0.8380    0.0000 C.ar    1  LIG1        0.1006
      8 C          -5.1670    1.8330    0.0000 C.ar    1  LIG1        0.0223
      9 C          -4.2960    2.3420    0.0000 C.ar    1  LIG1        0.0238
     10 C          -0.8920    1.3290    0.0000 C.3     1  LIG1        0.0739
     11 C          -0.3960    0.4580    0.0000 C.3     1  LIG1        0.0951
     12 C           0.6170    0.4580    0.0000 C.2     1  LIG1        0.2460
     13 N           1.1170   -0.4000    0.0000 N.am    1  LIG1       -0.1791
     14 C           2.1130   -0.3920    0.0000 C.ar    1  LIG1        0.0766
     15 C           2.5960    0.4710    0.0000 C.ar    1  LIG1        0.0568
     16 C           3.5920    0.4830    0.0000 C.ar    1  LIG1        0.1777
     17 C           4.1040   -0.3580    0.0000 C.ar    1  LIG1        0.1765
     18 O           5.0710   -0.1460    0.0000 O.3     1  LIG1       -0.4346
     19 C           5.1630    0.8460    0.0000 C.3     1  LIG1        0.4294
     20 O           4.2420    1.2420    0.0000 O.3     1  LIG1       -0.4346
     21 C           3.6170   -1.2380    0.0000 C.ar    1  LIG1        0.0415
     22 C           2.6210   -1.2500    0.0000 C.ar    1  LIG1        0.0199
     23 O           1.1170    1.3290    0.0000 O.2     1  LIG1       -0.2730
     24 C          -2.1750   -0.4290    0.0000 C.ar    1  LIG1        0.0664
     25 C          -2.8540   -1.1710    0.0000 C.ar    1  LIG1        0.0176
     26 C          -2.5540   -2.1250    0.0000 C.ar    1  LIG1        0.0015
     27 C          -1.5710   -2.3380    0.0000 C.ar    1  LIG1        0.0001
     28 C          -0.8920   -1.5960    0.0000 C.ar    1  LIG1        0.0015
     29 C          -1.1960   -0.6380    0.0000 C.ar    1  LIG1        0.0176
@<TRIPOS>BOND
     1     1     2   ar
     2     1     5   ar
     3     1    24    1
     4     2     3   ar
     5     2    10    1
     6     3     4   ar
     7     4     5   ar
     8     4     9   ar
     9     5     6   ar
    10     6     7   ar
    11     7     8   ar
    12     8     9   ar
    13    10    11    1
    14    11    12    1
    15    12    13   am
    16    12    23    2
    17    13    14    1
    18    14    15   ar
    19    14    22   ar
    20    15    16   ar
    21    16    17   ar
    22    16    20    1
    23    17    18    1
    24    17    21   ar
    25    18    19    1
    26    19    20    1
    27    21    22   ar
    28    24    25   ar
    29    24    29   ar
    30    25    26   ar
    31    26    27   ar
    32    27    28   ar
    33    28    29   ar
