@<TRIPOS>MOLECULE
37688_ChemDiv_C647-0110
 37 41 0 0 0
SMALL
GASTEIGER
Energy = 0

@<TRIPOS>ATOM
      1 C          -0.5460    2.2500    0.0000 C.ar    1  LIG1        0.0950
      2 C          -1.4380    2.7380    0.0000 C.ar    1  LIG1        0.2016
      3 C          -2.3170    2.2500    0.0000 C.ar    1  LIG1        0.0581
      4 C          -2.3330    1.2500    0.0000 C.ar    1  LIG1        0.0666
      5 N          -1.4380    0.7670    0.0000 N.ar    1  LIG1       -0.3174
      6 C          -0.5460    1.2500    0.0000 C.ar    1  LIG1        0.0827
      7 C          -1.4380   -0.2330    0.0000 C.3     1  LIG1        0.1939
      8 C          -0.5750   -0.7330    0.0000 C.2     1  LIG1        0.2686
      9 N          -0.5750   -1.7330    0.0000 N.am    1  LIG1       -0.1776
     10 C           0.3040   -2.2330    0.0000 C.ar    1  LIG1        0.0736
     11 C           0.2880   -3.2290    0.0000 C.ar    1  LIG1        0.0197
     12 C           1.1670   -3.7290    0.0000 C.ar    1  LIG1        0.0382
     13 C           2.0290   -3.2290    0.0000 C.ar    1  LIG1        0.1388
     14 C           2.0170   -2.2250    0.0000 C.ar    1  LIG1        0.0382
     15 C           1.1500   -1.7330    0.0000 C.ar    1  LIG1        0.0197
     16 O           2.8920   -3.7250    0.0000 O.3     1  LIG1       -0.4714
     17 C           3.7580   -3.2170    0.0000 C.3     1  LIG1        0.2525
     18 O           0.2880   -0.2330    0.0000 O.2     1  LIG1       -0.2709
     19 C          -3.2080    0.7830    0.0000 C.ar    1  LIG1        0.0575
     20 C          -4.1040    1.2670    0.0000 C.ar    1  LIG1        0.1779
     21 C          -4.0880    2.2500    0.0000 C.ar    1  LIG1        0.1766
     22 C          -3.2080    2.7380    0.0000 C.ar    1  LIG1        0.0448
     23 O          -5.0290    2.5580    0.0000 O.3     1  LIG1       -0.4346
     24 C          -5.6080    1.7670    0.0000 C.3     1  LIG1        0.4294
     25 O          -5.0330    0.9630    0.0000 O.3     1  LIG1       -0.4346
     26 O          -1.4380    3.7330    0.0000 O.2     1  LIG1       -0.2864
     27 C           0.3330    2.7380    0.0000 C.2     1  LIG1        0.2001
     28 C           1.2130    2.2500    0.0000 C.ar    1  LIG1        0.0393
     29 C           1.1960    1.2670    0.0000 C.ar    1  LIG1        0.0063
     30 C           2.0750    0.7830    0.0000 C.ar    1  LIG1        0.0370
     31 C           2.9710    1.2500    0.0000 C.ar    1  LIG1        0.1386
     32 C           2.9710    2.2500    0.0000 C.ar    1  LIG1        0.0370
     33 C           2.0920    2.7380    0.0000 C.ar    1  LIG1        0.0063
     34 O           3.8330    0.7670    0.0000 O.3     1  LIG1       -0.4755
     35 C           4.7250    1.2500    0.0000 C.3     1  LIG1        0.2055
     36 C           5.6040    0.7670    0.0000 C.3     1  LIG1        0.0512
     37 O           0.3330    3.7210    0.0000 O.2     1  LIG1       -0.2864
@<TRIPOS>BOND
     1     1     2   ar
     2     1     6   ar
     3     1    27    1
     4     2     3   ar
     5     2    26    2
     6     3     4   ar
     7     3    22   ar
     8     4     5   ar
     9     4    19   ar
    10     5     6   ar
    11     5     7    1
    12     7     8    1
    13     8     9   am
    14     8    18    2
    15     9    10    1
    16    10    11   ar
    17    10    15   ar
    18    11    12   ar
    19    12    13   ar
    20    13    14   ar
    21    13    16    1
    22    14    15   ar
    23    16    17    1
    24    19    20   ar
    25    20    21   ar
    26    20    25    1
    27    21    22   ar
    28    21    23    1
    29    23    24    1
    30    24    25    1
    31    27    28    1
    32    27    37    2
    33    28    29   ar
    34    28    33   ar
    35    29    30   ar
    36    30    31   ar
    37    31    32   ar
    38    31    34    1
    39    32    33   ar
    40    34    35    1
    41    35    36    1
