@<TRIPOS>MOLECULE
37681_ChemDiv_C614-6014
 29 32 0 0 0
SMALL
GASTEIGER
Energy = 0

@<TRIPOS>ATOM
      1 N          -2.6960    0.7920    0.0000 N.ar    1  LIG1       -0.2961
      2 C          -2.1000    1.6080    0.0000 C.ar    1  LIG1        0.1222
      3 N          -2.6960    2.4130    0.0000 N.ar    1  LIG1       -0.2293
      4 C          -3.6500    2.1040    0.0000 C.ar    1  LIG1        0.1167
      5 C          -3.6500    1.1000    0.0000 C.ar    1  LIG1        0.1627
      6 N          -4.5130    0.5960    0.0000 N.ar    1  LIG1       -0.2252
      7 C          -5.3830    1.0960    0.0000 C.ar    1  LIG1        0.1006
      8 C          -5.3830    2.0960    0.0000 C.ar    1  LIG1        0.0223
      9 C          -4.5130    2.6040    0.0000 C.ar    1  LIG1        0.0238
     10 C          -1.0960    1.6080    0.0000 C.3     1  LIG1        0.0736
     11 C          -0.6000    0.7380    0.0000 C.3     1  LIG1        0.0951
     12 C           0.3960    0.7380    0.0000 C.2     1  LIG1        0.2460
     13 N           0.8960   -0.1290    0.0000 N.am    1  LIG1       -0.1792
     14 C           1.8920   -0.1290    0.0000 C.ar    1  LIG1        0.0733
     15 C           2.3920   -0.9880    0.0000 C.ar    1  LIG1        0.0163
     16 C           3.3880   -0.9880    0.0000 C.ar    1  LIG1       -0.0029
     17 C           3.8830   -0.1290    0.0000 C.ar    1  LIG1       -0.0221
     18 C           3.3830    0.7380    0.0000 C.ar    1  LIG1       -0.0029
     19 C           2.3880    0.7330    0.0000 C.ar    1  LIG1        0.0163
     20 C           4.8830   -0.1290    0.0000 C.3     1  LIG1        0.0264
     21 C           5.3790   -0.9880    0.0000 C.3     1  LIG1        0.0050
     22 O           0.9040    1.6080    0.0000 O.2     1  LIG1       -0.2730
     23 C          -2.3790   -0.1580    0.0000 C.3     1  LIG1        0.1353
     24 C          -3.0500   -0.9080    0.0000 C.ar    1  LIG1        0.0005
     25 C          -4.0250   -0.7040    0.0000 C.ar    1  LIG1       -0.0024
     26 C          -4.6880   -1.4420    0.0000 C.ar    1  LIG1       -0.0003
     27 C          -4.3790   -2.3920    0.0000 C.ar    1  LIG1       -0.0000
     28 C          -3.3920   -2.6000    0.0000 C.ar    1  LIG1       -0.0003
     29 C          -2.7330   -1.8500    0.0000 C.ar    1  LIG1       -0.0024
@<TRIPOS>BOND
     1     1     2   ar
     2     1     5   ar
     3     1    23    1
     4     2     3   ar
     5     2    10    1
     6     3     4   ar
     7     4     5   ar
     8     4     9   ar
     9     5     6   ar
    10     6     7   ar
    11     7     8   ar
    12     8     9   ar
    13    10    11    1
    14    11    12    1
    15    12    13   am
    16    12    22    2
    17    13    14    1
    18    14    15   ar
    19    14    19   ar
    20    15    16   ar
    21    16    17   ar
    22    17    18   ar
    23    17    20    1
    24    18    19   ar
    25    20    21    1
    26    23    24    1
    27    24    25   ar
    28    24    29   ar
    29    25    26   ar
    30    26    27   ar
    31    27    28   ar
    32    28    29   ar
