@<TRIPOS>MOLECULE
37693_ChemDiv_C614-6275
 31 35 0 0 0
SMALL
GASTEIGER
Energy = 0

@<TRIPOS>ATOM
      1 N          -1.9710    1.7170    0.0000 N.ar    1  LIG1       -0.2789
      2 C          -1.3710    2.5210    0.0000 C.ar    1  LIG1        0.1258
      3 N          -1.9710    3.3250    0.0000 N.ar    1  LIG1       -0.2290
      4 C          -2.9330    3.0210    0.0000 C.ar    1  LIG1        0.1170
      5 C          -2.9330    2.0210    0.0000 C.ar    1  LIG1        0.1663
      6 N          -3.8170    1.5250    0.0000 N.ar    1  LIG1       -0.2248
      7 C          -4.6960    2.0210    0.0000 C.ar    1  LIG1        0.1006
      8 C          -4.6960    3.0130    0.0000 C.ar    1  LIG1        0.0223
      9 C          -3.8170    3.5210    0.0000 C.ar    1  LIG1        0.0238
     10 C          -0.3540    2.5210    0.0000 C.3     1  LIG1        0.0739
     11 C           0.1460    1.6710    0.0000 C.3     1  LIG1        0.0932
     12 C           1.1630    1.6710    0.0000 C.2     1  LIG1        0.2262
     13 N           1.6630    0.8040    0.0000 N.am    1  LIG1       -0.2760
     14 C           2.6630    0.8040    0.0000 C.3     1  LIG1        0.1149
     15 C           3.1630   -0.0420    0.0000 C.3     1  LIG1        0.1137
     16 N           2.6790   -0.9080    0.0000 N.pl3   1  LIG1       -0.2897
     17 C           3.1790   -1.7750    0.0000 C.ar    1  LIG1        0.1318
     18 N           2.6920   -2.6540    0.0000 N.ar    1  LIG1       -0.2292
     19 C           3.1960   -3.5170    0.0000 C.ar    1  LIG1        0.1003
     20 C           4.1960   -3.5040    0.0000 C.ar    1  LIG1        0.0208
     21 C           4.6920   -2.6380    0.0000 C.ar    1  LIG1        0.0045
     22 C           4.1790   -1.7750    0.0000 C.ar    1  LIG1        0.0343
     23 C           1.6750   -0.9250    0.0000 C.3     1  LIG1        0.1137
     24 C           1.1750   -0.0580    0.0000 C.3     1  LIG1        0.1149
     25 O           1.6750    2.5210    0.0000 O.2     1  LIG1       -0.2749
     26 C          -1.6630    0.7750    0.0000 C.ar    1  LIG1        0.0664
     27 C          -0.6920    0.5790    0.0000 C.ar    1  LIG1        0.0176
     28 C          -0.3880   -0.3630    0.0000 C.ar    1  LIG1        0.0015
     29 C          -1.0460   -1.1040    0.0000 C.ar    1  LIG1        0.0001
     30 C          -2.0170   -0.9040    0.0000 C.ar    1  LIG1        0.0015
     31 C          -2.3290    0.0380    0.0000 C.ar    1  LIG1        0.0176
@<TRIPOS>BOND
     1     1     2   ar
     2     1     5   ar
     3     1    26    1
     4     2     3   ar
     5     2    10    1
     6     3     4   ar
     7     4     5   ar
     8     4     9   ar
     9     5     6   ar
    10     6     7   ar
    11     7     8   ar
    12     8     9   ar
    13    10    11    1
    14    11    12    1
    15    12    13   am
    16    12    25    2
    17    13    14    1
    18    13    24    1
    19    14    15    1
    20    15    16    1
    21    16    17    1
    22    16    23    1
    23    17    18   ar
    24    17    22   ar
    25    18    19   ar
    26    19    20   ar
    27    20    21   ar
    28    21    22   ar
    29    23    24    1
    30    26    27   ar
    31    26    31   ar
    32    27    28   ar
    33    28    29   ar
    34    29    30   ar
    35    30    31   ar
