@<TRIPOS>MOLECULE
37691_ChemDiv_C614-6239
 31 34 0 0 0
SMALL
GASTEIGER
Energy = 0

@<TRIPOS>ATOM
      1 N          -2.7000    0.8380    0.0000 N.ar    1  LIG1       -0.2789
      2 C          -2.1130    1.6380    0.0000 C.ar    1  LIG1        0.1258
      3 N          -2.7000    2.4540    0.0000 N.ar    1  LIG1       -0.2290
      4 C          -3.6500    2.1500    0.0000 C.ar    1  LIG1        0.1170
      5 C          -3.6500    1.1460    0.0000 C.ar    1  LIG1        0.1663
      6 N          -4.5170    0.6420    0.0000 N.ar    1  LIG1       -0.2248
      7 C          -5.3880    1.1460    0.0000 C.ar    1  LIG1        0.1006
      8 C          -5.3880    2.1420    0.0000 C.ar    1  LIG1        0.0223
      9 C          -4.5170    2.6500    0.0000 C.ar    1  LIG1        0.0238
     10 C          -1.1130    1.6380    0.0000 C.3     1  LIG1        0.0739
     11 C          -0.6130    0.7670    0.0000 C.3     1  LIG1        0.0947
     12 C           0.4000    0.7670    0.0000 C.2     1  LIG1        0.2418
     13 N           0.8960   -0.0920    0.0000 N.am    1  LIG1       -0.2071
     14 C           1.8920   -0.0830    0.0000 C.3     1  LIG1        0.0987
     15 C           2.3920   -0.9380    0.0000 C.3     1  LIG1        0.0433
     16 C           3.3830   -0.9290    0.0000 C.3     1  LIG1        0.0985
     17 N           3.8710   -0.0670    0.0000 N.am    1  LIG1       -0.2459
     18 C           4.8710   -0.0540    0.0000 C.2     1  LIG1        0.4049
     19 O           5.3670    0.8080    0.0000 O.2     1  LIG1       -0.2262
     20 O           5.3790   -0.9130    0.0000 O.3     1  LIG1       -0.4345
     21 C           4.8830   -1.7830    0.0000 C.3     1  LIG1        0.2102
     22 C           5.3830   -2.6460    0.0000 C.3     1  LIG1        0.0513
     23 C           3.3670    0.7920    0.0000 C.3     1  LIG1        0.0985
     24 C           2.3710    0.7830    0.0000 C.3     1  LIG1        0.0433
     25 O           0.8960    1.6380    0.0000 O.2     1  LIG1       -0.2733
     26 C          -2.3960   -0.1250    0.0000 C.ar    1  LIG1        0.0664
     27 C          -1.4130   -0.3330    0.0000 C.ar    1  LIG1        0.0176
     28 C          -1.1130   -1.2920    0.0000 C.ar    1  LIG1        0.0015
     29 C          -1.7920   -2.0330    0.0000 C.ar    1  LIG1        0.0001
     30 C          -2.7750   -1.8210    0.0000 C.ar    1  LIG1        0.0015
     31 C          -3.0750   -0.8630    0.0000 C.ar    1  LIG1        0.0176
@<TRIPOS>BOND
     1     1     2   ar
     2     1     5   ar
     3     1    26    1
     4     2     3   ar
     5     2    10    1
     6     3     4   ar
     7     4     5   ar
     8     4     9   ar
     9     5     6   ar
    10     6     7   ar
    11     7     8   ar
    12     8     9   ar
    13    10    11    1
    14    11    12    1
    15    12    13   am
    16    12    25    2
    17    13    14    1
    18    14    15    1
    19    14    24    1
    20    15    16    1
    21    16    17    1
    22    17    18   am
    23    17    23    1
    24    18    19    2
    25    18    20    1
    26    20    21    1
    27    21    22    1
    28    23    24    1
    29    26    27   ar
    30    26    31   ar
    31    27    28   ar
    32    28    29   ar
    33    29    30   ar
    34    30    31   ar
