@<TRIPOS>MOLECULE
37697_ChemDiv_C614-6013
 29 32 0 0 0
SMALL
GASTEIGER
Energy = 0

@<TRIPOS>ATOM
      1 N          -1.9500    0.7920    0.0000 N.ar    1  LIG1       -0.2961
      2 C          -1.3580    1.6080    0.0000 C.ar    1  LIG1        0.1222
      3 N          -1.9500    2.4130    0.0000 N.ar    1  LIG1       -0.2293
      4 C          -2.9000    2.1080    0.0000 C.ar    1  LIG1        0.1167
      5 C          -2.9000    1.1000    0.0000 C.ar    1  LIG1        0.1627
      6 N          -3.7750    0.5960    0.0000 N.ar    1  LIG1       -0.2252
      7 C          -4.6380    1.0960    0.0000 C.ar    1  LIG1        0.1006
      8 C          -4.6380    2.0960    0.0000 C.ar    1  LIG1        0.0223
      9 C          -3.7750    2.6040    0.0000 C.ar    1  LIG1        0.0238
     10 C          -0.3540    1.6080    0.0000 C.3     1  LIG1        0.0736
     11 C           0.1460    0.7380    0.0000 C.3     1  LIG1        0.0951
     12 C           1.1500    0.7380    0.0000 C.2     1  LIG1        0.2460
     13 N           1.6420   -0.1290    0.0000 N.am    1  LIG1       -0.1791
     14 C           2.6460   -0.1290    0.0000 C.ar    1  LIG1        0.0764
     15 C           3.1250    0.7330    0.0000 C.ar    1  LIG1        0.0535
     16 C           4.1250    0.7380    0.0000 C.ar    1  LIG1        0.1400
     17 O           4.6210    1.6000    0.0000 O.3     1  LIG1       -0.4714
     18 C           4.1210    2.4580    0.0000 C.3     1  LIG1        0.2525
     19 C           4.6330   -0.1290    0.0000 C.ar    1  LIG1        0.0370
     20 C           4.1330   -0.9920    0.0000 C.ar    1  LIG1        0.0044
     21 C           3.1380   -0.9920    0.0000 C.ar    1  LIG1        0.0168
     22 O           1.6460    1.6080    0.0000 O.2     1  LIG1       -0.2730
     23 C          -1.6380   -0.1580    0.0000 C.3     1  LIG1        0.1353
     24 C          -2.3130   -0.9080    0.0000 C.ar    1  LIG1        0.0005
     25 C          -3.2830   -0.7040    0.0000 C.ar    1  LIG1       -0.0024
     26 C          -3.9420   -1.4420    0.0000 C.ar    1  LIG1       -0.0003
     27 C          -3.6420   -2.3960    0.0000 C.ar    1  LIG1       -0.0000
     28 C          -2.6500   -2.6000    0.0000 C.ar    1  LIG1       -0.0003
     29 C          -1.9920   -1.8500    0.0000 C.ar    1  LIG1       -0.0024
@<TRIPOS>BOND
     1     1     2   ar
     2     1     5   ar
     3     1    23    1
     4     2     3   ar
     5     2    10    1
     6     3     4   ar
     7     4     5   ar
     8     4     9   ar
     9     5     6   ar
    10     6     7   ar
    11     7     8   ar
    12     8     9   ar
    13    10    11    1
    14    11    12    1
    15    12    13   am
    16    12    22    2
    17    13    14    1
    18    14    15   ar
    19    14    21   ar
    20    15    16   ar
    21    16    17    1
    22    16    19   ar
    23    17    18    1
    24    19    20   ar
    25    20    21   ar
    26    23    24    1
    27    24    25   ar
    28    24    29   ar
    29    25    26   ar
    30    26    27   ar
    31    27    28   ar
    32    28    29   ar
