@<TRIPOS>MOLECULE
37699_ChemDiv_C614-0575
 28 31 0 0 0
SMALL
GASTEIGER
Energy = 0

@<TRIPOS>ATOM
      1 N          -0.8830    1.0580    0.0000 N.ar    1  LIG1       -0.2961
      2 C          -0.2920    1.8670    0.0000 C.ar    1  LIG1        0.1222
      3 N          -0.8830    2.6790    0.0000 N.ar    1  LIG1       -0.2293
      4 C          -1.8250    2.3670    0.0000 C.ar    1  LIG1        0.1167
      5 C          -1.8250    1.3670    0.0000 C.ar    1  LIG1        0.1627
      6 N          -2.7000    0.8630    0.0000 N.ar    1  LIG1       -0.2252
      7 C          -3.5630    1.3630    0.0000 C.ar    1  LIG1        0.1006
      8 C          -3.5630    2.3670    0.0000 C.ar    1  LIG1        0.0223
      9 C          -2.7000    2.8670    0.0000 C.ar    1  LIG1        0.0238
     10 C           0.7080    1.8670    0.0000 C.3     1  LIG1        0.0735
     11 C           1.2080    1.0040    0.0000 C.3     1  LIG1        0.0932
     12 C           2.2040    1.0040    0.0000 C.2     1  LIG1        0.2262
     13 N           2.7170    0.1420    0.0000 N.am    1  LIG1       -0.2744
     14 C           2.2170   -0.7210    0.0000 C.3     1  LIG1        0.1255
     15 C           2.7040   -1.5830    0.0000 C.3     1  LIG1        0.1636
     16 O           3.7130   -1.5920    0.0000 O.3     1  LIG1       -0.3501
     17 C           4.2130   -0.7210    0.0000 C.3     1  LIG1        0.1636
     18 C           3.7130    0.1500    0.0000 C.3     1  LIG1        0.1255
     19 O           2.7040    1.8750    0.0000 O.2     1  LIG1       -0.2749
     20 C          -0.5630    0.1040    0.0000 C.3     1  LIG1        0.1353
     21 C          -1.2380   -0.6380    0.0000 C.ar    1  LIG1        0.0007
     22 C          -0.9290   -1.5750    0.0000 C.ar    1  LIG1        0.0007
     23 C          -1.5960   -2.3170    0.0000 C.ar    1  LIG1        0.0366
     24 C          -2.5790   -2.1210    0.0000 C.ar    1  LIG1        0.1387
     25 C          -2.8790   -1.1670    0.0000 C.ar    1  LIG1        0.0366
     26 C          -2.2170   -0.4250    0.0000 C.ar    1  LIG1        0.0007
     27 O          -3.2460   -2.8630    0.0000 O.3     1  LIG1       -0.4714
     28 C          -4.2170   -2.6500    0.0000 C.3     1  LIG1        0.2525
@<TRIPOS>BOND
     1     1     2   ar
     2     1     5   ar
     3     1    20    1
     4     2     3   ar
     5     2    10    1
     6     3     4   ar
     7     4     5   ar
     8     4     9   ar
     9     5     6   ar
    10     6     7   ar
    11     7     8   ar
    12     8     9   ar
    13    10    11    1
    14    11    12    1
    15    12    13   am
    16    12    19    2
    17    13    14    1
    18    13    18    1
    19    14    15    1
    20    15    16    1
    21    16    17    1
    22    17    18    1
    23    20    21    1
    24    21    22   ar
    25    21    26   ar
    26    22    23   ar
    27    23    24   ar
    28    24    25   ar
    29    24    27    1
    30    25    26   ar
    31    27    28    1
