@<TRIPOS>MOLECULE
37695_ChemDiv_C614-6278
 26 29 0 0 0
SMALL
GASTEIGER
Energy = 0

@<TRIPOS>ATOM
      1 N          -1.2080    0.8540    0.0000 N.ar    1  LIG1       -0.2789
      2 C          -0.6040    1.6540    0.0000 C.ar    1  LIG1        0.1258
      3 N          -1.2080    2.4540    0.0000 N.ar    1  LIG1       -0.2290
      4 C          -2.1750    2.1540    0.0000 C.ar    1  LIG1        0.1170
      5 C          -2.1750    1.1580    0.0000 C.ar    1  LIG1        0.1663
      6 N          -3.0540    0.6580    0.0000 N.ar    1  LIG1       -0.2248
      7 C          -3.9420    1.1460    0.0000 C.ar    1  LIG1        0.1006
      8 C          -3.9420    2.1420    0.0000 C.ar    1  LIG1        0.0223
      9 C          -3.0540    2.6500    0.0000 C.ar    1  LIG1        0.0238
     10 C           0.4040    1.6540    0.0000 C.3     1  LIG1        0.0739
     11 C           0.9040    0.8000    0.0000 C.3     1  LIG1        0.0932
     12 C           1.9250    0.8000    0.0000 C.2     1  LIG1        0.2264
     13 N           2.4290   -0.0630    0.0000 N.am    1  LIG1       -0.2681
     14 C           3.4250   -0.0630    0.0000 C.3     1  LIG1        0.1564
     15 C           3.9210   -0.9130    0.0000 C.3     1  LIG1        0.1608
     16 N           3.4380   -1.7790    0.0000 N.4     1  LIG1        0.3847
     17 C           2.4420   -1.7880    0.0000 C.3     1  LIG1        0.1608
     18 C           1.9290   -0.9250    0.0000 C.3     1  LIG1        0.1564
     19 C           3.9380   -2.6460    0.0000 C.3     1  LIG1        0.2024
     20 O           2.4380    1.6540    0.0000 O.2     1  LIG1       -0.2749
     21 C          -0.8960   -0.0960    0.0000 C.ar    1  LIG1        0.0664
     22 C          -1.5630   -0.8290    0.0000 C.ar    1  LIG1        0.0176
     23 C          -1.2540   -1.7710    0.0000 C.ar    1  LIG1        0.0015
     24 C          -0.2880   -1.9790    0.0000 C.ar    1  LIG1        0.0001
     25 C           0.3750   -1.2290    0.0000 C.ar    1  LIG1        0.0015
     26 C           0.0670   -0.2920    0.0000 C.ar    1  LIG1        0.0176
@<TRIPOS>BOND
     1     1     2   ar
     2     1     5   ar
     3     1    21    1
     4     2     3   ar
     5     2    10    1
     6     3     4   ar
     7     4     5   ar
     8     4     9   ar
     9     5     6   ar
    10     6     7   ar
    11     7     8   ar
    12     8     9   ar
    13    10    11    1
    14    11    12    1
    15    12    13   am
    16    12    20    2
    17    13    14    1
    18    13    18    1
    19    14    15    1
    20    15    16    1
    21    16    17    1
    22    16    19    1
    23    17    18    1
    24    21    22   ar
    25    21    26   ar
    26    22    23   ar
    27    23    24   ar
    28    24    25   ar
    29    25    26   ar
