@<TRIPOS>MOLECULE
37692_ChemDiv_C647-0186
 36 40 0 0 0
SMALL
GASTEIGER
Energy = 0

@<TRIPOS>ATOM
      1 C           0.3380    2.2540    0.0000 C.ar    1  LIG1        0.0950
      2 C          -0.5580    2.7750    0.0000 C.ar    1  LIG1        0.2016
      3 C          -1.4170    2.2540    0.0000 C.ar    1  LIG1        0.0581
      4 C          -1.4420    1.2540    0.0000 C.ar    1  LIG1        0.0666
      5 N          -0.5580    0.7710    0.0000 N.ar    1  LIG1       -0.3174
      6 C           0.3380    1.2540    0.0000 C.ar    1  LIG1        0.0827
      7 C          -0.5580   -0.2250    0.0000 C.3     1  LIG1        0.1939
      8 C           0.3170   -0.7330    0.0000 C.2     1  LIG1        0.2686
      9 N           0.3170   -1.7380    0.0000 N.am    1  LIG1       -0.1776
     10 C           1.1830   -2.2330    0.0000 C.ar    1  LIG1        0.0736
     11 C           1.1830   -3.2290    0.0000 C.ar    1  LIG1        0.0197
     12 C           2.0540   -3.7380    0.0000 C.ar    1  LIG1        0.0382
     13 C           2.9170   -3.2290    0.0000 C.ar    1  LIG1        0.1386
     14 C           2.9130   -2.2290    0.0000 C.ar    1  LIG1        0.0382
     15 C           2.0420   -1.7380    0.0000 C.ar    1  LIG1        0.0197
     16 O           3.7790   -3.7290    0.0000 O.3     1  LIG1       -0.4755
     17 C           4.6380   -3.2250    0.0000 C.3     1  LIG1        0.2055
     18 C           4.6380   -2.2290    0.0000 C.3     1  LIG1        0.0512
     19 O           1.1830   -0.2250    0.0000 O.2     1  LIG1       -0.2709
     20 C          -2.3170    0.7710    0.0000 C.ar    1  LIG1        0.0575
     21 C          -3.1960    1.2670    0.0000 C.ar    1  LIG1        0.1779
     22 C          -3.1790    2.2540    0.0000 C.ar    1  LIG1        0.1766
     23 C          -2.3170    2.7460    0.0000 C.ar    1  LIG1        0.0448
     24 O          -4.1290    2.5670    0.0000 O.3     1  LIG1       -0.4346
     25 C          -4.7040    1.7710    0.0000 C.3     1  LIG1        0.4294
     26 O          -4.1290    0.9670    0.0000 O.3     1  LIG1       -0.4346
     27 O          -0.5580    3.7420    0.0000 O.2     1  LIG1       -0.2864
     28 C           1.2130    2.7460    0.0000 C.2     1  LIG1        0.2001
     29 C           2.0830    2.2540    0.0000 C.ar    1  LIG1        0.0391
     30 C           2.0670    1.2670    0.0000 C.ar    1  LIG1        0.0029
     31 C           2.9420    0.7710    0.0000 C.ar    1  LIG1       -0.0042
     32 C           3.8250    1.2540    0.0000 C.ar    1  LIG1       -0.0218
     33 C           3.8250    2.2540    0.0000 C.ar    1  LIG1       -0.0042
     34 C           2.9580    2.7460    0.0000 C.ar    1  LIG1        0.0029
     35 C           4.7000    0.7710    0.0000 C.3     1  LIG1        0.0310
     36 O           1.2130    3.7420    0.0000 O.2     1  LIG1       -0.2864
@<TRIPOS>BOND
     1     1     2   ar
     2     1     6   ar
     3     1    28    1
     4     2     3   ar
     5     2    27    2
     6     3     4   ar
     7     3    23   ar
     8     4     5   ar
     9     4    20   ar
    10     5     6   ar
    11     5     7    1
    12     7     8    1
    13     8     9   am
    14     8    19    2
    15     9    10    1
    16    10    11   ar
    17    10    15   ar
    18    11    12   ar
    19    12    13   ar
    20    13    14   ar
    21    13    16    1
    22    14    15   ar
    23    16    17    1
    24    17    18    1
    25    20    21   ar
    26    21    22   ar
    27    21    26    1
    28    22    23   ar
    29    22    24    1
    30    24    25    1
    31    25    26    1
    32    28    29    1
    33    28    36    2
    34    29    30   ar
    35    29    34   ar
    36    30    31   ar
    37    31    32   ar
    38    32    33   ar
    39    32    35    1
    40    33    34   ar
