@<TRIPOS>MOLECULE
37708_ChemDiv_C690-0010
 19 21 0 0 0
SMALL
GASTEIGER
Energy = 0

@<TRIPOS>ATOM
      1 C           1.7790   -0.3000    0.0000 C.ar    1  LIG1        0.0935
      2 C           1.0380   -0.9670    0.0000 C.ar    1  LIG1        0.0888
      3 N           1.4460   -1.8790    0.0000 N.ar    1  LIG1       -0.2280
      4 N           2.4420   -1.7790    0.0000 N.ar    1  LIG1       -0.1633
      5 C           2.6500   -0.8000    0.0000 C.ar    1  LIG1        0.1266
      6 C           0.8580   -2.6920    0.0000 C.ar    1  LIG1        0.1004
      7 C          -0.1380   -2.5880    0.0000 C.ar    1  LIG1        0.0207
      8 C          -0.5460   -1.6710    0.0000 C.ar    1  LIG1        0.0031
      9 C           0.0420   -0.8630    0.0000 C.ar    1  LIG1        0.0194
     10 C           1.6750    0.6960    0.0000 C.2     1  LIG1        0.2681
     11 N           0.8080    1.1920    0.0000 N.am    1  LIG1       -0.1967
     12 C          -0.0580    0.6960    0.0000 C.3     1  LIG1        0.1433
     13 C          -0.9250    1.1920    0.0000 C.ar    1  LIG1        0.0186
     14 C          -0.9250    2.1960    0.0000 C.ar    1  LIG1        0.0963
     15 N          -1.7880    2.6960    0.0000 N.ar    1  LIG1       -0.2426
     16 C          -2.6540    2.1960    0.0000 C.ar    1  LIG1        0.0989
     17 C          -2.6540    1.1920    0.0000 C.ar    1  LIG1        0.0204
     18 C          -1.7880    0.6960    0.0000 C.ar    1  LIG1        0.0006
     19 O           2.4880    1.2830    0.0000 O.2     1  LIG1       -0.2683
@<TRIPOS>BOND
     1     1     2   ar
     2     1     5   ar
     3     1    10    1
     4     2     3   ar
     5     2     9   ar
     6     3     4   ar
     7     3     6   ar
     8     4     5   ar
     9     6     7   ar
    10     7     8   ar
    11     8     9   ar
    12    10    11   am
    13    10    19    2
    14    11    12    1
    15    12    13    1
    16    13    14   ar
    17    13    18   ar
    18    14    15   ar
    19    15    16   ar
    20    16    17   ar
    21    17    18   ar
