@<TRIPOS>MOLECULE
37706_ChemDiv_C690-0006
 23 25 0 0 0
SMALL
GASTEIGER
Energy = 0

@<TRIPOS>ATOM
      1 C           3.0790    0.4080    0.0000 C.ar    1  LIG1        0.0935
      2 C           2.3330   -0.2630    0.0000 C.ar    1  LIG1        0.0888
      3 N           2.7460   -1.1750    0.0000 N.ar    1  LIG1       -0.2280
      4 N           3.7380   -1.0710    0.0000 N.ar    1  LIG1       -0.1633
      5 C           3.9460   -0.0920    0.0000 C.ar    1  LIG1        0.1266
      6 C           2.1580   -1.9830    0.0000 C.ar    1  LIG1        0.1004
      7 C           1.1630   -1.8830    0.0000 C.ar    1  LIG1        0.0207
      8 C           0.7540   -0.9670    0.0000 C.ar    1  LIG1        0.0031
      9 C           1.3420   -0.1540    0.0000 C.ar    1  LIG1        0.0194
     10 C           2.9750    1.4040    0.0000 C.2     1  LIG1        0.2678
     11 N           2.1080    1.9000    0.0000 N.am    1  LIG1       -0.2032
     12 C           1.2420    1.4040    0.0000 C.3     1  LIG1        0.0990
     13 C           1.2420    0.4000    0.0000 C.3     1  LIG1        0.0433
     14 C           0.3750   -0.1000    0.0000 C.3     1  LIG1        0.0985
     15 N          -0.4880    0.4000    0.0000 N.am    1  LIG1       -0.2459
     16 C          -1.3500   -0.1000    0.0000 C.2     1  LIG1        0.4049
     17 O          -1.3500   -1.0960    0.0000 O.2     1  LIG1       -0.2262
     18 O          -2.2210    0.4000    0.0000 O.3     1  LIG1       -0.4345
     19 C          -3.0880   -0.1000    0.0000 C.3     1  LIG1        0.2102
     20 C          -3.9500    0.4000    0.0000 C.3     1  LIG1        0.0513
     21 C          -0.4880    1.4040    0.0000 C.3     1  LIG1        0.0985
     22 C           0.3750    1.9000    0.0000 C.3     1  LIG1        0.0433
     23 O           3.7880    1.9880    0.0000 O.2     1  LIG1       -0.2683
@<TRIPOS>BOND
     1     1     2   ar
     2     1     5   ar
     3     1    10    1
     4     2     3   ar
     5     2     9   ar
     6     3     4   ar
     7     3     6   ar
     8     4     5   ar
     9     6     7   ar
    10     7     8   ar
    11     8     9   ar
    12    10    11   am
    13    10    23    2
    14    11    12    1
    15    12    13    1
    16    12    22    1
    17    13    14    1
    18    14    15    1
    19    15    16   am
    20    15    21    1
    21    16    17    2
    22    16    18    1
    23    18    19    1
    24    19    20    1
    25    21    22    1
