@<TRIPOS>MOLECULE
37704_ChemDiv_C688-1340
 31 35 0 0 0
SMALL
GASTEIGER
Energy = 0

@<TRIPOS>ATOM
      1 C          -1.1420    1.2790    0.0000 C.ar    1  LIG1        0.1019
      2 C          -1.1420    0.2830    0.0000 C.ar    1  LIG1        0.0754
      3 N          -0.2750   -0.2170    0.0000 N.ar    1  LIG1       -0.2713
      4 C           0.5920    0.2830    0.0000 C.ar    1  LIG1        0.3381
      5 N           0.5920    1.2790    0.0000 N.ar    1  LIG1       -0.2268
      6 C          -0.2750    1.7790    0.0000 C.ar    1  LIG1        0.2755
      7 O          -0.2750    2.7790    0.0000 O.2     1  LIG1       -0.2659
      8 C           1.4540    1.7790    0.0000 C.ar    1  LIG1        0.0713
      9 C           1.4540    2.7830    0.0000 C.ar    1  LIG1        0.0209
     10 C           2.3170    3.2830    0.0000 C.ar    1  LIG1        0.0384
     11 C           3.1880    2.7830    0.0000 C.ar    1  LIG1        0.1388
     12 C           3.1880    1.7790    0.0000 C.ar    1  LIG1        0.0384
     13 C           2.3210    1.2790    0.0000 C.ar    1  LIG1        0.0209
     14 O           4.0670    3.2880    0.0000 O.3     1  LIG1       -0.4714
     15 C           4.0710    4.2920    0.0000 C.3     1  LIG1        0.2525
     16 O           1.4630   -0.2290    0.0000 O.2     1  LIG1       -0.2458
     17 C          -0.2750   -1.2170    0.0000 C.3     1  LIG1        0.1955
     18 C           0.5880   -1.7170    0.0000 C.2     1  LIG1        0.2489
     19 N           0.5880   -2.7210    0.0000 N.am    1  LIG1       -0.2780
     20 C           1.3330   -3.3960    0.0000 C.3     1  LIG1        0.0935
     21 C           0.9290   -4.2920    0.0000 C.3     1  LIG1        0.0233
     22 C          -0.0670   -4.1960    0.0000 C.3     1  LIG1        0.0233
     23 C          -0.2750   -3.2210    0.0000 C.3     1  LIG1        0.0935
     24 O           1.4500   -1.2170    0.0000 O.2     1  LIG1       -0.2728
     25 C          -2.0880   -0.0250    0.0000 C.ar    1  LIG1        0.0226
     26 C          -2.6750    0.7750    0.0000 C.ar    1  LIG1        0.0310
     27 S          -2.0880    1.5880    0.0000 S.2     1  LIG1       -0.0807
     28 C          -3.6670    0.6710    0.0000 C.ar    1  LIG1        0.0065
     29 C          -4.0750   -0.2420    0.0000 C.ar    1  LIG1        0.0005
     30 C          -3.4920   -1.0460    0.0000 C.ar    1  LIG1        0.0001
     31 C          -2.4960   -0.9380    0.0000 C.ar    1  LIG1        0.0020
@<TRIPOS>BOND
     1     1     2   ar
     2     1     6   ar
     3     1    27   ar
     4     2     3   ar
     5     2    25   ar
     6     3     4   ar
     7     3    17    1
     8     4     5   ar
     9     4    16    2
    10     5     6   ar
    11     5     8    1
    12     6     7    2
    13     8     9   ar
    14     8    13   ar
    15     9    10   ar
    16    10    11   ar
    17    11    12   ar
    18    11    14    1
    19    12    13   ar
    20    14    15    1
    21    17    18    1
    22    18    19   am
    23    18    24    2
    24    19    20    1
    25    19    23    1
    26    20    21    1
    27    21    22    1
    28    22    23    1
    29    25    26   ar
    30    25    31   ar
    31    26    27   ar
    32    26    28   ar
    33    28    29   ar
    34    29    30   ar
    35    30    31   ar
