@<TRIPOS>MOLECULE
37701_ChemDiv_C614-0582
 31 34 0 0 0
SMALL
GASTEIGER
Energy = 0

@<TRIPOS>ATOM
      1 N          -2.1130    1.0580    0.0000 N.ar    1  LIG1       -0.2961
      2 C          -1.5210    1.8670    0.0000 C.ar    1  LIG1        0.1222
      3 N          -2.1130    2.6790    0.0000 N.ar    1  LIG1       -0.2293
      4 C          -3.0630    2.3670    0.0000 C.ar    1  LIG1        0.1167
      5 C          -3.0630    1.3670    0.0000 C.ar    1  LIG1        0.1627
      6 N          -3.9290    0.8630    0.0000 N.ar    1  LIG1       -0.2252
      7 C          -4.7920    1.3630    0.0000 C.ar    1  LIG1        0.1006
      8 C          -4.7920    2.3670    0.0000 C.ar    1  LIG1        0.0223
      9 C          -3.9290    2.8670    0.0000 C.ar    1  LIG1        0.0238
     10 C          -0.5210    1.8670    0.0000 C.3     1  LIG1        0.0736
     11 C          -0.0210    1.0040    0.0000 C.3     1  LIG1        0.0951
     12 C           0.9790    1.0040    0.0000 C.2     1  LIG1        0.2460
     13 N           1.4830    0.1420    0.0000 N.am    1  LIG1       -0.1792
     14 C           2.4830    0.1500    0.0000 C.ar    1  LIG1        0.0739
     15 C           2.9670    1.0130    0.0000 C.ar    1  LIG1        0.0227
     16 C           3.9670    1.0290    0.0000 C.ar    1  LIG1        0.0265
     17 S           4.4500    1.9080    0.0000 S.3     1  LIG1       -0.1127
     18 C           5.4500    1.9130    0.0000 C.3     1  LIG1        0.0742
     19 C           4.4790    0.1670    0.0000 C.ar    1  LIG1        0.0062
     20 C           3.9790   -0.7080    0.0000 C.ar    1  LIG1        0.0018
     21 C           2.9790   -0.7130    0.0000 C.ar    1  LIG1        0.0166
     22 O           1.4750    1.8790    0.0000 O.2     1  LIG1       -0.2730
     23 C          -1.8040    0.1040    0.0000 C.3     1  LIG1        0.1353
     24 C          -2.4710   -0.6380    0.0000 C.ar    1  LIG1        0.0007
     25 C          -3.4460   -0.4250    0.0000 C.ar    1  LIG1        0.0007
     26 C          -4.1210   -1.1670    0.0000 C.ar    1  LIG1        0.0366
     27 C          -3.8080   -2.1210    0.0000 C.ar    1  LIG1        0.1387
     28 C          -2.8250   -2.3170    0.0000 C.ar    1  LIG1        0.0366
     29 C          -2.1580   -1.5750    0.0000 C.ar    1  LIG1        0.0007
     30 O          -4.4830   -2.8630    0.0000 O.3     1  LIG1       -0.4714
     31 C          -5.4540   -2.6500    0.0000 C.3     1  LIG1        0.2525
@<TRIPOS>BOND
     1     1     2   ar
     2     1     5   ar
     3     1    23    1
     4     2     3   ar
     5     2    10    1
     6     3     4   ar
     7     4     5   ar
     8     4     9   ar
     9     5     6   ar
    10     6     7   ar
    11     7     8   ar
    12     8     9   ar
    13    10    11    1
    14    11    12    1
    15    12    13   am
    16    12    22    2
    17    13    14    1
    18    14    15   ar
    19    14    21   ar
    20    15    16   ar
    21    16    17    1
    22    16    19   ar
    23    17    18    1
    24    19    20   ar
    25    20    21   ar
    26    23    24    1
    27    24    25   ar
    28    24    29   ar
    29    25    26   ar
    30    26    27   ar
    31    27    28   ar
    32    27    30    1
    33    28    29   ar
    34    30    31    1
