@<TRIPOS>MOLECULE
37712_ChemDiv_C690-0033
 18 20 0 0 0
SMALL
GASTEIGER
Energy = 0

@<TRIPOS>ATOM
      1 C           1.7040   -0.1500    0.0000 C.ar    1  LIG1        0.0935
      2 C           0.9630   -0.8170    0.0000 C.ar    1  LIG1        0.0888
      3 N           1.3710   -1.7330    0.0000 N.ar    1  LIG1       -0.2280
      4 N           2.3670   -1.6290    0.0000 N.ar    1  LIG1       -0.1633
      5 C           2.5750   -0.6500    0.0000 C.ar    1  LIG1        0.1266
      6 C           0.7830   -2.5420    0.0000 C.ar    1  LIG1        0.1004
      7 C          -0.2080   -2.4380    0.0000 C.ar    1  LIG1        0.0207
      8 C          -0.6210   -1.5250    0.0000 C.ar    1  LIG1        0.0031
      9 C          -0.0330   -0.7130    0.0000 C.ar    1  LIG1        0.0194
     10 C           1.6040    0.8460    0.0000 C.2     1  LIG1        0.2682
     11 N           0.7330    1.3420    0.0000 N.am    1  LIG1       -0.1933
     12 C          -0.1290    0.8460    0.0000 C.3     1  LIG1        0.1794
     13 C          -1.0000    1.3420    0.0000 C.ar    1  LIG1        0.1449
     14 O          -1.9080    0.9380    0.0000 O.2     1  LIG1       -0.4529
     15 C          -2.5790    1.6830    0.0000 C.ar    1  LIG1        0.1792
     16 C          -2.0790    2.5460    0.0000 C.ar    1  LIG1        0.0435
     17 C          -1.1040    2.3380    0.0000 C.ar    1  LIG1        0.0380
     18 O           2.4130    1.4330    0.0000 O.2     1  LIG1       -0.2682
@<TRIPOS>BOND
     1     1     2   ar
     2     1     5   ar
     3     1    10    1
     4     2     3   ar
     5     2     9   ar
     6     3     4   ar
     7     3     6   ar
     8     4     5   ar
     9     6     7   ar
    10     7     8   ar
    11     8     9   ar
    12    10    11   am
    13    10    18    2
    14    11    12    1
    15    12    13    1
    16    13    14   ar
    17    13    17   ar
    18    14    15   ar
    19    15    16   ar
    20    16    17   ar
