@<TRIPOS>MOLECULE
37713_ChemDiv_C614-6285
 31 35 0 0 0
SMALL
GASTEIGER
Energy = 0

@<TRIPOS>ATOM
      1 N          -1.9500    1.7170    0.0000 N.ar    1  LIG1       -0.2789
      2 C          -1.3500    2.5210    0.0000 C.ar    1  LIG1        0.1258
      3 N          -1.9500    3.3170    0.0000 N.ar    1  LIG1       -0.2290
      4 C          -2.9130    3.0130    0.0000 C.ar    1  LIG1        0.1170
      5 C          -2.9130    2.0210    0.0000 C.ar    1  LIG1        0.1663
      6 N          -3.8000    1.5210    0.0000 N.ar    1  LIG1       -0.2248
      7 C          -4.6790    2.0130    0.0000 C.ar    1  LIG1        0.1006
      8 C          -4.6790    3.0130    0.0000 C.ar    1  LIG1        0.0223
      9 C          -3.8000    3.5130    0.0000 C.ar    1  LIG1        0.0238
     10 C          -0.3330    2.5210    0.0000 C.3     1  LIG1        0.0739
     11 C           0.1670    1.6630    0.0000 C.3     1  LIG1        0.0932
     12 C           1.1830    1.6630    0.0000 C.2     1  LIG1        0.2263
     13 N           1.6830    0.8080    0.0000 N.am    1  LIG1       -0.2751
     14 C           2.6750    0.8130    0.0000 C.3     1  LIG1        0.1195
     15 C           3.1750   -0.0500    0.0000 C.2     1  LIG1       -0.0089
     16 C           2.6750   -0.9170    0.0000 C.2     1  LIG1       -0.0231
     17 C           1.6830   -0.9170    0.0000 C.3     1  LIG1        0.0476
     18 C           1.1880   -0.0540    0.0000 C.3     1  LIG1        0.0984
     19 C           3.1880   -1.7790    0.0000 C.ar    1  LIG1       -0.0042
     20 C           2.6750   -2.6460    0.0000 C.ar    1  LIG1       -0.0003
     21 C           3.1750   -3.5080    0.0000 C.ar    1  LIG1       -0.0000
     22 C           4.1880   -3.5080    0.0000 C.ar    1  LIG1       -0.0000
     23 C           4.6750   -2.6330    0.0000 C.ar    1  LIG1       -0.0000
     24 C           4.1750   -1.7710    0.0000 C.ar    1  LIG1       -0.0003
     25 O           1.6880    2.5210    0.0000 O.2     1  LIG1       -0.2748
     26 C          -1.6380    0.7670    0.0000 C.ar    1  LIG1        0.0664
     27 C          -2.3040    0.0330    0.0000 C.ar    1  LIG1        0.0176
     28 C          -1.9960   -0.9040    0.0000 C.ar    1  LIG1        0.0015
     29 C          -1.0250   -1.1130    0.0000 C.ar    1  LIG1        0.0001
     30 C          -0.3630   -0.3580    0.0000 C.ar    1  LIG1        0.0015
     31 C          -0.6750    0.5710    0.0000 C.ar    1  LIG1        0.0176
@<TRIPOS>BOND
     1     1     2   ar
     2     1     5   ar
     3     1    26    1
     4     2     3   ar
     5     2    10    1
     6     3     4   ar
     7     4     5   ar
     8     4     9   ar
     9     5     6   ar
    10     6     7   ar
    11     7     8   ar
    12     8     9   ar
    13    10    11    1
    14    11    12    1
    15    12    13   am
    16    12    25    2
    17    13    14    1
    18    13    18    1
    19    14    15    1
    20    15    16    2
    21    16    17    1
    22    16    19    1
    23    17    18    1
    24    19    20   ar
    25    19    24   ar
    26    20    21   ar
    27    21    22   ar
    28    22    23   ar
    29    23    24   ar
    30    26    27   ar
    31    26    31   ar
    32    27    28   ar
    33    28    29   ar
    34    29    30   ar
    35    30    31   ar
