@<TRIPOS>MOLECULE
37710_ChemDiv_C690-0030
 22 24 0 0 0
SMALL
GASTEIGER
Energy = 0

@<TRIPOS>ATOM
      1 C           1.7790   -1.5500    0.0000 C.ar    1  LIG1        0.0921
      2 C           1.0380   -2.2170    0.0000 C.ar    1  LIG1        0.0888
      3 N           1.4460   -3.1290    0.0000 N.ar    1  LIG1       -0.2280
      4 N           2.4380   -3.0250    0.0000 N.ar    1  LIG1       -0.1633
      5 C           2.6460   -2.0460    0.0000 C.ar    1  LIG1        0.1265
      6 C           0.8580   -3.9420    0.0000 C.ar    1  LIG1        0.1004
      7 C          -0.1380   -3.8380    0.0000 C.ar    1  LIG1        0.0207
      8 C          -0.5460   -2.9210    0.0000 C.ar    1  LIG1        0.0031
      9 C           0.0420   -2.1130    0.0000 C.ar    1  LIG1        0.0194
     10 C           1.6750   -0.5540    0.0000 C.2     1  LIG1        0.2522
     11 N           0.8080   -0.0580    0.0000 N.am    1  LIG1       -0.2725
     12 C          -0.0580   -0.5540    0.0000 C.3     1  LIG1        0.1153
     13 C          -0.9250   -0.0580    0.0000 C.3     1  LIG1        0.1182
     14 N          -0.9250    0.9460    0.0000 N.am    1  LIG1       -0.2425
     15 C          -1.7880    1.4460    0.0000 C.2     1  LIG1        0.4050
     16 O          -2.6500    0.9460    0.0000 O.2     1  LIG1       -0.2262
     17 O          -1.7880    2.4420    0.0000 O.3     1  LIG1       -0.4345
     18 C          -2.6500    2.9420    0.0000 C.3     1  LIG1        0.2102
     19 C          -2.6500    3.9460    0.0000 C.3     1  LIG1        0.0513
     20 C          -0.0580    1.4460    0.0000 C.3     1  LIG1        0.1182
     21 C           0.8080    0.9460    0.0000 C.3     1  LIG1        0.1153
     22 O           2.4880    0.0330    0.0000 O.2     1  LIG1       -0.2698
@<TRIPOS>BOND
     1     1     2   ar
     2     1     5   ar
     3     1    10    1
     4     2     3   ar
     5     2     9   ar
     6     3     4   ar
     7     3     6   ar
     8     4     5   ar
     9     6     7   ar
    10     7     8   ar
    11     8     9   ar
    12    10    11   am
    13    10    22    2
    14    11    12    1
    15    11    21    1
    16    12    13    1
    17    13    14    1
    18    14    15   am
    19    14    20    1
    20    15    16    2
    21    15    17    1
    22    17    18    1
    23    18    19    1
    24    20    21    1
