@<TRIPOS>MOLECULE
37717_ChemDiv_E760-0075
 21 23 0 0 0
SMALL
GASTEIGER
Energy = 0

@<TRIPOS>ATOM
      1 N          -0.3290    2.0080    0.0000 N.ar    1  LIG1       -0.2730
      2 C           0.2420    2.7880    0.0000 C.ar    1  LIG1        0.1839
      3 N          -0.3290    3.6000    0.0000 N.ar    1  LIG1       -0.2220
      4 C          -1.2880    3.3000    0.0000 C.ar    1  LIG1        0.1174
      5 C          -1.2880    2.3080    0.0000 C.ar    1  LIG1        0.1666
      6 N          -2.1380    1.8000    0.0000 N.ar    1  LIG1       -0.2248
      7 C          -3.0080    2.3080    0.0000 C.ar    1  LIG1        0.1006
      8 C          -3.0080    3.3000    0.0000 C.ar    1  LIG1        0.0223
      9 C          -2.1380    3.8080    0.0000 C.ar    1  LIG1        0.0238
     10 C          -0.0580    1.0290    0.0000 C.ar    1  LIG1        0.0668
     11 C           0.9330    0.7880    0.0000 C.ar    1  LIG1        0.0178
     12 C           1.2250   -0.1710    0.0000 C.ar    1  LIG1        0.0061
     13 C           0.5330   -0.9040    0.0000 C.ar    1  LIG1        0.0551
     14 C           0.8130   -1.8830    0.0000 C.2     1  LIG1        0.2647
     15 N           1.7750   -2.1250    0.0000 N.am    1  LIG1       -0.2034
     16 C           2.0460   -3.0830    0.0000 C.3     1  LIG1        0.0957
     17 C           3.0040   -3.3040    0.0000 C.3     1  LIG1        0.0234
     18 C           1.3540   -3.8040    0.0000 C.3     1  LIG1        0.0234
     19 O           0.1250   -2.6040    0.0000 O.2     1  LIG1       -0.2684
     20 C          -0.4580   -0.6330    0.0000 C.ar    1  LIG1        0.0061
     21 C          -0.7460    0.3080    0.0000 C.ar    1  LIG1        0.0178
@<TRIPOS>BOND
     1     1     2   ar
     2     1     5   ar
     3     1    10    1
     4     2     3   ar
     5     3     4   ar
     6     4     5   ar
     7     4     9   ar
     8     5     6   ar
     9     6     7   ar
    10     7     8   ar
    11     8     9   ar
    12    10    11   ar
    13    10    21   ar
    14    11    12   ar
    15    12    13   ar
    16    13    14    1
    17    13    20   ar
    18    14    15   am
    19    14    19    2
    20    15    16    1
    21    16    17    1
    22    16    18    1
    23    20    21   ar
