@<TRIPOS>MOLECULE
37714_ChemDiv_C647-0230
 37 41 0 0 0
SMALL
GASTEIGER
Energy = 0

@<TRIPOS>ATOM
      1 C          -0.5420    2.2500    0.0000 C.ar    1  LIG1        0.0950
      2 C          -1.4330    2.7380    0.0000 C.ar    1  LIG1        0.2016
      3 C          -2.3130    2.2500    0.0000 C.ar    1  LIG1        0.0581
      4 C          -2.3330    1.2500    0.0000 C.ar    1  LIG1        0.0666
      5 N          -1.4330    0.7670    0.0000 N.ar    1  LIG1       -0.3174
      6 C          -0.5420    1.2500    0.0000 C.ar    1  LIG1        0.0827
      7 C          -1.4330   -0.2330    0.0000 C.3     1  LIG1        0.1939
      8 C          -0.5710   -0.7330    0.0000 C.2     1  LIG1        0.2686
      9 N          -0.5710   -1.7330    0.0000 N.am    1  LIG1       -0.1775
     10 C           0.3040   -2.2330    0.0000 C.ar    1  LIG1        0.0764
     11 C           1.1580   -1.7330    0.0000 C.ar    1  LIG1        0.0535
     12 C           2.0210   -2.2330    0.0000 C.ar    1  LIG1        0.1400
     13 O           2.8670   -1.7290    0.0000 O.3     1  LIG1       -0.4714
     14 C           2.8670   -0.7290    0.0000 C.3     1  LIG1        0.2525
     15 C           2.0290   -3.2330    0.0000 C.ar    1  LIG1        0.0370
     16 C           1.1670   -3.7330    0.0000 C.ar    1  LIG1        0.0044
     17 C           0.2920   -3.2330    0.0000 C.ar    1  LIG1        0.0168
     18 O           0.2920   -0.2330    0.0000 O.2     1  LIG1       -0.2709
     19 C          -3.2080    0.7830    0.0000 C.ar    1  LIG1        0.0575
     20 C          -4.1000    1.2670    0.0000 C.ar    1  LIG1        0.1779
     21 C          -4.0880    2.2500    0.0000 C.ar    1  LIG1        0.1766
     22 C          -3.2080    2.7380    0.0000 C.ar    1  LIG1        0.0448
     23 O          -5.0290    2.5540    0.0000 O.3     1  LIG1       -0.4346
     24 C          -5.6130    1.7670    0.0000 C.3     1  LIG1        0.4294
     25 O          -5.0380    0.9630    0.0000 O.3     1  LIG1       -0.4346
     26 O          -1.4330    3.7380    0.0000 O.2     1  LIG1       -0.2864
     27 C           0.3380    2.7380    0.0000 C.2     1  LIG1        0.2001
     28 C           1.2170    2.2500    0.0000 C.ar    1  LIG1        0.0393
     29 C           1.2040    1.2670    0.0000 C.ar    1  LIG1        0.0063
     30 C           2.0790    0.7830    0.0000 C.ar    1  LIG1        0.0370
     31 C           2.9750    1.2500    0.0000 C.ar    1  LIG1        0.1386
     32 C           2.9750    2.2500    0.0000 C.ar    1  LIG1        0.0370
     33 C           2.0960    2.7380    0.0000 C.ar    1  LIG1        0.0063
     34 O           3.8380    0.7670    0.0000 O.3     1  LIG1       -0.4755
     35 C           4.7290    1.2500    0.0000 C.3     1  LIG1        0.2055
     36 C           5.6080    0.7670    0.0000 C.3     1  LIG1        0.0512
     37 O           0.3380    3.7210    0.0000 O.2     1  LIG1       -0.2864
@<TRIPOS>BOND
     1     1     2   ar
     2     1     6   ar
     3     1    27    1
     4     2     3   ar
     5     2    26    2
     6     3     4   ar
     7     3    22   ar
     8     4     5   ar
     9     4    19   ar
    10     5     6   ar
    11     5     7    1
    12     7     8    1
    13     8     9   am
    14     8    18    2
    15     9    10    1
    16    10    11   ar
    17    10    17   ar
    18    11    12   ar
    19    12    13    1
    20    12    15   ar
    21    13    14    1
    22    15    16   ar
    23    16    17   ar
    24    19    20   ar
    25    20    21   ar
    26    20    25    1
    27    21    22   ar
    28    21    23    1
    29    23    24    1
    30    24    25    1
    31    27    28    1
    32    27    37    2
    33    28    29   ar
    34    28    33   ar
    35    29    30   ar
    36    30    31   ar
    37    31    32   ar
    38    31    34    1
    39    32    33   ar
    40    34    35    1
    41    35    36    1
