@<TRIPOS>MOLECULE
37715_ChemDiv_E760-0067
 28 32 0 0 0
SMALL
GASTEIGER
Energy = 0

@<TRIPOS>ATOM
      1 N          -1.9290    2.3960    0.0000 N.ar    1  LIG1       -0.2730
      2 C          -1.3540    3.1790    0.0000 C.ar    1  LIG1        0.1839
      3 N          -1.9290    3.9920    0.0000 N.ar    1  LIG1       -0.2220
      4 C          -2.8920    3.6920    0.0000 C.ar    1  LIG1        0.1174
      5 C          -2.8920    2.6960    0.0000 C.ar    1  LIG1        0.1666
      6 N          -3.7460    2.1830    0.0000 N.ar    1  LIG1       -0.2248
      7 C          -4.6210    2.6960    0.0000 C.ar    1  LIG1        0.1006
      8 C          -4.6210    3.6920    0.0000 C.ar    1  LIG1        0.0223
      9 C          -3.7460    4.2000    0.0000 C.ar    1  LIG1        0.0238
     10 C          -1.6540    1.4080    0.0000 C.ar    1  LIG1        0.0668
     11 C          -0.6920    1.1670    0.0000 C.ar    1  LIG1        0.0178
     12 C          -0.4210    0.2040    0.0000 C.ar    1  LIG1        0.0061
     13 C          -1.1130   -0.5000    0.0000 C.ar    1  LIG1        0.0551
     14 C          -0.8500   -1.4880    0.0000 C.2     1  LIG1        0.2651
     15 N           0.0920   -1.7380    0.0000 N.am    1  LIG1       -0.1968
     16 C           0.3670   -2.7040    0.0000 C.3     1  LIG1        0.1419
     17 C           1.3290   -2.9750    0.0000 C.ar    1  LIG1        0.0027
     18 C           2.0250   -2.2710    0.0000 C.ar    1  LIG1        0.0376
     19 C           2.9880   -2.5210    0.0000 C.ar    1  LIG1        0.1762
     20 C           3.2630   -3.4880    0.0000 C.ar    1  LIG1        0.1764
     21 O           4.2750   -3.5380    0.0000 O.3     1  LIG1       -0.4346
     22 C           4.6170   -2.6130    0.0000 C.3     1  LIG1        0.4294
     23 O           3.8330   -1.9790    0.0000 O.3     1  LIG1       -0.4346
     24 C           2.5580   -4.2000    0.0000 C.ar    1  LIG1        0.0399
     25 C           1.5920   -3.9380    0.0000 C.ar    1  LIG1        0.0008
     26 O          -1.5670   -2.1920    0.0000 O.2     1  LIG1       -0.2684
     27 C          -2.0790   -0.2580    0.0000 C.ar    1  LIG1        0.0061
     28 C          -2.3500    0.6880    0.0000 C.ar    1  LIG1        0.0178
@<TRIPOS>BOND
     1     1     2   ar
     2     1     5   ar
     3     1    10    1
     4     2     3   ar
     5     3     4   ar
     6     4     5   ar
     7     4     9   ar
     8     5     6   ar
     9     6     7   ar
    10     7     8   ar
    11     8     9   ar
    12    10    11   ar
    13    10    28   ar
    14    11    12   ar
    15    12    13   ar
    16    13    14    1
    17    13    27   ar
    18    14    15   am
    19    14    26    2
    20    15    16    1
    21    16    17    1
    22    17    18   ar
    23    17    25   ar
    24    18    19   ar
    25    19    20   ar
    26    19    23    1
    27    20    21    1
    28    20    24   ar
    29    21    22    1
    30    22    23    1
    31    24    25   ar
    32    27    28   ar
