@<TRIPOS>MOLECULE
37718_ChemDiv_C647-0266
 37 41 0 0 0
SMALL
GASTEIGER
Energy = 0

@<TRIPOS>ATOM
      1 C           0.3380    2.9960    0.0000 C.ar    1  LIG1        0.0950
      2 C          -0.5580    3.5210    0.0000 C.ar    1  LIG1        0.2016
      3 C          -1.4210    2.9960    0.0000 C.ar    1  LIG1        0.0581
      4 C          -1.4460    1.9960    0.0000 C.ar    1  LIG1        0.0666
      5 N          -0.5580    1.5130    0.0000 N.ar    1  LIG1       -0.3174
      6 C           0.3380    1.9960    0.0000 C.ar    1  LIG1        0.0827
      7 C          -0.5580    0.5170    0.0000 C.3     1  LIG1        0.1939
      8 C           0.3170    0.0080    0.0000 C.2     1  LIG1        0.2687
      9 N           0.3170   -0.9960    0.0000 N.am    1  LIG1       -0.1774
     10 C           1.1830   -1.4920    0.0000 C.ar    1  LIG1        0.0795
     11 C           2.0460   -0.9960    0.0000 C.ar    1  LIG1        0.0537
     12 C           2.9130   -1.4880    0.0000 C.ar    1  LIG1        0.1431
     13 C           2.9210   -2.4880    0.0000 C.ar    1  LIG1        0.0738
     14 C           2.0540   -2.9960    0.0000 C.ar    1  LIG1        0.1431
     15 C           1.1830   -2.4880    0.0000 C.ar    1  LIG1        0.0537
     16 O           2.0540   -3.9830    0.0000 O.3     1  LIG1       -0.4713
     17 C           2.9210   -4.4830    0.0000 C.3     1  LIG1        0.2525
     18 O           3.7670   -0.9880    0.0000 O.3     1  LIG1       -0.4713
     19 C           3.7670    0.0080    0.0000 C.3     1  LIG1        0.2525
     20 O           1.1830    0.5170    0.0000 O.2     1  LIG1       -0.2709
     21 C          -2.3210    1.5130    0.0000 C.ar    1  LIG1        0.0575
     22 C          -3.1960    2.0080    0.0000 C.ar    1  LIG1        0.1779
     23 C          -3.1790    2.9960    0.0000 C.ar    1  LIG1        0.1766
     24 C          -2.3210    3.4920    0.0000 C.ar    1  LIG1        0.0448
     25 O          -4.1330    3.3080    0.0000 O.3     1  LIG1       -0.4346
     26 C          -4.7040    2.5130    0.0000 C.3     1  LIG1        0.4294
     27 O          -4.1330    1.7080    0.0000 O.3     1  LIG1       -0.4346
     28 O          -0.5580    4.4830    0.0000 O.2     1  LIG1       -0.2864
     29 C           1.2130    3.4920    0.0000 C.2     1  LIG1        0.2001
     30 C           2.0830    2.9960    0.0000 C.ar    1  LIG1        0.0391
     31 C           2.0710    2.0080    0.0000 C.ar    1  LIG1        0.0029
     32 C           2.9460    1.5130    0.0000 C.ar    1  LIG1       -0.0042
     33 C           3.8250    1.9960    0.0000 C.ar    1  LIG1       -0.0218
     34 C           3.8250    2.9960    0.0000 C.ar    1  LIG1       -0.0042
     35 C           2.9580    3.4920    0.0000 C.ar    1  LIG1        0.0029
     36 C           4.7000    1.5130    0.0000 C.3     1  LIG1        0.0310
     37 O           1.2130    4.4830    0.0000 O.2     1  LIG1       -0.2864
@<TRIPOS>BOND
     1     1     2   ar
     2     1     6   ar
     3     1    29    1
     4     2     3   ar
     5     2    28    2
     6     3     4   ar
     7     3    24   ar
     8     4     5   ar
     9     4    21   ar
    10     5     6   ar
    11     5     7    1
    12     7     8    1
    13     8     9   am
    14     8    20    2
    15     9    10    1
    16    10    11   ar
    17    10    15   ar
    18    11    12   ar
    19    12    13   ar
    20    12    18    1
    21    13    14   ar
    22    14    15   ar
    23    14    16    1
    24    16    17    1
    25    18    19    1
    26    21    22   ar
    27    22    23   ar
    28    22    27    1
    29    23    24   ar
    30    23    25    1
    31    25    26    1
    32    26    27    1
    33    29    30    1
    34    29    37    2
    35    30    31   ar
    36    30    35   ar
    37    31    32   ar
    38    32    33   ar
    39    33    34   ar
    40    33    36    1
    41    34    35   ar
