@<TRIPOS>MOLECULE
37719_ChemDiv_E760-0139
 26 29 0 0 0
SMALL
GASTEIGER
Energy = 0

@<TRIPOS>ATOM
      1 N          -1.0250    3.2330    0.0000 N.ar    1  LIG1       -0.2730
      2 C          -0.4500    4.0130    0.0000 C.ar    1  LIG1        0.1839
      3 N          -1.0250    4.8290    0.0000 N.ar    1  LIG1       -0.2220
      4 C          -1.9880    4.5250    0.0000 C.ar    1  LIG1        0.1174
      5 C          -1.9880    3.5330    0.0000 C.ar    1  LIG1        0.1666
      6 N          -2.8460    3.0210    0.0000 N.ar    1  LIG1       -0.2248
      7 C          -3.7210    3.5330    0.0000 C.ar    1  LIG1        0.1006
      8 C          -3.7210    4.5250    0.0000 C.ar    1  LIG1        0.0223
      9 C          -2.8460    5.0380    0.0000 C.ar    1  LIG1        0.0238
     10 C          -0.7500    2.2460    0.0000 C.ar    1  LIG1        0.0668
     11 C           0.2130    2.0040    0.0000 C.ar    1  LIG1        0.0178
     12 C           0.4880    1.0380    0.0000 C.ar    1  LIG1        0.0061
     13 C          -0.2080    0.3330    0.0000 C.ar    1  LIG1        0.0551
     14 C           0.0540   -0.6500    0.0000 C.2     1  LIG1        0.2650
     15 O          -0.6630   -1.3540    0.0000 O.2     1  LIG1       -0.2684
     16 N           1.0000   -0.9040    0.0000 N.am    1  LIG1       -0.1953
     17 C           1.2710   -1.8710    0.0000 C.3     1  LIG1        0.1778
     18 C           2.2380   -2.1420    0.0000 C.3     1  LIG1        0.1626
     19 N           2.4960   -3.1080    0.0000 N.4     1  LIG1        0.3827
     20 C           1.7830   -3.8000    0.0000 C.3     1  LIG1        0.1714
     21 C           2.0460   -4.7670    0.0000 C.3     1  LIG1        0.2047
     22 O           3.0130   -5.0380    0.0000 O.3     1  LIG1       -0.3411
     23 C           3.7170   -4.3130    0.0000 C.3     1  LIG1        0.2047
     24 C           3.4460   -3.3500    0.0000 C.3     1  LIG1        0.1714
     25 C          -1.1750    0.5750    0.0000 C.ar    1  LIG1        0.0061
     26 C          -1.4460    1.5210    0.0000 C.ar    1  LIG1        0.0178
@<TRIPOS>BOND
     1     1     2   ar
     2     1     5   ar
     3     1    10    1
     4     2     3   ar
     5     3     4   ar
     6     4     5   ar
     7     4     9   ar
     8     5     6   ar
     9     6     7   ar
    10     7     8   ar
    11     8     9   ar
    12    10    11   ar
    13    10    26   ar
    14    11    12   ar
    15    12    13   ar
    16    13    14    1
    17    13    25   ar
    18    14    15    2
    19    14    16   am
    20    16    17    1
    21    17    18    1
    22    18    19    1
    23    19    20    1
    24    19    24    1
    25    20    21    1
    26    21    22    1
    27    22    23    1
    28    23    24    1
    29    25    26   ar
