@<TRIPOS>MOLECULE
37711_ChemDiv_C614-0912
 33 36 0 0 0
SMALL
GASTEIGER
Energy = 0

@<TRIPOS>ATOM
      1 N          -2.1330    1.0580    0.0000 N.ar    1  LIG1       -0.2961
      2 C          -1.5420    1.8670    0.0000 C.ar    1  LIG1        0.1222
      3 N          -2.1330    2.6790    0.0000 N.ar    1  LIG1       -0.2293
      4 C          -3.0750    2.3670    0.0000 C.ar    1  LIG1        0.1167
      5 C          -3.0750    1.3670    0.0000 C.ar    1  LIG1        0.1627
      6 N          -3.9500    0.8630    0.0000 N.ar    1  LIG1       -0.2252
      7 C          -4.8130    1.3630    0.0000 C.ar    1  LIG1        0.1006
      8 C          -4.8130    2.3670    0.0000 C.ar    1  LIG1        0.0223
      9 C          -3.9500    2.8670    0.0000 C.ar    1  LIG1        0.0238
     10 C          -0.5420    1.8670    0.0000 C.3     1  LIG1        0.0736
     11 C          -0.0420    1.0040    0.0000 C.3     1  LIG1        0.0951
     12 C           0.9580    1.0040    0.0000 C.2     1  LIG1        0.2461
     13 N           1.4670    0.1420    0.0000 N.am    1  LIG1       -0.1761
     14 C           2.4670    0.1500    0.0000 C.ar    1  LIG1        0.1069
     15 C           2.9710   -0.7130    0.0000 C.ar    1  LIG1        0.1547
     16 C           3.9710   -0.7080    0.0000 C.ar    1  LIG1        0.0493
     17 C           4.4630    0.1670    0.0000 C.ar    1  LIG1        0.0568
     18 C           3.9500    1.0290    0.0000 C.ar    1  LIG1       -0.0098
     19 C           2.9500    1.0130    0.0000 C.ar    1  LIG1        0.0163
     20 C           4.4380    1.9080    0.0000 C.3     1  LIG1        0.0320
     21 CL          5.4630    0.1790    0.0000 Cl      1  LIG1       -0.0825
     22 O           2.4710   -1.5830    0.0000 O.3     1  LIG1       -0.4701
     23 C           1.4710   -1.5920    0.0000 C.3     1  LIG1        0.2525
     24 O           1.4580    1.8750    0.0000 O.2     1  LIG1       -0.2730
     25 C          -1.8130    0.1040    0.0000 C.3     1  LIG1        0.1353
     26 C          -2.4830   -0.6380    0.0000 C.ar    1  LIG1        0.0007
     27 C          -3.4630   -0.4250    0.0000 C.ar    1  LIG1        0.0007
     28 C          -4.1290   -1.1670    0.0000 C.ar    1  LIG1        0.0366
     29 C          -3.8290   -2.1210    0.0000 C.ar    1  LIG1        0.1387
     30 C          -2.8420   -2.3170    0.0000 C.ar    1  LIG1        0.0366
     31 C          -2.1750   -1.5750    0.0000 C.ar    1  LIG1        0.0007
     32 O          -4.4920   -2.8630    0.0000 O.3     1  LIG1       -0.4714
     33 C          -5.4670   -2.6500    0.0000 C.3     1  LIG1        0.2525
@<TRIPOS>BOND
     1     1     2   ar
     2     1     5   ar
     3     1    25    1
     4     2     3   ar
     5     2    10    1
     6     3     4   ar
     7     4     5   ar
     8     4     9   ar
     9     5     6   ar
    10     6     7   ar
    11     7     8   ar
    12     8     9   ar
    13    10    11    1
    14    11    12    1
    15    12    13   am
    16    12    24    2
    17    13    14    1
    18    14    15   ar
    19    14    19   ar
    20    15    16   ar
    21    15    22    1
    22    16    17   ar
    23    17    18   ar
    24    17    21    1
    25    18    19   ar
    26    18    20    1
    27    22    23    1
    28    25    26    1
    29    26    27   ar
    30    26    31   ar
    31    27    28   ar
    32    28    29   ar
    33    29    30   ar
    34    29    32    1
    35    30    31   ar
    36    32    33    1
