@<TRIPOS>MOLECULE
37728_ChemDiv_C647-0349
 38 42 0 0 0
SMALL
GASTEIGER
Energy = 0

@<TRIPOS>ATOM
      1 C          -0.1000    2.7460    0.0000 C.ar    1  LIG1        0.0950
      2 C          -0.9830    3.2460    0.0000 C.ar    1  LIG1        0.2016
      3 C          -1.8710    2.7460    0.0000 C.ar    1  LIG1        0.0581
      4 C          -1.8710    1.7460    0.0000 C.ar    1  LIG1        0.0666
      5 N          -0.9920    1.2580    0.0000 N.ar    1  LIG1       -0.3174
      6 C          -0.1000    1.7460    0.0000 C.ar    1  LIG1        0.0827
      7 C          -0.9920    0.2630    0.0000 C.3     1  LIG1        0.1939
      8 C          -0.1290   -0.2380    0.0000 C.2     1  LIG1        0.2687
      9 N          -0.1290   -1.2380    0.0000 N.am    1  LIG1       -0.1745
     10 C           0.7330   -1.7380    0.0000 C.ar    1  LIG1        0.1074
     11 C           0.7330   -2.7380    0.0000 C.ar    1  LIG1        0.1569
     12 C           1.6000   -3.2380    0.0000 C.ar    1  LIG1        0.0751
     13 C           2.4630   -2.7380    0.0000 C.ar    1  LIG1        0.1418
     14 C           2.4630   -1.7380    0.0000 C.ar    1  LIG1        0.0384
     15 C           1.6000   -1.2380    0.0000 C.ar    1  LIG1        0.0228
     16 O           3.3250   -3.2380    0.0000 O.3     1  LIG1       -0.4713
     17 C           4.2000   -2.7380    0.0000 C.3     1  LIG1        0.2525
     18 O          -0.1290   -3.2290    0.0000 O.3     1  LIG1       -0.4700
     19 C          -0.1290   -4.2250    0.0000 C.3     1  LIG1        0.2525
     20 O           0.7330    0.2630    0.0000 O.2     1  LIG1       -0.2709
     21 C          -2.7500    1.2710    0.0000 C.ar    1  LIG1        0.0575
     22 C          -3.6330    1.7580    0.0000 C.ar    1  LIG1        0.1779
     23 C          -3.6290    2.7460    0.0000 C.ar    1  LIG1        0.1766
     24 C          -2.7500    3.2330    0.0000 C.ar    1  LIG1        0.0448
     25 O          -4.5710    3.0630    0.0000 O.3     1  LIG1       -0.4346
     26 C          -5.1630    2.2630    0.0000 C.3     1  LIG1        0.4294
     27 O          -4.5830    1.4580    0.0000 O.3     1  LIG1       -0.4346
     28 O          -0.9830    4.2250    0.0000 O.2     1  LIG1       -0.2864
     29 C           0.7790    3.2330    0.0000 C.2     1  LIG1        0.2001
     30 C           1.6580    2.7460    0.0000 C.ar    1  LIG1        0.0393
     31 C           1.6460    1.7580    0.0000 C.ar    1  LIG1        0.0063
     32 C           2.5210    1.2710    0.0000 C.ar    1  LIG1        0.0370
     33 C           3.4130    1.7460    0.0000 C.ar    1  LIG1        0.1387
     34 C           3.4130    2.7460    0.0000 C.ar    1  LIG1        0.0370
     35 C           2.5210    3.2330    0.0000 C.ar    1  LIG1        0.0063
     36 O           4.2750    1.2580    0.0000 O.3     1  LIG1       -0.4714
     37 C           5.1580    1.7460    0.0000 C.3     1  LIG1        0.2525
     38 O           0.7790    4.2130    0.0000 O.2     1  LIG1       -0.2864
@<TRIPOS>BOND
     1     1     2   ar
     2     1     6   ar
     3     1    29    1
     4     2     3   ar
     5     2    28    2
     6     3     4   ar
     7     3    24   ar
     8     4     5   ar
     9     4    21   ar
    10     5     6   ar
    11     5     7    1
    12     7     8    1
    13     8     9   am
    14     8    20    2
    15     9    10    1
    16    10    11   ar
    17    10    15   ar
    18    11    12   ar
    19    11    18    1
    20    12    13   ar
    21    13    14   ar
    22    13    16    1
    23    14    15   ar
    24    16    17    1
    25    18    19    1
    26    21    22   ar
    27    22    23   ar
    28    22    27    1
    29    23    24   ar
    30    23    25    1
    31    25    26    1
    32    26    27    1
    33    29    30    1
    34    29    38    2
    35    30    31   ar
    36    30    35   ar
    37    31    32   ar
    38    32    33   ar
    39    33    34   ar
    40    33    36    1
    41    34    35   ar
    42    36    37    1
