@<TRIPOS>MOLECULE
37724_ChemDiv_C647-0345
 36 40 0 0 0
SMALL
GASTEIGER
Energy = 0

@<TRIPOS>ATOM
      1 C           0.3670    2.7420    0.0000 C.ar    1  LIG1        0.0950
      2 C          -0.5000    3.2500    0.0000 C.ar    1  LIG1        0.2016
      3 C          -1.3710    2.7420    0.0000 C.ar    1  LIG1        0.0581
      4 C          -1.3750    1.7380    0.0000 C.ar    1  LIG1        0.0666
      5 N          -0.5080    1.2420    0.0000 N.ar    1  LIG1       -0.3174
      6 C           0.3670    1.7380    0.0000 C.ar    1  LIG1        0.0827
      7 C          -0.5130    0.2460    0.0000 C.3     1  LIG1        0.1939
      8 C           0.3500   -0.2540    0.0000 C.2     1  LIG1        0.2687
      9 N           0.3500   -1.2460    0.0000 N.am    1  LIG1       -0.1745
     10 C           1.2080   -1.7500    0.0000 C.ar    1  LIG1        0.1074
     11 C           1.2080   -2.7500    0.0000 C.ar    1  LIG1        0.1569
     12 C           2.0710   -3.2460    0.0000 C.ar    1  LIG1        0.0751
     13 C           2.9330   -2.7500    0.0000 C.ar    1  LIG1        0.1418
     14 C           2.9330   -1.7460    0.0000 C.ar    1  LIG1        0.0384
     15 C           2.0710   -1.2460    0.0000 C.ar    1  LIG1        0.0228
     16 O           3.7920   -3.2460    0.0000 O.3     1  LIG1       -0.4713
     17 C           4.6580   -2.7500    0.0000 C.3     1  LIG1        0.2525
     18 O           0.3500   -3.2460    0.0000 O.3     1  LIG1       -0.4700
     19 C           0.3500   -4.2420    0.0000 C.3     1  LIG1        0.2525
     20 O           1.2080    0.2460    0.0000 O.2     1  LIG1       -0.2709
     21 C          -2.2380    1.2420    0.0000 C.ar    1  LIG1        0.0575
     22 C          -3.0960    1.7380    0.0000 C.ar    1  LIG1        0.1779
     23 C          -3.0960    2.7580    0.0000 C.ar    1  LIG1        0.1766
     24 C          -2.2380    3.2420    0.0000 C.ar    1  LIG1        0.0448
     25 O          -4.0630    3.0710    0.0000 O.3     1  LIG1       -0.4346
     26 C          -4.6630    2.2420    0.0000 C.3     1  LIG1        0.4294
     27 O          -4.0630    1.4290    0.0000 O.3     1  LIG1       -0.4346
     28 O          -0.5000    4.2420    0.0000 O.2     1  LIG1       -0.2864
     29 C           1.2380    3.2380    0.0000 C.2     1  LIG1        0.2001
     30 O           1.2380    4.2330    0.0000 O.2     1  LIG1       -0.2864
     31 C           2.1000    2.7380    0.0000 C.ar    1  LIG1        0.0391
     32 C           2.0880    1.7380    0.0000 C.ar    1  LIG1        0.0032
     33 C           2.9460    1.2420    0.0000 C.ar    1  LIG1        0.0001
     34 C           3.8130    1.7380    0.0000 C.ar    1  LIG1        0.0000
     35 C           3.8130    2.7380    0.0000 C.ar    1  LIG1        0.0001
     36 C           2.9500    3.2380    0.0000 C.ar    1  LIG1        0.0032
@<TRIPOS>BOND
     1     1     2   ar
     2     1     6   ar
     3     1    29    1
     4     2     3   ar
     5     2    28    2
     6     3     4   ar
     7     3    24   ar
     8     4     5   ar
     9     4    21   ar
    10     5     6   ar
    11     5     7    1
    12     7     8    1
    13     8     9   am
    14     8    20    2
    15     9    10    1
    16    10    11   ar
    17    10    15   ar
    18    11    12   ar
    19    11    18    1
    20    12    13   ar
    21    13    14   ar
    22    13    16    1
    23    14    15   ar
    24    16    17    1
    25    18    19    1
    26    21    22   ar
    27    22    23   ar
    28    22    27    1
    29    23    24   ar
    30    23    25    1
    31    25    26    1
    32    26    27    1
    33    29    30    2
    34    29    31    1
    35    31    32   ar
    36    31    36   ar
    37    32    33   ar
    38    33    34   ar
    39    34    35   ar
    40    35    36   ar
