@<TRIPOS>MOLECULE
37722_ChemDiv_C647-0272
 37 41 0 0 0
SMALL
GASTEIGER
Energy = 0

@<TRIPOS>ATOM
      1 C           0.3540    2.9960    0.0000 C.ar    1  LIG1        0.0950
      2 C          -0.5420    3.4960    0.0000 C.ar    1  LIG1        0.2016
      3 C          -1.4170    2.9960    0.0000 C.ar    1  LIG1        0.0581
      4 C          -1.4170    2.0000    0.0000 C.ar    1  LIG1        0.0666
      5 N          -0.5420    1.5000    0.0000 N.ar    1  LIG1       -0.3174
      6 C           0.3540    2.0000    0.0000 C.ar    1  LIG1        0.0827
      7 C          -0.5420    0.5130    0.0000 C.3     1  LIG1        0.1939
      8 C           0.3250    0.0170    0.0000 C.2     1  LIG1        0.2687
      9 N           0.3250   -0.9830    0.0000 N.am    1  LIG1       -0.1774
     10 C           1.2000   -1.4830    0.0000 C.ar    1  LIG1        0.0795
     11 C           2.0500   -0.9830    0.0000 C.ar    1  LIG1        0.0537
     12 C           2.9130   -1.4830    0.0000 C.ar    1  LIG1        0.1431
     13 C           2.9290   -2.4830    0.0000 C.ar    1  LIG1        0.0738
     14 C           2.0630   -2.9830    0.0000 C.ar    1  LIG1        0.1431
     15 C           1.1880   -2.4830    0.0000 C.ar    1  LIG1        0.0537
     16 O           2.0630   -3.9790    0.0000 O.3     1  LIG1       -0.4713
     17 C           2.9290   -4.4750    0.0000 C.3     1  LIG1        0.2525
     18 O           3.7750   -0.9830    0.0000 O.3     1  LIG1       -0.4713
     19 C           3.7750    0.0170    0.0000 C.3     1  LIG1        0.2525
     20 O           1.1880    0.5130    0.0000 O.2     1  LIG1       -0.2709
     21 C          -2.2960    1.5130    0.0000 C.ar    1  LIG1        0.0575
     22 C          -3.1880    2.0000    0.0000 C.ar    1  LIG1        0.1779
     23 C          -3.1750    2.9960    0.0000 C.ar    1  LIG1        0.1766
     24 C          -2.2960    3.4830    0.0000 C.ar    1  LIG1        0.0448
     25 O          -4.1290    3.3000    0.0000 O.3     1  LIG1       -0.4346
     26 C          -4.7170    2.4960    0.0000 C.3     1  LIG1        0.4294
     27 O          -4.1290    1.6960    0.0000 O.3     1  LIG1       -0.4346
     28 O          -0.5420    4.4750    0.0000 O.2     1  LIG1       -0.2864
     29 C           1.2330    3.4830    0.0000 C.2     1  LIG1        0.2001
     30 C           2.1080    2.9960    0.0000 C.ar    1  LIG1        0.0392
     31 C           2.0790    2.0000    0.0000 C.ar    1  LIG1        0.0040
     32 C           2.9580    1.5130    0.0000 C.ar    1  LIG1        0.0115
     33 C           3.8380    2.0000    0.0000 C.ar    1  LIG1        0.0577
     34 C           3.8380    2.9960    0.0000 C.ar    1  LIG1        0.0115
     35 C           2.9580    3.4830    0.0000 C.ar    1  LIG1        0.0040
     36 CL          4.7130    1.5000    0.0000 Cl      1  LIG1       -0.0822
     37 O           1.2330    4.4630    0.0000 O.2     1  LIG1       -0.2864
@<TRIPOS>BOND
     1     1     2   ar
     2     1     6   ar
     3     1    29    1
     4     2     3   ar
     5     2    28    2
     6     3     4   ar
     7     3    24   ar
     8     4     5   ar
     9     4    21   ar
    10     5     6   ar
    11     5     7    1
    12     7     8    1
    13     8     9   am
    14     8    20    2
    15     9    10    1
    16    10    11   ar
    17    10    15   ar
    18    11    12   ar
    19    12    13   ar
    20    12    18    1
    21    13    14   ar
    22    14    15   ar
    23    14    16    1
    24    16    17    1
    25    18    19    1
    26    21    22   ar
    27    22    23   ar
    28    22    27    1
    29    23    24   ar
    30    23    25    1
    31    25    26    1
    32    26    27    1
    33    29    30    1
    34    29    37    2
    35    30    31   ar
    36    30    35   ar
    37    31    32   ar
    38    32    33   ar
    39    33    34   ar
    40    33    36    1
    41    34    35   ar
