@<TRIPOS>MOLECULE
37729_ChemDiv_C614-0918
 34 37 0 0 0
SMALL
GASTEIGER
Energy = 0

@<TRIPOS>ATOM
      1 N          -2.3790    1.0630    0.0000 N.ar    1  LIG1       -0.2961
      2 C          -1.7880    1.8630    0.0000 C.ar    1  LIG1        0.1222
      3 N          -2.3790    2.6830    0.0000 N.ar    1  LIG1       -0.2293
      4 C          -3.3330    2.3630    0.0000 C.ar    1  LIG1        0.1167
      5 C          -3.3330    1.3630    0.0000 C.ar    1  LIG1        0.1627
      6 N          -4.1960    0.8670    0.0000 N.ar    1  LIG1       -0.2252
      7 C          -5.0580    1.3630    0.0000 C.ar    1  LIG1        0.1006
      8 C          -5.0580    2.3630    0.0000 C.ar    1  LIG1        0.0223
      9 C          -4.1960    2.8630    0.0000 C.ar    1  LIG1        0.0238
     10 C          -0.7880    1.8630    0.0000 C.3     1  LIG1        0.0736
     11 C          -0.2880    1.0000    0.0000 C.3     1  LIG1        0.0951
     12 C           0.7080    1.0000    0.0000 C.2     1  LIG1        0.2461
     13 N           1.2080    0.1380    0.0000 N.am    1  LIG1       -0.1761
     14 C           2.2080    0.1420    0.0000 C.ar    1  LIG1        0.1082
     15 C           2.7170   -0.7210    0.0000 C.ar    1  LIG1        0.0341
     16 C           3.7170   -0.7080    0.0000 C.ar    1  LIG1        0.0930
     17 C           4.2080    0.1670    0.0000 C.ar    1  LIG1        0.1523
     18 C           3.6920    1.0330    0.0000 C.ar    1  LIG1        0.0760
     19 C           2.6920    1.0170    0.0000 C.ar    1  LIG1        0.1570
     20 O           2.1880    1.8710    0.0000 O.3     1  LIG1       -0.4700
     21 C           2.6790    2.7420    0.0000 C.3     1  LIG1        0.2525
     22 O           5.2040    0.1750    0.0000 O.3     1  LIG1       -0.4705
     23 C           5.7210   -0.6880    0.0000 C.3     1  LIG1        0.2525
     24 CL          4.2210   -1.5710    0.0000 Cl      1  LIG1       -0.0790
     25 O           1.2080    1.8710    0.0000 O.2     1  LIG1       -0.2730
     26 C          -2.0670    0.1080    0.0000 C.3     1  LIG1        0.1353
     27 C          -2.7420   -0.6330    0.0000 C.ar    1  LIG1        0.0007
     28 C          -2.4250   -1.5830    0.0000 C.ar    1  LIG1        0.0007
     29 C          -3.0920   -2.3250    0.0000 C.ar    1  LIG1        0.0366
     30 C          -4.0750   -2.1170    0.0000 C.ar    1  LIG1        0.1387
     31 C          -4.3830   -1.1630    0.0000 C.ar    1  LIG1        0.0366
     32 C          -3.7130   -0.4210    0.0000 C.ar    1  LIG1        0.0007
     33 O          -4.7420   -2.8580    0.0000 O.3     1  LIG1       -0.4714
     34 C          -5.7250   -2.6580    0.0000 C.3     1  LIG1        0.2525
@<TRIPOS>BOND
     1     1     2   ar
     2     1     5   ar
     3     1    26    1
     4     2     3   ar
     5     2    10    1
     6     3     4   ar
     7     4     5   ar
     8     4     9   ar
     9     5     6   ar
    10     6     7   ar
    11     7     8   ar
    12     8     9   ar
    13    10    11    1
    14    11    12    1
    15    12    13   am
    16    12    25    2
    17    13    14    1
    18    14    15   ar
    19    14    19   ar
    20    15    16   ar
    21    16    17   ar
    22    16    24    1
    23    17    18   ar
    24    17    22    1
    25    18    19   ar
    26    19    20    1
    27    20    21    1
    28    22    23    1
    29    26    27    1
    30    27    28   ar
    31    27    32   ar
    32    28    29   ar
    33    29    30   ar
    34    30    31   ar
    35    30    33    1
    36    31    32   ar
    37    33    34    1
