@<TRIPOS>MOLECULE
37721_ChemDiv_E760-0204
 27 30 0 0 0
SMALL
GASTEIGER
Energy = 0

@<TRIPOS>ATOM
      1 N          -1.0210    3.7210    0.0000 N.ar    1  LIG1       -0.2730
      2 C          -0.4500    4.5000    0.0000 C.ar    1  LIG1        0.1839
      3 N          -1.0210    5.3170    0.0000 N.ar    1  LIG1       -0.2220
      4 C          -1.9880    5.0130    0.0000 C.ar    1  LIG1        0.1174
      5 C          -1.9880    4.0170    0.0000 C.ar    1  LIG1        0.1666
      6 N          -2.8420    3.5080    0.0000 N.ar    1  LIG1       -0.2248
      7 C          -3.7170    4.0170    0.0000 C.ar    1  LIG1        0.1006
      8 C          -3.7170    5.0130    0.0000 C.ar    1  LIG1        0.0223
      9 C          -2.8420    5.5250    0.0000 C.ar    1  LIG1        0.0238
     10 C          -0.7500    2.7380    0.0000 C.ar    1  LIG1        0.0668
     11 C          -1.4460    2.0130    0.0000 C.ar    1  LIG1        0.0178
     12 C          -1.1710    1.0670    0.0000 C.ar    1  LIG1        0.0061
     13 C          -0.2080    0.8250    0.0000 C.ar    1  LIG1        0.0551
     14 C           0.0540   -0.1580    0.0000 C.2     1  LIG1        0.2648
     15 O          -0.6580   -0.8630    0.0000 O.2     1  LIG1       -0.2684
     16 N           1.0000   -0.4080    0.0000 N.am    1  LIG1       -0.2002
     17 C           1.2710   -1.3750    0.0000 C.3     1  LIG1        0.1327
     18 C           2.2330   -1.6460    0.0000 C.3     1  LIG1        0.0961
     19 N           2.4960   -2.6130    0.0000 N.3     1  LIG1       -0.2611
     20 C           1.7830   -3.3040    0.0000 C.3     1  LIG1        0.1359
     21 C           2.0420   -4.2710    0.0000 C.3     1  LIG1        0.1566
     22 N           3.0170   -4.5420    0.0000 N.4     1  LIG1        0.3842
     23 C           3.7130   -3.8380    0.0000 C.3     1  LIG1        0.1566
     24 C           3.4630   -2.8710    0.0000 C.3     1  LIG1        0.1359
     25 C           3.2920   -5.5250    0.0000 C.3     1  LIG1        0.2024
     26 C           0.4880    1.5290    0.0000 C.ar    1  LIG1        0.0061
     27 C           0.2130    2.4960    0.0000 C.ar    1  LIG1        0.0178
@<TRIPOS>BOND
     1     1     2   ar
     2     1     5   ar
     3     1    10    1
     4     2     3   ar
     5     3     4   ar
     6     4     5   ar
     7     4     9   ar
     8     5     6   ar
     9     6     7   ar
    10     7     8   ar
    11     8     9   ar
    12    10    11   ar
    13    10    27   ar
    14    11    12   ar
    15    12    13   ar
    16    13    14    1
    17    13    26   ar
    18    14    15    2
    19    14    16   am
    20    16    17    1
    21    17    18    1
    22    18    19    1
    23    19    20    1
    24    19    24    1
    25    20    21    1
    26    21    22    1
    27    22    23    1
    28    22    25    1
    29    23    24    1
    30    26    27   ar
