@<TRIPOS>MOLECULE
37725_ChemDiv_E760-1128
 25 28 0 0 0
SMALL
GASTEIGER
Energy = 0

@<TRIPOS>ATOM
      1 C           0.1420    2.1250    0.0000 C.ar    1  LIG1        0.1488
      2 N          -0.4460    1.3000    0.0000 N.ar    1  LIG1       -0.2755
      3 C          -1.4170    1.6130    0.0000 C.ar    1  LIG1        0.1666
      4 C          -1.4170    2.6250    0.0000 C.ar    1  LIG1        0.1173
      5 N          -0.4580    2.9460    0.0000 N.ar    1  LIG1       -0.2249
      6 C          -2.2960    3.1290    0.0000 C.ar    1  LIG1        0.0238
      7 C          -3.1710    2.6250    0.0000 C.ar    1  LIG1        0.0223
      8 C          -3.1710    1.6080    0.0000 C.ar    1  LIG1        0.1006
      9 N          -2.2960    1.1040    0.0000 N.ar    1  LIG1       -0.2248
     10 C          -0.1880    0.3290    0.0000 C.ar    1  LIG1        0.0667
     11 C           0.7790    0.0710    0.0000 C.ar    1  LIG1        0.0178
     12 C           1.0460   -0.9000    0.0000 C.ar    1  LIG1        0.0061
     13 C           0.3290   -1.6170    0.0000 C.ar    1  LIG1        0.0551
     14 C           0.5880   -2.5920    0.0000 C.2     1  LIG1        0.2648
     15 O           0.0460   -3.1080    0.0000 O.2     1  LIG1       -0.2684
     16 N           1.5540   -2.8580    0.0000 N.am    1  LIG1       -0.1998
     17 C           2.5210   -3.1250    0.0000 C.3     1  LIG1        0.1388
     18 C          -0.6460   -1.3540    0.0000 C.ar    1  LIG1        0.0061
     19 C          -0.9040   -0.3830    0.0000 C.ar    1  LIG1        0.0178
     20 C           1.1500    2.1250    0.0000 C.ar    1  LIG1        0.0345
     21 C           1.6460    2.9960    0.0000 C.ar    1  LIG1        0.0030
     22 C           2.6500    3.0040    0.0000 C.ar    1  LIG1        0.0001
     23 C           3.1670    2.1290    0.0000 C.ar    1  LIG1        0.0000
     24 C           2.6630    1.2540    0.0000 C.ar    1  LIG1        0.0001
     25 C           1.6540    1.2540    0.0000 C.ar    1  LIG1        0.0030
@<TRIPOS>BOND
     1     1     2   ar
     2     1     5   ar
     3     1    20    1
     4     2     3   ar
     5     2    10    1
     6     3     4   ar
     7     3     9   ar
     8     4     5   ar
     9     4     6   ar
    10     6     7   ar
    11     7     8   ar
    12     8     9   ar
    13    10    11   ar
    14    10    19   ar
    15    11    12   ar
    16    12    13   ar
    17    13    14    1
    18    13    18   ar
    19    14    15    2
    20    14    16   am
    21    16    17    1
    22    18    19   ar
    23    20    21   ar
    24    20    25   ar
    25    21    22   ar
    26    22    23   ar
    27    23    24   ar
    28    24    25   ar
