@<TRIPOS>MOLECULE
37727_ChemDiv_E760-3074
 28 32 0 0 0
SMALL
GASTEIGER
Energy = 0

@<TRIPOS>ATOM
      1 N          -2.5420    1.0540    0.0000 N.ar    1  LIG1       -0.2789
      2 C          -2.6250    2.0380    0.0000 C.ar    1  LIG1        0.1257
      3 N          -3.6000    2.2630    0.0000 N.ar    1  LIG1       -0.2290
      4 C          -4.1170    1.4130    0.0000 C.ar    1  LIG1        0.1170
      5 C          -3.4580    0.6630    0.0000 C.ar    1  LIG1        0.1663
      6 N          -3.7830   -0.2830    0.0000 N.ar    1  LIG1       -0.2248
      7 C          -4.7710   -0.4750    0.0000 C.ar    1  LIG1        0.1006
      8 C          -5.4210    0.2710    0.0000 C.ar    1  LIG1        0.0223
      9 C          -5.0960    1.2170    0.0000 C.ar    1  LIG1        0.0238
     10 C          -1.8710    2.6920    0.0000 C.3     1  LIG1        0.0722
     11 C          -1.6830    0.5420    0.0000 C.ar    1  LIG1        0.0664
     12 C          -1.7000   -0.4630    0.0000 C.ar    1  LIG1        0.0173
     13 C          -0.8420   -0.9750    0.0000 C.ar    1  LIG1       -0.0023
     14 C           0.0330   -0.4880    0.0000 C.ar    1  LIG1       -0.0130
     15 C           0.8920   -0.9920    0.0000 C.3     1  LIG1        0.1119
     16 C           1.7630   -0.5040    0.0000 C.2     1  LIG1        0.2338
     17 N           2.6170   -1.0170    0.0000 N.am    1  LIG1       -0.2583
     18 C           3.6130   -1.2670    0.0000 C.ar    1  LIG1        0.0499
     19 C           3.6880   -2.2460    0.0000 C.ar    1  LIG1       -0.0068
     20 C           2.7420   -2.6290    0.0000 C.3     1  LIG1        0.0495
     21 C           2.0920   -1.8710    0.0000 C.3     1  LIG1        0.1029
     22 C           4.5670   -2.6880    0.0000 C.ar    1  LIG1       -0.0030
     23 C           5.4170   -2.1130    0.0000 C.ar    1  LIG1       -0.0002
     24 C           5.3380   -1.1330    0.0000 C.ar    1  LIG1        0.0013
     25 C           4.4130   -0.6830    0.0000 C.ar    1  LIG1        0.0146
     26 O           1.7750    0.4920    0.0000 O.2     1  LIG1       -0.2742
     27 C           0.0420    0.5210    0.0000 C.ar    1  LIG1       -0.0023
     28 C          -0.8170    1.0290    0.0000 C.ar    1  LIG1        0.0173
@<TRIPOS>BOND
     1     1     2   ar
     2     1     5   ar
     3     1    11    1
     4     2     3   ar
     5     2    10    1
     6     3     4   ar
     7     4     5   ar
     8     4     9   ar
     9     5     6   ar
    10     6     7   ar
    11     7     8   ar
    12     8     9   ar
    13    11    12   ar
    14    11    28   ar
    15    12    13   ar
    16    13    14   ar
    17    14    15    1
    18    14    27   ar
    19    15    16    1
    20    16    17   am
    21    16    26    2
    22    17    18    1
    23    17    21    1
    24    18    19   ar
    25    18    25   ar
    26    19    20    1
    27    19    22   ar
    28    20    21    1
    29    22    23   ar
    30    23    24   ar
    31    24    25   ar
    32    27    28   ar
