@<TRIPOS>MOLECULE
37734_ChemDiv_C690-0046
 22 25 0 0 0
SMALL
GASTEIGER
Energy = 0

@<TRIPOS>ATOM
      1 C           1.7210   -1.5920    0.0000 C.ar    1  LIG1        0.0935
      2 C           0.9750   -2.2580    0.0000 C.ar    1  LIG1        0.0888
      3 N           1.3830   -3.1710    0.0000 N.ar    1  LIG1       -0.2280
      4 N           2.3790   -3.0670    0.0000 N.ar    1  LIG1       -0.1633
      5 C           2.5880   -2.0880    0.0000 C.ar    1  LIG1        0.1266
      6 C           0.8000   -3.9790    0.0000 C.ar    1  LIG1        0.1004
      7 C          -0.1960   -3.8790    0.0000 C.ar    1  LIG1        0.0207
      8 C          -0.6040   -2.9630    0.0000 C.ar    1  LIG1        0.0031
      9 C          -0.0210   -2.1540    0.0000 C.ar    1  LIG1        0.0194
     10 C           1.6170   -0.5960    0.0000 C.2     1  LIG1        0.2681
     11 N           0.7460   -0.1000    0.0000 N.am    1  LIG1       -0.1967
     12 C           0.7460    0.9040    0.0000 C.3     1  LIG1        0.1419
     13 C          -0.1170    1.4000    0.0000 C.ar    1  LIG1        0.0027
     14 C          -0.1170    2.4000    0.0000 C.ar    1  LIG1        0.0376
     15 C          -0.9830    2.9000    0.0000 C.ar    1  LIG1        0.1762
     16 C          -1.8460    2.4000    0.0000 C.ar    1  LIG1        0.1764
     17 O          -2.5920    3.0710    0.0000 O.3     1  LIG1       -0.4346
     18 C          -2.1830    3.9830    0.0000 C.3     1  LIG1        0.4294
     19 O          -1.1920    3.8790    0.0000 O.3     1  LIG1       -0.4346
     20 C          -1.8460    1.4000    0.0000 C.ar    1  LIG1        0.0399
     21 C          -0.9830    0.9040    0.0000 C.ar    1  LIG1        0.0008
     22 O           2.4250   -0.0080    0.0000 O.2     1  LIG1       -0.2683
@<TRIPOS>BOND
     1     1     2   ar
     2     1     5   ar
     3     1    10    1
     4     2     3   ar
     5     2     9   ar
     6     3     4   ar
     7     3     6   ar
     8     4     5   ar
     9     6     7   ar
    10     7     8   ar
    11     8     9   ar
    12    10    11   am
    13    10    22    2
    14    11    12    1
    15    12    13    1
    16    13    14   ar
    17    13    21   ar
    18    14    15   ar
    19    15    16   ar
    20    15    19    1
    21    16    17    1
    22    16    20   ar
    23    17    18    1
    24    18    19    1
    25    20    21   ar
