@<TRIPOS>MOLECULE
37739_ChemDiv_C614-0720
 33 35 0 0 0
SMALL
GASTEIGER
Energy = 0

@<TRIPOS>ATOM
      1 S           1.9000    0.4250    0.0000 S.O2    1  LIG1        0.0634
      2 N           1.5500   -0.5330    0.0000 N.3     1  LIG1       -0.1553
      3 C           0.5920   -0.7080    0.0000 C.3     1  LIG1        0.0987
      4 C           0.2420   -1.6500    0.0000 C.3     1  LIG1        0.0538
      5 C           0.8630   -2.4380    0.0000 C.3     1  LIG1        0.1481
      6 C           0.0000   -2.9290    0.0000 C.ar    1  LIG1        0.0050
      7 C          -0.8630   -2.4170    0.0000 C.ar    1  LIG1       -0.0005
      8 C          -1.7250   -2.9040    0.0000 C.ar    1  LIG1        0.0341
      9 C          -2.5880   -2.3920    0.0000 C.3     1  LIG1        0.1662
     10 N          -3.4580   -2.8830    0.0000 N.4     1  LIG1        0.3811
     11 C          -4.3210   -2.3750    0.0000 C.3     1  LIG1        0.0878
     12 C          -4.3040   -1.3790    0.0000 C.3     1  LIG1        0.0567
     13 C          -3.4330   -0.8880    0.0000 C.3     1  LIG1        0.0061
     14 C          -5.1830   -2.8710    0.0000 C.3     1  LIG1        0.0626
     15 C          -3.4670   -3.8790    0.0000 C.3     1  LIG1        0.2024
     16 C          -1.7420   -3.9000    0.0000 C.ar    1  LIG1        0.0014
     17 C          -0.8750   -4.4080    0.0000 C.ar    1  LIG1       -0.0004
     18 C          -0.0130   -3.9170    0.0000 C.ar    1  LIG1       -0.0019
     19 C           1.8290   -2.2710    0.0000 C.3     1  LIG1        0.0538
     20 C           2.1750   -1.3290    0.0000 C.3     1  LIG1        0.0987
     21 O           1.3630   -3.2960    0.0000 O.3     1  LIG1       -0.2211
     22 C           2.2380    1.3880    0.0000 C.ar    1  LIG1        0.1254
     23 C           3.2130    1.5670    0.0000 C.ar    1  LIG1        0.0599
     24 C           3.5500    2.5250    0.0000 C.ar    1  LIG1        0.1737
     25 C           2.9170    3.3210    0.0000 C.ar    1  LIG1        0.1725
     26 C           1.9330    3.1290    0.0000 C.ar    1  LIG1        0.0414
     27 C           1.5960    2.1750    0.0000 C.ar    1  LIG1        0.0232
     28 O           3.2630    4.2380    0.0000 O.3     1  LIG1       -0.4684
     29 C           4.2460    4.4080    0.0000 C.3     1  LIG1        0.2526
     30 O           4.5330    2.6920    0.0000 O.3     1  LIG1       -0.4683
     31 C           5.1790    1.9330    0.0000 C.3     1  LIG1        0.2526
     32 O           2.8250    0.0710    0.0000 O.2     1  LIG1       -0.1528
     33 O           0.9630    0.7830    0.0000 O.2     1  LIG1       -0.1528
@<TRIPOS>BOND
     1     1     2    1
     2     1    22    1
     3     1    32    2
     4     1    33    2
     5     2     3    1
     6     2    20    1
     7     3     4    1
     8     4     5    1
     9     5     6    1
    10     5    19    1
    11     5    21    1
    12     6     7   ar
    13     6    18   ar
    14     7     8   ar
    15     8     9    1
    16     8    16   ar
    17     9    10    1
    18    10    11    1
    19    10    15    1
    20    11    12    1
    21    11    14    1
    22    12    13    1
    23    16    17   ar
    24    17    18   ar
    25    19    20    1
    26    22    23   ar
    27    22    27   ar
    28    23    24   ar
    29    24    25   ar
    30    24    30    1
    31    25    26   ar
    32    25    28    1
    33    26    27   ar
    34    28    29    1
    35    30    31    1
