@<TRIPOS>MOLECULE
37730_ChemDiv_C690-0037
 30 34 0 0 0
SMALL
GASTEIGER
Energy = 0

@<TRIPOS>ATOM
      1 C           2.6460   -1.8000    0.0000 C.ar    1  LIG1        0.0921
      2 C           1.9040   -2.4670    0.0000 C.ar    1  LIG1        0.0888
      3 N           2.3130   -3.3790    0.0000 N.ar    1  LIG1       -0.2280
      4 N           3.3080   -3.2790    0.0000 N.ar    1  LIG1       -0.1633
      5 C           3.5170   -2.3000    0.0000 C.ar    1  LIG1        0.1265
      6 C           1.7250   -4.1920    0.0000 C.ar    1  LIG1        0.1004
      7 C           0.7290   -4.0880    0.0000 C.ar    1  LIG1        0.0207
      8 C           0.3210   -3.1710    0.0000 C.ar    1  LIG1        0.0031
      9 C           0.9080   -2.3630    0.0000 C.ar    1  LIG1        0.0194
     10 C           2.5420   -0.8040    0.0000 C.2     1  LIG1        0.2524
     11 N           1.6750   -0.3080    0.0000 N.am    1  LIG1       -0.2644
     12 C           0.8080   -0.8040    0.0000 C.3     1  LIG1        0.1567
     13 C          -0.0580   -0.3080    0.0000 C.3     1  LIG1        0.1612
     14 N          -0.0580    0.6960    0.0000 N.4     1  LIG1        0.3820
     15 C          -0.9210    1.1960    0.0000 C.3     1  LIG1        0.1331
     16 C          -1.7830    0.6960    0.0000 C.ar    1  LIG1        0.0328
     17 C          -1.7830   -0.3080    0.0000 C.ar    1  LIG1        0.0016
     18 C          -2.6540   -0.8040    0.0000 C.ar    1  LIG1       -0.0001
     19 C          -3.5210   -0.3080    0.0000 C.ar    1  LIG1       -0.0000
     20 C          -3.5210    0.6960    0.0000 C.ar    1  LIG1       -0.0001
     21 C          -2.6540    1.1960    0.0000 C.ar    1  LIG1        0.0016
     22 C          -0.9210    2.1920    0.0000 C.ar    1  LIG1        0.0328
     23 C          -1.7830    2.6920    0.0000 C.ar    1  LIG1        0.0016
     24 C          -1.7830    3.6920    0.0000 C.ar    1  LIG1       -0.0001
     25 C          -0.9210    4.1920    0.0000 C.ar    1  LIG1       -0.0000
     26 C          -0.0580    3.6920    0.0000 C.ar    1  LIG1       -0.0001
     27 C          -0.0580    2.6920    0.0000 C.ar    1  LIG1        0.0016
     28 C           0.8080    1.1960    0.0000 C.3     1  LIG1        0.1612
     29 C           1.6750    0.6960    0.0000 C.3     1  LIG1        0.1567
     30 O           3.3540   -0.2170    0.0000 O.2     1  LIG1       -0.2698
@<TRIPOS>BOND
     1     1     2   ar
     2     1     5   ar
     3     1    10    1
     4     2     3   ar
     5     2     9   ar
     6     3     4   ar
     7     3     6   ar
     8     4     5   ar
     9     6     7   ar
    10     7     8   ar
    11     8     9   ar
    12    10    11   am
    13    10    30    2
    14    11    12    1
    15    11    29    1
    16    12    13    1
    17    13    14    1
    18    14    15    1
    19    14    28    1
    20    15    16    1
    21    15    22    1
    22    16    17   ar
    23    16    21   ar
    24    17    18   ar
    25    18    19   ar
    26    19    20   ar
    27    20    21   ar
    28    22    23   ar
    29    22    27   ar
    30    23    24   ar
    31    24    25   ar
    32    25    26   ar
    33    26    27   ar
    34    28    29    1
