@<TRIPOS>MOLECULE
37737_ChemDiv_C614-0935
 30 33 0 0 0
SMALL
GASTEIGER
Energy = 0

@<TRIPOS>ATOM
      1 N          -2.4580   -0.3170    0.0000 N.ar    1  LIG1       -0.2961
      2 C          -1.8750    0.4880    0.0000 C.ar    1  LIG1        0.1222
      3 N          -2.4580    1.3040    0.0000 N.ar    1  LIG1       -0.2293
      4 C          -3.4130    0.9920    0.0000 C.ar    1  LIG1        0.1167
      5 C          -3.4130    0.0000    0.0000 C.ar    1  LIG1        0.1627
      6 N          -4.2790   -0.5080    0.0000 N.ar    1  LIG1       -0.2252
      7 C          -5.1420    0.0000    0.0000 C.ar    1  LIG1        0.1006
      8 C          -5.1420    0.9920    0.0000 C.ar    1  LIG1        0.0223
      9 C          -4.2790    1.4920    0.0000 C.ar    1  LIG1        0.0238
     10 C          -0.8750    0.4880    0.0000 C.3     1  LIG1        0.0736
     11 C          -0.3750    1.3500    0.0000 C.3     1  LIG1        0.0951
     12 C           0.6290    1.3500    0.0000 C.2     1  LIG1        0.2460
     13 N           1.1290    2.2130    0.0000 N.am    1  LIG1       -0.1792
     14 C           2.1290    2.2130    0.0000 C.ar    1  LIG1        0.0734
     15 C           2.6290    3.0790    0.0000 C.ar    1  LIG1        0.0171
     16 C           3.6250    3.0920    0.0000 C.ar    1  LIG1        0.0080
     17 C           4.1250    2.2130    0.0000 C.ar    1  LIG1        0.0347
     18 BR          5.1380    2.2130    0.0000 Br      1  LIG1       -0.0490
     19 C           3.6250    1.3380    0.0000 C.ar    1  LIG1        0.0080
     20 C           2.6290    1.3500    0.0000 C.ar    1  LIG1        0.0171
     21 O           1.1290    0.4880    0.0000 O.2     1  LIG1       -0.2730
     22 C          -2.1580   -1.2710    0.0000 C.3     1  LIG1        0.1353
     23 C          -1.1790   -1.4830    0.0000 C.ar    1  LIG1        0.0007
     24 C          -0.5080   -0.7420    0.0000 C.ar    1  LIG1        0.0007
     25 C           0.4630   -0.9500    0.0000 C.ar    1  LIG1        0.0366
     26 C           0.7750   -1.9040    0.0000 C.ar    1  LIG1        0.1387
     27 C           0.1000   -2.6420    0.0000 C.ar    1  LIG1        0.0366
     28 C          -0.8710   -2.4290    0.0000 C.ar    1  LIG1        0.0007
     29 O           1.7500   -2.1290    0.0000 O.3     1  LIG1       -0.4714
     30 C           2.0540   -3.0880    0.0000 C.3     1  LIG1        0.2525
@<TRIPOS>BOND
     1     1     2   ar
     2     1     5   ar
     3     1    22    1
     4     2     3   ar
     5     2    10    1
     6     3     4   ar
     7     4     5   ar
     8     4     9   ar
     9     5     6   ar
    10     6     7   ar
    11     7     8   ar
    12     8     9   ar
    13    10    11    1
    14    11    12    1
    15    12    13   am
    16    12    21    2
    17    13    14    1
    18    14    15   ar
    19    14    20   ar
    20    15    16   ar
    21    16    17   ar
    22    17    18    1
    23    17    19   ar
    24    19    20   ar
    25    22    23    1
    26    23    24   ar
    27    23    28   ar
    28    24    25   ar
    29    25    26   ar
    30    26    27   ar
    31    26    29    1
    32    27    28   ar
    33    29    30    1
