@<TRIPOS>MOLECULE
37732_ChemDiv_C690-0042
 18 20 0 0 0
SMALL
GASTEIGER
Energy = 0

@<TRIPOS>ATOM
      1 C           1.3460   -0.3000    0.0000 C.ar    1  LIG1        0.0921
      2 C           0.6040   -0.9670    0.0000 C.ar    1  LIG1        0.0888
      3 N           1.0130   -1.8790    0.0000 N.ar    1  LIG1       -0.2280
      4 N           2.0080   -1.7750    0.0000 N.ar    1  LIG1       -0.1633
      5 C           2.2170   -0.7960    0.0000 C.ar    1  LIG1        0.1265
      6 C           0.4250   -2.6880    0.0000 C.ar    1  LIG1        0.1004
      7 C          -0.5710   -2.5880    0.0000 C.ar    1  LIG1        0.0207
      8 C          -0.9790   -1.6710    0.0000 C.ar    1  LIG1        0.0031
      9 C          -0.3920   -0.8630    0.0000 C.ar    1  LIG1        0.0194
     10 C           1.2420    0.6960    0.0000 C.2     1  LIG1        0.2521
     11 N           0.3750    1.1920    0.0000 N.am    1  LIG1       -0.2760
     12 C          -0.4880    0.6960    0.0000 C.3     1  LIG1        0.0937
     13 C          -1.3580    1.1920    0.0000 C.3     1  LIG1        0.0216
     14 C          -1.3580    2.1960    0.0000 C.3     1  LIG1        0.0034
     15 C          -0.4880    2.6920    0.0000 C.3     1  LIG1        0.0216
     16 C           0.3750    2.1960    0.0000 C.3     1  LIG1        0.0937
     17 C          -2.2210    2.6920    0.0000 C.3     1  LIG1        0.0001
     18 O           2.0540    1.2830    0.0000 O.2     1  LIG1       -0.2698
@<TRIPOS>BOND
     1     1     2   ar
     2     1     5   ar
     3     1    10    1
     4     2     3   ar
     5     2     9   ar
     6     3     4   ar
     7     3     6   ar
     8     4     5   ar
     9     6     7   ar
    10     7     8   ar
    11     8     9   ar
    12    10    11   am
    13    10    18    2
    14    11    12    1
    15    11    16    1
    16    12    13    1
    17    13    14    1
    18    14    15    1
    19    14    17    1
    20    15    16    1
