@<TRIPOS>MOLECULE
37736_ChemDiv_C690-0048
 23 26 0 0 0
SMALL
GASTEIGER
Energy = 0

@<TRIPOS>ATOM
      1 C           2.2130   -1.0500    0.0000 C.ar    1  LIG1        0.0921
      2 C           1.4710   -1.7170    0.0000 C.ar    1  LIG1        0.0888
      3 N           1.8790   -2.6290    0.0000 N.ar    1  LIG1       -0.2280
      4 N           2.8750   -2.5250    0.0000 N.ar    1  LIG1       -0.1633
      5 C           3.0830   -1.5460    0.0000 C.ar    1  LIG1        0.1265
      6 C           1.2920   -3.4380    0.0000 C.ar    1  LIG1        0.1004
      7 C           0.2960   -3.3380    0.0000 C.ar    1  LIG1        0.0207
      8 C          -0.1130   -2.4210    0.0000 C.ar    1  LIG1        0.0031
      9 C           0.4750   -1.6130    0.0000 C.ar    1  LIG1        0.0194
     10 C           2.1080   -0.0540    0.0000 C.2     1  LIG1        0.2524
     11 N           1.2420    0.4420    0.0000 N.am    1  LIG1       -0.2644
     12 C           1.2420    1.4460    0.0000 C.3     1  LIG1        0.1567
     13 C           0.3790    1.9460    0.0000 C.3     1  LIG1        0.1602
     14 N          -0.4920    1.4460    0.0000 N.4     1  LIG1        0.3757
     15 C          -0.4920    0.4420    0.0000 C.3     1  LIG1        0.1602
     16 C           0.3790   -0.0540    0.0000 C.3     1  LIG1        0.1567
     17 C          -1.3540    1.9460    0.0000 C.3     1  LIG1        0.0870
     18 C          -2.2170    1.4460    0.0000 C.3     1  LIG1        0.0567
     19 C          -3.0880    1.9460    0.0000 C.3     1  LIG1        0.0059
     20 C          -3.0880    2.9420    0.0000 C.3     1  LIG1        0.0004
     21 C          -2.2170    3.4420    0.0000 C.3     1  LIG1        0.0059
     22 C          -1.3540    2.9420    0.0000 C.3     1  LIG1        0.0567
     23 O           2.9210    0.5330    0.0000 O.2     1  LIG1       -0.2698
@<TRIPOS>BOND
     1     1     2   ar
     2     1     5   ar
     3     1    10    1
     4     2     3   ar
     5     2     9   ar
     6     3     4   ar
     7     3     6   ar
     8     4     5   ar
     9     6     7   ar
    10     7     8   ar
    11     8     9   ar
    12    10    11   am
    13    10    23    2
    14    11    12    1
    15    11    16    1
    16    12    13    1
    17    13    14    1
    18    14    15    1
    19    14    17    1
    20    15    16    1
    21    17    18    1
    22    17    22    1
    23    18    19    1
    24    19    20    1
    25    20    21    1
    26    21    22    1
