@<TRIPOS>MOLECULE
37733_ChemDiv_C614-0936
 32 35 0 0 0
SMALL
GASTEIGER
Energy = 0

@<TRIPOS>ATOM
      1 N          -2.7080   -0.7460    0.0000 N.ar    1  LIG1       -0.2961
      2 C          -2.1290    0.0580    0.0000 C.ar    1  LIG1        0.1222
      3 N          -2.7080    0.8710    0.0000 N.ar    1  LIG1       -0.2293
      4 C          -3.6580    0.5670    0.0000 C.ar    1  LIG1        0.1167
      5 C          -3.6580   -0.4330    0.0000 C.ar    1  LIG1        0.1627
      6 N          -4.5210   -0.9330    0.0000 N.ar    1  LIG1       -0.2252
      7 C          -5.3880   -0.4330    0.0000 C.ar    1  LIG1        0.1006
      8 C          -5.3880    0.5670    0.0000 C.ar    1  LIG1        0.0223
      9 C          -4.5210    1.0670    0.0000 C.ar    1  LIG1        0.0238
     10 C          -1.1290    0.0540    0.0000 C.3     1  LIG1        0.0736
     11 C          -0.6290    0.9170    0.0000 C.3     1  LIG1        0.0951
     12 C           0.3830    0.9170    0.0000 C.2     1  LIG1        0.2460
     13 N           0.8830    1.7830    0.0000 N.am    1  LIG1       -0.1792
     14 C           1.8880    1.7830    0.0000 C.ar    1  LIG1        0.0744
     15 C           2.3790    2.6580    0.0000 C.ar    1  LIG1        0.0310
     16 C           3.3790    2.6580    0.0000 C.ar    1  LIG1        0.0928
     17 C           3.8830    1.7830    0.0000 C.ar    1  LIG1        0.1492
     18 C           3.3880    0.9170    0.0000 C.ar    1  LIG1        0.0391
     19 C           2.3790    0.9170    0.0000 C.ar    1  LIG1        0.0198
     20 O           4.8830    1.7830    0.0000 O.3     1  LIG1       -0.4706
     21 C           5.3830    0.9210    0.0000 C.3     1  LIG1        0.2525
     22 CL          3.8710    3.5210    0.0000 Cl      1  LIG1       -0.0790
     23 O           0.8830    0.0540    0.0000 O.2     1  LIG1       -0.2730
     24 C          -2.4000   -1.7000    0.0000 C.3     1  LIG1        0.1353
     25 C          -1.4290   -1.9130    0.0000 C.ar    1  LIG1        0.0007
     26 C          -0.7540   -1.1710    0.0000 C.ar    1  LIG1        0.0007
     27 C           0.2210   -1.3790    0.0000 C.ar    1  LIG1        0.0366
     28 C           0.5250   -2.3380    0.0000 C.ar    1  LIG1        0.1387
     29 C          -0.1420   -3.0670    0.0000 C.ar    1  LIG1        0.0366
     30 C          -1.1170   -2.8540    0.0000 C.ar    1  LIG1        0.0007
     31 O           1.5080   -2.5540    0.0000 O.3     1  LIG1       -0.4714
     32 C           1.8040   -3.5170    0.0000 C.3     1  LIG1        0.2525
@<TRIPOS>BOND
     1     1     2   ar
     2     1     5   ar
     3     1    24    1
     4     2     3   ar
     5     2    10    1
     6     3     4   ar
     7     4     5   ar
     8     4     9   ar
     9     5     6   ar
    10     6     7   ar
    11     7     8   ar
    12     8     9   ar
    13    10    11    1
    14    11    12    1
    15    12    13   am
    16    12    23    2
    17    13    14    1
    18    14    15   ar
    19    14    19   ar
    20    15    16   ar
    21    16    17   ar
    22    16    22    1
    23    17    18   ar
    24    17    20    1
    25    18    19   ar
    26    20    21    1
    27    24    25    1
    28    25    26   ar
    29    25    30   ar
    30    26    27   ar
    31    27    28   ar
    32    28    29   ar
    33    28    31    1
    34    29    30   ar
    35    31    32    1
