@<TRIPOS>MOLECULE
37742_ChemDiv_C690-0096
 31 35 0 0 0
SMALL
GASTEIGER
Energy = 0

@<TRIPOS>ATOM
      1 C          -1.7880   -2.2250    0.0000 C.ar    1  LIG1        0.0921
      2 C          -2.3290   -1.3830    0.0000 C.ar    1  LIG1        0.0888
      3 N          -3.2880   -1.6420    0.0000 N.ar    1  LIG1       -0.2280
      4 N          -3.3460   -2.6290    0.0000 N.ar    1  LIG1       -0.1633
      5 C          -2.4250   -2.9960    0.0000 C.ar    1  LIG1        0.1265
      6 C          -3.9920   -0.9290    0.0000 C.ar    1  LIG1        0.1004
      7 C          -3.7420    0.0130    0.0000 C.ar    1  LIG1        0.0207
      8 C          -2.7670    0.2790    0.0000 C.ar    1  LIG1        0.0031
      9 C          -2.0670   -0.4210    0.0000 C.ar    1  LIG1        0.0194
     10 C          -0.7920   -2.2830    0.0000 C.2     1  LIG1        0.2521
     11 N          -0.2460   -1.4380    0.0000 N.am    1  LIG1       -0.2760
     12 C          -0.7000   -0.5460    0.0000 C.3     1  LIG1        0.0938
     13 C          -0.1500    0.2920    0.0000 C.3     1  LIG1        0.0247
     14 C           0.8540    0.2290    0.0000 C.3     1  LIG1        0.0394
     15 C           1.4080    1.0710    0.0000 C.3     1  LIG1        0.1640
     16 C           0.5710    1.6250    0.0000 C.ar    1  LIG1        0.0089
     17 C           0.6290    2.6290    0.0000 C.ar    1  LIG1       -0.0016
     18 C          -0.2080    3.1710    0.0000 C.ar    1  LIG1       -0.0002
     19 C          -1.1000    2.7330    0.0000 C.ar    1  LIG1       -0.0000
     20 C          -1.1670    1.7420    0.0000 C.ar    1  LIG1       -0.0002
     21 C          -0.3330    1.1790    0.0000 C.ar    1  LIG1       -0.0016
     22 C           2.2500    0.5130    0.0000 C.ar    1  LIG1        0.0089
     23 C           2.1880   -0.4920    0.0000 C.ar    1  LIG1       -0.0016
     24 C           3.0250   -1.0330    0.0000 C.ar    1  LIG1       -0.0002
     25 C           3.9210   -0.5960    0.0000 C.ar    1  LIG1       -0.0000
     26 C           3.9880    0.4000    0.0000 C.ar    1  LIG1       -0.0002
     27 C           3.1500    0.9580    0.0000 C.ar    1  LIG1       -0.0016
     28 O           1.9710    1.9130    0.0000 O.3     1  LIG1       -0.2167
     29 C           1.3000   -0.6630    0.0000 C.3     1  LIG1        0.0247
     30 C           0.7580   -1.4960    0.0000 C.3     1  LIG1        0.0938
     31 O          -0.3420   -3.1670    0.0000 O.2     1  LIG1       -0.2698
@<TRIPOS>BOND
     1     1     2   ar
     2     1     5   ar
     3     1    10    1
     4     2     3   ar
     5     2     9   ar
     6     3     4   ar
     7     3     6   ar
     8     4     5   ar
     9     6     7   ar
    10     7     8   ar
    11     8     9   ar
    12    10    11   am
    13    10    31    2
    14    11    12    1
    15    11    30    1
    16    12    13    1
    17    13    14    1
    18    14    15    1
    19    14    29    1
    20    15    16    1
    21    15    22    1
    22    15    28    1
    23    16    17   ar
    24    16    21   ar
    25    17    18   ar
    26    18    19   ar
    27    19    20   ar
    28    20    21   ar
    29    22    23   ar
    30    22    27   ar
    31    23    24   ar
    32    24    25   ar
    33    25    26   ar
    34    26    27   ar
    35    29    30    1
