@<TRIPOS>MOLECULE
37740_ChemDiv_C690-0087
 20 22 0 0 0
SMALL
GASTEIGER
Energy = 0

@<TRIPOS>ATOM
      1 C           1.7790   -1.0500    0.0000 C.ar    1  LIG1        0.0935
      2 C           1.0380   -1.7170    0.0000 C.ar    1  LIG1        0.0888
      3 N           1.4460   -2.6290    0.0000 N.ar    1  LIG1       -0.2280
      4 N           2.4380   -2.5250    0.0000 N.ar    1  LIG1       -0.1633
      5 C           2.6460   -1.5460    0.0000 C.ar    1  LIG1        0.1266
      6 C           0.8580   -3.4380    0.0000 C.ar    1  LIG1        0.1004
      7 C          -0.1380   -3.3380    0.0000 C.ar    1  LIG1        0.0207
      8 C          -0.5460   -2.4210    0.0000 C.ar    1  LIG1        0.0031
      9 C           0.0420   -1.6130    0.0000 C.ar    1  LIG1        0.0194
     10 C           1.6750   -0.0540    0.0000 C.2     1  LIG1        0.2681
     11 N           0.8080    0.4420    0.0000 N.am    1  LIG1       -0.1967
     12 C           0.8080    1.4460    0.0000 C.3     1  LIG1        0.1418
     13 C          -0.0580    1.9460    0.0000 C.ar    1  LIG1       -0.0004
     14 C          -0.0580    2.9420    0.0000 C.ar    1  LIG1       -0.0002
     15 C          -0.9250    3.4420    0.0000 C.ar    1  LIG1        0.0294
     16 C          -1.7880    2.9420    0.0000 C.ar    1  LIG1        0.1401
     17 F          -2.6500    3.4420    0.0000 F       1  LIG1       -0.2042
     18 C          -1.7880    1.9460    0.0000 C.ar    1  LIG1        0.0294
     19 C          -0.9250    1.4460    0.0000 C.ar    1  LIG1       -0.0002
     20 O           2.4880    0.5330    0.0000 O.2     1  LIG1       -0.2683
@<TRIPOS>BOND
     1     1     2   ar
     2     1     5   ar
     3     1    10    1
     4     2     3   ar
     5     2     9   ar
     6     3     4   ar
     7     3     6   ar
     8     4     5   ar
     9     6     7   ar
    10     7     8   ar
    11     8     9   ar
    12    10    11   am
    13    10    20    2
    14    11    12    1
    15    12    13    1
    16    13    14   ar
    17    13    19   ar
    18    14    15   ar
    19    15    16   ar
    20    16    17    1
    21    16    18   ar
    22    18    19   ar
