@<TRIPOS>MOLECULE
37746_ChemDiv_C647-0350
 39 43 0 0 0
SMALL
GASTEIGER
Energy = 0

@<TRIPOS>ATOM
      1 C          -0.5420    2.7460    0.0000 C.ar    1  LIG1        0.0950
      2 C          -1.4330    3.2330    0.0000 C.ar    1  LIG1        0.2016
      3 C          -2.3130    2.7460    0.0000 C.ar    1  LIG1        0.0581
      4 C          -2.3290    1.7500    0.0000 C.ar    1  LIG1        0.0666
      5 N          -1.4330    1.2630    0.0000 N.ar    1  LIG1       -0.3174
      6 C          -0.5420    1.7500    0.0000 C.ar    1  LIG1        0.0827
      7 C          -1.4330    0.2670    0.0000 C.3     1  LIG1        0.1939
      8 C          -0.5710   -0.2330    0.0000 C.2     1  LIG1        0.2687
      9 N          -0.5710   -1.2330    0.0000 N.am    1  LIG1       -0.1745
     10 C           0.3040   -1.7330    0.0000 C.ar    1  LIG1        0.1074
     11 C           0.2920   -2.7330    0.0000 C.ar    1  LIG1        0.1569
     12 C           1.1670   -3.2330    0.0000 C.ar    1  LIG1        0.0751
     13 C           2.0330   -2.7330    0.0000 C.ar    1  LIG1        0.1418
     14 C           2.0170   -1.7290    0.0000 C.ar    1  LIG1        0.0384
     15 C           1.1540   -1.2330    0.0000 C.ar    1  LIG1        0.0228
     16 O           2.9000   -3.2290    0.0000 O.3     1  LIG1       -0.4713
     17 C           3.7630   -2.7170    0.0000 C.3     1  LIG1        0.2525
     18 O          -0.5830   -3.2290    0.0000 O.3     1  LIG1       -0.4700
     19 C          -0.5830   -4.2250    0.0000 C.3     1  LIG1        0.2525
     20 O           0.2920    0.2670    0.0000 O.2     1  LIG1       -0.2709
     21 C          -3.2080    1.2790    0.0000 C.ar    1  LIG1        0.0575
     22 C          -4.1000    1.7630    0.0000 C.ar    1  LIG1        0.1779
     23 C          -4.0830    2.7460    0.0000 C.ar    1  LIG1        0.1766
     24 C          -3.2080    3.2330    0.0000 C.ar    1  LIG1        0.0448
     25 O          -5.0250    3.0540    0.0000 O.3     1  LIG1       -0.4346
     26 C          -5.6080    2.2630    0.0000 C.3     1  LIG1        0.4294
     27 O          -5.0330    1.4630    0.0000 O.3     1  LIG1       -0.4346
     28 O          -1.4330    4.2250    0.0000 O.2     1  LIG1       -0.2864
     29 C           0.3380    3.2330    0.0000 C.2     1  LIG1        0.2001
     30 C           1.2130    2.7460    0.0000 C.ar    1  LIG1        0.0393
     31 C           1.2000    1.7630    0.0000 C.ar    1  LIG1        0.0063
     32 C           2.0750    1.2790    0.0000 C.ar    1  LIG1        0.0370
     33 C           2.9710    1.7500    0.0000 C.ar    1  LIG1        0.1386
     34 C           2.9710    2.7460    0.0000 C.ar    1  LIG1        0.0370
     35 C           2.0920    3.2330    0.0000 C.ar    1  LIG1        0.0063
     36 O           3.8330    1.2630    0.0000 O.3     1  LIG1       -0.4755
     37 C           4.7250    1.7500    0.0000 C.3     1  LIG1        0.2055
     38 C           5.6040    1.2630    0.0000 C.3     1  LIG1        0.0512
     39 O           0.3380    4.2130    0.0000 O.2     1  LIG1       -0.2864
@<TRIPOS>BOND
     1     1     2   ar
     2     1     6   ar
     3     1    29    1
     4     2     3   ar
     5     2    28    2
     6     3     4   ar
     7     3    24   ar
     8     4     5   ar
     9     4    21   ar
    10     5     6   ar
    11     5     7    1
    12     7     8    1
    13     8     9   am
    14     8    20    2
    15     9    10    1
    16    10    11   ar
    17    10    15   ar
    18    11    12   ar
    19    11    18    1
    20    12    13   ar
    21    13    14   ar
    22    13    16    1
    23    14    15   ar
    24    16    17    1
    25    18    19    1
    26    21    22   ar
    27    22    23   ar
    28    22    27    1
    29    23    24   ar
    30    23    25    1
    31    25    26    1
    32    26    27    1
    33    29    30    1
    34    29    39    2
    35    30    31   ar
    36    30    35   ar
    37    31    32   ar
    38    32    33   ar
    39    33    34   ar
    40    33    36    1
    41    34    35   ar
    42    36    37    1
    43    37    38    1
