@<TRIPOS>MOLECULE
37744_ChemDiv_C690-0123
 21 23 0 0 0
SMALL
GASTEIGER
Energy = 0

@<TRIPOS>ATOM
      1 C           1.3460   -1.8000    0.0000 C.ar    1  LIG1        0.0935
      2 C           0.6040   -2.4670    0.0000 C.ar    1  LIG1        0.0888
      3 N           1.0130   -3.3790    0.0000 N.ar    1  LIG1       -0.2280
      4 N           2.0080   -3.2750    0.0000 N.ar    1  LIG1       -0.1633
      5 C           2.2170   -2.2960    0.0000 C.ar    1  LIG1        0.1266
      6 C           0.4250   -4.1880    0.0000 C.ar    1  LIG1        0.1004
      7 C          -0.5710   -4.0880    0.0000 C.ar    1  LIG1        0.0207
      8 C          -0.9790   -3.1710    0.0000 C.ar    1  LIG1        0.0031
      9 C          -0.3920   -2.3630    0.0000 C.ar    1  LIG1        0.0194
     10 C           1.2420   -0.8040    0.0000 C.2     1  LIG1        0.2680
     11 O           2.0540   -0.2170    0.0000 O.2     1  LIG1       -0.2683
     12 N           0.3750   -0.3080    0.0000 N.am    1  LIG1       -0.1952
     13 C           0.3750    0.6960    0.0000 C.3     1  LIG1        0.1778
     14 C          -0.4880    1.1920    0.0000 C.3     1  LIG1        0.1621
     15 N          -0.4880    2.1920    0.0000 N.4     1  LIG1        0.3743
     16 C          -1.3580    2.6920    0.0000 C.3     1  LIG1        0.0871
     17 C          -2.2210    2.1920    0.0000 C.3     1  LIG1        0.0626
     18 C          -1.3580    3.6920    0.0000 C.3     1  LIG1        0.0569
     19 C          -0.4880    4.1880    0.0000 C.3     1  LIG1        0.0120
     20 C           0.3750    3.6920    0.0000 C.3     1  LIG1        0.0629
     21 C           0.3750    2.6920    0.0000 C.3     1  LIG1        0.1383
@<TRIPOS>BOND
     1     1     2   ar
     2     1     5   ar
     3     1    10    1
     4     2     3   ar
     5     2     9   ar
     6     3     4   ar
     7     3     6   ar
     8     4     5   ar
     9     6     7   ar
    10     7     8   ar
    11     8     9   ar
    12    10    11    2
    13    10    12   am
    14    12    13    1
    15    13    14    1
    16    14    15    1
    17    15    16    1
    18    15    21    1
    19    16    17    1
    20    16    18    1
    21    18    19    1
    22    19    20    1
    23    20    21    1
