@<TRIPOS>MOLECULE
37748_ChemDiv_C647-0465
 33 37 0 0 0
SMALL
GASTEIGER
Energy = 0

@<TRIPOS>ATOM
      1 C           0.7920    2.2500    0.0000 C.ar    1  LIG1        0.0950
      2 C          -0.0830    2.7500    0.0000 C.ar    1  LIG1        0.2016
      3 C          -0.9460    2.2500    0.0000 C.ar    1  LIG1        0.0581
      4 C          -0.9580    1.2380    0.0000 C.ar    1  LIG1        0.0666
      5 N          -0.0830    0.7420    0.0000 N.ar    1  LIG1       -0.3174
      6 C           0.7920    1.2380    0.0000 C.ar    1  LIG1        0.0827
      7 C          -0.1000   -0.2540    0.0000 C.3     1  LIG1        0.1939
      8 C           0.7580   -0.7540    0.0000 C.2     1  LIG1        0.2686
      9 N           0.7580   -1.7420    0.0000 N.am    1  LIG1       -0.1776
     10 C           1.6210   -2.2460    0.0000 C.ar    1  LIG1        0.0735
     11 C           2.4790   -1.7420    0.0000 C.ar    1  LIG1        0.0175
     12 C           3.3420   -2.2330    0.0000 C.ar    1  LIG1        0.0127
     13 C           3.3420   -3.2420    0.0000 C.ar    1  LIG1        0.0578
     14 CL          4.2000   -3.7420    0.0000 Cl      1  LIG1       -0.0822
     15 C           2.4790   -3.7420    0.0000 C.ar    1  LIG1        0.0127
     16 C           1.6210   -3.2420    0.0000 C.ar    1  LIG1        0.0175
     17 O           1.6210   -0.2540    0.0000 O.2     1  LIG1       -0.2709
     18 C          -1.8210    0.7420    0.0000 C.ar    1  LIG1        0.0575
     19 C          -2.6790    1.2380    0.0000 C.ar    1  LIG1        0.1779
     20 C          -2.6790    2.2540    0.0000 C.ar    1  LIG1        0.1766
     21 C          -1.8210    2.7500    0.0000 C.ar    1  LIG1        0.0448
     22 O          -3.6460    2.5670    0.0000 O.3     1  LIG1       -0.4346
     23 C          -4.2330    1.7540    0.0000 C.3     1  LIG1        0.4294
     24 O          -3.6460    0.9290    0.0000 O.3     1  LIG1       -0.4346
     25 O          -0.0830    3.7460    0.0000 O.2     1  LIG1       -0.2864
     26 C           1.6500    2.7330    0.0000 C.2     1  LIG1        0.2001
     27 O           1.6500    3.7460    0.0000 O.2     1  LIG1       -0.2864
     28 C           2.5080    2.2380    0.0000 C.ar    1  LIG1        0.0391
     29 C           3.3710    2.7330    0.0000 C.ar    1  LIG1        0.0032
     30 C           4.2290    2.2380    0.0000 C.ar    1  LIG1        0.0001
     31 C           4.2290    1.2380    0.0000 C.ar    1  LIG1        0.0000
     32 C           3.3540    0.7420    0.0000 C.ar    1  LIG1        0.0001
     33 C           2.4960    1.2380    0.0000 C.ar    1  LIG1        0.0032
@<TRIPOS>BOND
     1     1     2   ar
     2     1     6   ar
     3     1    26    1
     4     2     3   ar
     5     2    25    2
     6     3     4   ar
     7     3    21   ar
     8     4     5   ar
     9     4    18   ar
    10     5     6   ar
    11     5     7    1
    12     7     8    1
    13     8     9   am
    14     8    17    2
    15     9    10    1
    16    10    11   ar
    17    10    16   ar
    18    11    12   ar
    19    12    13   ar
    20    13    14    1
    21    13    15   ar
    22    15    16   ar
    23    18    19   ar
    24    19    20   ar
    25    19    24    1
    26    20    21   ar
    27    20    22    1
    28    22    23    1
    29    23    24    1
    30    26    27    2
    31    26    28    1
    32    28    29   ar
    33    28    33   ar
    34    29    30   ar
    35    30    31   ar
    36    31    32   ar
    37    32    33   ar
