@<TRIPOS>MOLECULE
37743_ChemDiv_C614-1032
 41 45 0 0 0
SMALL
GASTEIGER
Energy = 0

@<TRIPOS>ATOM
      1 N           0.9880   -2.4670    0.0000 N.ar    1  LIG1       -0.3280
      2 C           1.5500   -1.6330    0.0000 C.ar    1  LIG1        0.0372
      3 C           0.9880   -0.7880    0.0000 C.ar    1  LIG1        0.0089
      4 C           0.0880   -1.1130    0.0000 C.ar    1  LIG1        0.0166
      5 C           0.0880   -2.1500    0.0000 C.ar    1  LIG1        0.0597
      6 C          -0.7460   -2.6630    0.0000 C.ar    1  LIG1        0.0172
      7 C          -1.5710   -2.1500    0.0000 C.ar    1  LIG1        0.0015
      8 C          -1.5710   -1.1130    0.0000 C.ar    1  LIG1        0.0001
      9 C          -0.7460   -0.5830    0.0000 C.ar    1  LIG1        0.0015
     10 C           1.3290    0.1830    0.0000 C.2     1  LIG1       -0.0225
     11 C           2.2750    0.3670    0.0000 C.2     1  LIG1       -0.0112
     12 C           2.6080    1.3210    0.0000 C.3     1  LIG1        0.1215
     13 N           2.0040    2.1420    0.0000 N.3     1  LIG1       -0.1507
     14 S           2.3380    3.1290    0.0000 S.O2    1  LIG1        0.0636
     15 C           2.6630    4.1080    0.0000 C.ar    1  LIG1        0.1222
     16 C           3.6170    4.2920    0.0000 C.ar    1  LIG1        0.0196
     17 C           3.9500    5.2750    0.0000 C.ar    1  LIG1       -0.0029
     18 C           3.3380    6.0880    0.0000 C.ar    1  LIG1       -0.0218
     19 C           2.3670    5.9040    0.0000 C.ar    1  LIG1       -0.0029
     20 C           2.0420    4.9040    0.0000 C.ar    1  LIG1        0.0196
     21 C           3.6960    7.0130    0.0000 C.3     1  LIG1        0.0310
     22 O           3.2420    2.7580    0.0000 O.2     1  LIG1       -0.1528
     23 O           1.4250    3.4880    0.0000 O.2     1  LIG1       -0.1528
     24 C           1.0580    1.9630    0.0000 C.3     1  LIG1        0.1008
     25 C           0.7290    0.9880    0.0000 C.3     1  LIG1        0.0453
     26 C           2.5170   -1.6330    0.0000 C.3     1  LIG1        0.0500
     27 C           1.2920   -3.4380    0.0000 C.3     1  LIG1        0.1403
     28 C           0.6380   -4.2080    0.0000 C.3     1  LIG1        0.1958
     29 C           0.9580   -5.1580    0.0000 C.3     1  LIG1        0.1470
     30 N           0.2920   -5.9040    0.0000 N.pl3   1  LIG1       -0.2346
     31 C          -0.6830   -5.7080    0.0000 C.ar    1  LIG1        0.0714
     32 C          -0.9960   -4.7540    0.0000 C.ar    1  LIG1        0.0532
     33 C          -1.9830   -4.5580    0.0000 C.ar    1  LIG1        0.1430
     34 C          -2.6380   -5.3080    0.0000 C.ar    1  LIG1        0.0738
     35 C          -2.3210   -6.2540    0.0000 C.ar    1  LIG1        0.1430
     36 C          -1.3460   -6.4500    0.0000 C.ar    1  LIG1        0.0532
     37 O          -2.9790   -7.0130    0.0000 O.3     1  LIG1       -0.4713
     38 C          -3.9540   -6.8170    0.0000 C.3     1  LIG1        0.2525
     39 O          -2.3000   -3.6130    0.0000 O.3     1  LIG1       -0.4713
     40 C          -3.2750   -3.4080    0.0000 C.3     1  LIG1        0.2525
     41 O          -0.3170   -3.9960    0.0000 O.3     1  LIG1       -0.2191
@<TRIPOS>BOND
     1     1     2   ar
     2     1     5   ar
     3     1    27    1
     4     2     3   ar
     5     2    26    1
     6     3     4   ar
     7     3    10    1
     8     4     5   ar
     9     4     9   ar
    10     5     6   ar
    11     6     7   ar
    12     7     8   ar
    13     8     9   ar
    14    10    11    2
    15    10    25    1
    16    11    12    1
    17    12    13    1
    18    13    14    1
    19    13    24    1
    20    14    15    1
    21    14    22    2
    22    14    23    2
    23    15    16   ar
    24    15    20   ar
    25    16    17   ar
    26    17    18   ar
    27    18    19   ar
    28    18    21    1
    29    19    20   ar
    30    24    25    1
    31    27    28    1
    32    28    29    1
    33    28    41    1
    34    29    30    1
    35    30    31    1
    36    31    32   ar
    37    31    36   ar
    38    32    33   ar
    39    33    34   ar
    40    33    39    1
    41    34    35   ar
    42    35    36   ar
    43    35    37    1
    44    37    38    1
    45    39    40    1
