@<TRIPOS>MOLECULE
37749_ChemDiv_E760-3663
 35 39 0 0 0
SMALL
GASTEIGER
Energy = 0

@<TRIPOS>ATOM
      1 C          -0.7080    4.6420    0.0000 C.ar    1  LIG1        0.1488
      2 N          -1.2920    3.8420    0.0000 N.ar    1  LIG1       -0.2755
      3 C          -2.2420    4.1460    0.0000 C.ar    1  LIG1        0.1666
      4 C          -2.2420    5.1460    0.0000 C.ar    1  LIG1        0.1173
      5 N          -1.2920    5.4540    0.0000 N.ar    1  LIG1       -0.2249
      6 C          -3.1080    5.6460    0.0000 C.ar    1  LIG1        0.0238
      7 C          -3.9790    5.1380    0.0000 C.ar    1  LIG1        0.0223
      8 C          -3.9790    4.1500    0.0000 C.ar    1  LIG1        0.1006
      9 N          -3.1080    3.6500    0.0000 N.ar    1  LIG1       -0.2248
     10 C          -0.9830    2.8920    0.0000 C.ar    1  LIG1        0.0667
     11 C          -1.6540    2.1460    0.0000 C.ar    1  LIG1        0.0173
     12 C          -1.3460    1.2000    0.0000 C.ar    1  LIG1       -0.0023
     13 C          -0.3630    0.9880    0.0000 C.ar    1  LIG1       -0.0130
     14 C          -0.0540    0.0420    0.0000 C.3     1  LIG1        0.1116
     15 C           0.9210   -0.1670    0.0000 C.2     1  LIG1        0.2301
     16 N           1.2380   -1.1130    0.0000 N.am    1  LIG1       -0.2792
     17 C           0.5000   -1.7880    0.0000 C.3     1  LIG1        0.0940
     18 C           0.7170   -2.7630    0.0000 C.3     1  LIG1        0.0326
     19 C           1.6670   -3.0710    0.0000 C.3     1  LIG1        0.1025
     20 C           1.8880   -4.0630    0.0000 C.2     1  LIG1        0.3165
     21 O           1.1290   -4.7250    0.0000 O.2     1  LIG1       -0.2501
     22 O           2.8380   -4.3500    0.0000 O.3     1  LIG1       -0.4485
     23 C           3.0540   -5.3380    0.0000 C.3     1  LIG1        0.2086
     24 C           3.9750   -5.6460    0.0000 C.3     1  LIG1        0.0513
     25 C           2.4130   -2.3880    0.0000 C.3     1  LIG1        0.0326
     26 C           2.2080   -1.4130    0.0000 C.3     1  LIG1        0.0940
     27 O           1.5920    0.5790    0.0000 O.2     1  LIG1       -0.2745
     28 C           0.3080    1.7380    0.0000 C.ar    1  LIG1       -0.0023
     29 C          -0.0080    2.6920    0.0000 C.ar    1  LIG1        0.0173
     30 C           0.2920    4.6290    0.0000 C.ar    1  LIG1        0.0345
     31 C           0.7880    5.4920    0.0000 C.ar    1  LIG1        0.0030
     32 C           1.7830    5.4920    0.0000 C.ar    1  LIG1        0.0001
     33 C           2.2880    4.6210    0.0000 C.ar    1  LIG1        0.0000
     34 C           1.7830    3.7630    0.0000 C.ar    1  LIG1        0.0001
     35 C           0.7830    3.7670    0.0000 C.ar    1  LIG1        0.0030
@<TRIPOS>BOND
     1     1     2   ar
     2     1     5   ar
     3     1    30    1
     4     2     3   ar
     5     2    10    1
     6     3     4   ar
     7     3     9   ar
     8     4     5   ar
     9     4     6   ar
    10     6     7   ar
    11     7     8   ar
    12     8     9   ar
    13    10    11   ar
    14    10    29   ar
    15    11    12   ar
    16    12    13   ar
    17    13    14    1
    18    13    28   ar
    19    14    15    1
    20    15    16   am
    21    15    27    2
    22    16    17    1
    23    16    26    1
    24    17    18    1
    25    18    19    1
    26    19    20    1
    27    19    25    1
    28    20    21    2
    29    20    22    1
    30    22    23    1
    31    23    24    1
    32    25    26    1
    33    28    29   ar
    34    30    31   ar
    35    30    35   ar
    36    31    32   ar
    37    32    33   ar
    38    33    34   ar
    39    34    35   ar
