@<TRIPOS>MOLECULE
37747_ChemDiv_E760-3260
 29 32 0 0 0
SMALL
GASTEIGER
Energy = 0

@<TRIPOS>ATOM
      1 N          -1.0000    3.7380    0.0000 N.ar    1  LIG1       -0.2789
      2 C          -0.4170    4.5330    0.0000 C.ar    1  LIG1        0.1253
      3 N          -1.0000    5.3460    0.0000 N.ar    1  LIG1       -0.2290
      4 C          -1.9500    5.0420    0.0000 C.ar    1  LIG1        0.1170
      5 C          -1.9500    4.0370    0.0000 C.ar    1  LIG1        0.1663
      6 N          -2.8170    3.5460    0.0000 N.ar    1  LIG1       -0.2248
      7 C          -3.6920    4.0460    0.0000 C.ar    1  LIG1        0.1006
      8 C          -3.6920    5.0330    0.0000 C.ar    1  LIG1        0.0223
      9 C          -2.8170    5.5380    0.0000 C.ar    1  LIG1        0.0238
     10 C           0.5830    4.5250    0.0000 C.3     1  LIG1        0.0643
     11 C           1.0790    3.6670    0.0000 C.3     1  LIG1        0.0084
     12 C          -0.6920    2.7830    0.0000 C.ar    1  LIG1        0.0664
     13 C           0.2830    2.5830    0.0000 C.ar    1  LIG1        0.0173
     14 C           0.6000    1.6290    0.0000 C.ar    1  LIG1       -0.0023
     15 C          -0.0710    0.8790    0.0000 C.ar    1  LIG1       -0.0129
     16 C           0.2380   -0.0710    0.0000 C.3     1  LIG1        0.1131
     17 C           1.2130   -0.2790    0.0000 C.2     1  LIG1        0.2458
     18 O           1.8830    0.4710    0.0000 O.2     1  LIG1       -0.2730
     19 N           1.5290   -1.2250    0.0000 N.am    1  LIG1       -0.2048
     20 C           2.0670   -2.0880    0.0000 C.3     1  LIG1        0.1195
     21 C           1.6250   -2.9710    0.0000 C.3     1  LIG1        0.0451
     22 C           2.1580   -3.7960    0.0000 C.2     1  LIG1       -0.0467
     23 C           1.7040   -4.7040    0.0000 C.2     1  LIG1       -0.0346
     24 C           2.2380   -5.5380    0.0000 C.3     1  LIG1        0.0254
     25 C           3.2460   -5.5000    0.0000 C.3     1  LIG1        0.0050
     26 C           3.6880   -4.6080    0.0000 C.3     1  LIG1        0.0047
     27 C           3.1500   -3.7580    0.0000 C.3     1  LIG1        0.0218
     28 C          -1.0540    1.0880    0.0000 C.ar    1  LIG1       -0.0023
     29 C          -1.3630    2.0380    0.0000 C.ar    1  LIG1        0.0173
@<TRIPOS>BOND
     1     1     2   ar
     2     1     5   ar
     3     1    12    1
     4     2     3   ar
     5     2    10    1
     6     3     4   ar
     7     4     5   ar
     8     4     9   ar
     9     5     6   ar
    10     6     7   ar
    11     7     8   ar
    12     8     9   ar
    13    10    11    1
    14    12    13   ar
    15    12    29   ar
    16    13    14   ar
    17    14    15   ar
    18    15    16    1
    19    15    28   ar
    20    16    17    1
    21    17    18    2
    22    17    19   am
    23    19    20    1
    24    20    21    1
    25    21    22    1
    26    22    23    2
    27    22    27    1
    28    23    24    1
    29    24    25    1
    30    25    26    1
    31    26    27    1
    32    28    29   ar
