@<TRIPOS>MOLECULE
37753_ChemDiv_C619-0190
 24 27 0 0 0
SMALL
GASTEIGER
Energy = 0

@<TRIPOS>ATOM
      1 N           0.3830    1.2330    0.0000 N.ar    1  LIG1       -0.1789
      2 C          -0.4630    0.7000    0.0000 C.ar    1  LIG1        0.1694
      3 C          -1.2330    1.3460    0.0000 C.ar    1  LIG1        0.0724
      4 C          -0.8580    2.2710    0.0000 C.ar    1  LIG1        0.1924
      5 N           0.1380    2.1960    0.0000 N.ar    1  LIG1       -0.1429
      6 N          -1.3830    3.1250    0.0000 N.pl3   1  LIG1       -0.1053
      7 C          -2.1750    1.0080    0.0000 C.ar    1  LIG1        0.0075
      8 C          -2.3420    0.0210    0.0000 C.ar    1  LIG1        0.0179
      9 C          -1.5790   -0.6250    0.0000 C.ar    1  LIG1        0.0826
     10 N          -0.6460   -0.2790    0.0000 N.ar    1  LIG1       -0.2264
     11 C          -1.7500   -1.6040    0.0000 C.ar    1  LIG1        0.0149
     12 C          -2.6880   -1.9460    0.0000 C.ar    1  LIG1       -0.0204
     13 C          -3.4630   -1.2920    0.0000 C.ar    1  LIG1       -0.0042
     14 C          -3.2790   -0.3210    0.0000 C.ar    1  LIG1        0.0012
     15 C          -2.8380   -2.9380    0.0000 C.3     1  LIG1        0.0311
     16 C           1.3080    0.8580    0.0000 C.2     1  LIG1        0.2582
     17 O           2.1000    1.4710    0.0000 O.2     1  LIG1       -0.2701
     18 C           1.4580   -0.1420    0.0000 C.3     1  LIG1        0.0900
     19 C           2.3830   -0.5170    0.0000 C.3     1  LIG1        0.0099
     20 C           2.5170   -1.5040    0.0000 C.3     1  LIG1        0.0005
     21 C           3.4580   -1.8830    0.0000 C.3     1  LIG1        0.0000
     22 C           3.3880   -2.8790    0.0000 C.3     1  LIG1        0.0000
     23 C           2.4130   -3.1210    0.0000 C.3     1  LIG1        0.0000
     24 C           1.8830   -2.2790    0.0000 C.3     1  LIG1        0.0000
@<TRIPOS>BOND
     1     1     2   ar
     2     1     5   ar
     3     1    16   am
     4     2     3   ar
     5     2    10   ar
     6     3     4   ar
     7     3     7   ar
     8     4     5   ar
     9     4     6    1
    10     7     8   ar
    11     8     9   ar
    12     8    14   ar
    13     9    10   ar
    14     9    11   ar
    15    11    12   ar
    16    12    13   ar
    17    12    15    1
    18    13    14   ar
    19    16    17    2
    20    16    18    1
    21    18    19    1
    22    19    20    1
    23    20    21    1
    24    20    24    1
    25    21    22    1
    26    22    23    1
    27    23    24    1
