@<TRIPOS>MOLECULE
37756_ChemDiv_C647-0067
 37 42 0 0 0
SMALL
GASTEIGER
Energy = 0

@<TRIPOS>ATOM
      1 C           0.3420    2.2380    0.0000 C.ar    1  LIG1        0.0950
      2 C          -0.5500    2.7500    0.0000 C.ar    1  LIG1        0.2016
      3 C          -1.4250    2.2380    0.0000 C.ar    1  LIG1        0.0581
      4 C          -1.4380    1.2420    0.0000 C.ar    1  LIG1        0.0666
      5 N          -0.5500    0.7500    0.0000 N.ar    1  LIG1       -0.3174
      6 C           0.3420    1.2420    0.0000 C.ar    1  LIG1        0.0827
      7 C          -0.5500   -0.2290    0.0000 C.3     1  LIG1        0.1939
      8 C           0.3130   -0.7380    0.0000 C.2     1  LIG1        0.2686
      9 N           0.3130   -1.7330    0.0000 N.am    1  LIG1       -0.1775
     10 C           1.1790   -2.2330    0.0000 C.ar    1  LIG1        0.0767
     11 C           2.0330   -1.7330    0.0000 C.ar    1  LIG1        0.0568
     12 C           2.8960   -2.2210    0.0000 C.ar    1  LIG1        0.1777
     13 C           2.9000   -3.2290    0.0000 C.ar    1  LIG1        0.1765
     14 O           3.8630   -3.5380    0.0000 O.3     1  LIG1       -0.4346
     15 C           4.4500   -2.7170    0.0000 C.3     1  LIG1        0.4294
     16 O           3.8500   -1.9000    0.0000 O.3     1  LIG1       -0.4346
     17 C           2.0380   -3.7290    0.0000 C.ar    1  LIG1        0.0415
     18 C           1.1750   -3.2290    0.0000 C.ar    1  LIG1        0.0199
     19 O           1.1750   -0.2290    0.0000 O.2     1  LIG1       -0.2709
     20 C          -2.3130    0.7580    0.0000 C.ar    1  LIG1        0.0575
     21 C          -3.1920    1.2500    0.0000 C.ar    1  LIG1        0.1779
     22 C          -3.1830    2.2380    0.0000 C.ar    1  LIG1        0.1766
     23 C          -2.3130    2.7290    0.0000 C.ar    1  LIG1        0.0448
     24 O          -4.1250    2.5500    0.0000 O.3     1  LIG1       -0.4346
     25 C          -4.7080    1.7540    0.0000 C.3     1  LIG1        0.4294
     26 O          -4.1380    0.9500    0.0000 O.3     1  LIG1       -0.4346
     27 O          -0.5500    3.7330    0.0000 O.2     1  LIG1       -0.2864
     28 C           1.2080    2.7290    0.0000 C.2     1  LIG1        0.2001
     29 C           2.0790    2.2380    0.0000 C.ar    1  LIG1        0.0391
     30 C           2.0630    1.2500    0.0000 C.ar    1  LIG1        0.0029
     31 C           2.9420    0.7580    0.0000 C.ar    1  LIG1       -0.0042
     32 C           3.8290    1.2420    0.0000 C.ar    1  LIG1       -0.0222
     33 C           3.8290    2.2380    0.0000 C.ar    1  LIG1       -0.0042
     34 C           2.9540    2.7290    0.0000 C.ar    1  LIG1        0.0029
     35 C           4.7040    0.7500    0.0000 C.3     1  LIG1        0.0264
     36 C           4.6920   -0.2290    0.0000 C.3     1  LIG1        0.0050
     37 O           1.2080    3.7250    0.0000 O.2     1  LIG1       -0.2864
@<TRIPOS>BOND
     1     1     2   ar
     2     1     6   ar
     3     1    28    1
     4     2     3   ar
     5     2    27    2
     6     3     4   ar
     7     3    23   ar
     8     4     5   ar
     9     4    20   ar
    10     5     6   ar
    11     5     7    1
    12     7     8    1
    13     8     9   am
    14     8    19    2
    15     9    10    1
    16    10    11   ar
    17    10    18   ar
    18    11    12   ar
    19    12    13   ar
    20    12    16    1
    21    13    14    1
    22    13    17   ar
    23    14    15    1
    24    15    16    1
    25    17    18   ar
    26    20    21   ar
    27    21    22   ar
    28    21    26    1
    29    22    23   ar
    30    22    24    1
    31    24    25    1
    32    25    26    1
    33    28    29    1
    34    28    37    2
    35    29    30   ar
    36    29    34   ar
    37    30    31   ar
    38    31    32   ar
    39    32    33   ar
    40    32    35    1
    41    33    34   ar
    42    35    36    1
