@<TRIPOS>MOLECULE
37750_ChemDiv_C647-0466
 34 38 0 0 0
SMALL
GASTEIGER
Energy = 0

@<TRIPOS>ATOM
      1 C           0.3380    2.2540    0.0000 C.ar    1  LIG1        0.0950
      2 C          -0.5580    2.7750    0.0000 C.ar    1  LIG1        0.2016
      3 C          -1.4170    2.2540    0.0000 C.ar    1  LIG1        0.0581
      4 C          -1.4420    1.2500    0.0000 C.ar    1  LIG1        0.0666
      5 N          -0.5580    0.7710    0.0000 N.ar    1  LIG1       -0.3174
      6 C           0.3380    1.2500    0.0000 C.ar    1  LIG1        0.0827
      7 C          -0.5580   -0.2250    0.0000 C.3     1  LIG1        0.1939
      8 C           0.3170   -0.7330    0.0000 C.2     1  LIG1        0.2686
      9 N           0.3170   -1.7380    0.0000 N.am    1  LIG1       -0.1776
     10 C           1.1830   -2.2330    0.0000 C.ar    1  LIG1        0.0735
     11 C           2.0420   -1.7380    0.0000 C.ar    1  LIG1        0.0175
     12 C           2.9130   -2.2290    0.0000 C.ar    1  LIG1        0.0127
     13 C           2.9170   -3.2290    0.0000 C.ar    1  LIG1        0.0578
     14 CL          3.7790   -3.7290    0.0000 Cl      1  LIG1       -0.0822
     15 C           2.0540   -3.7380    0.0000 C.ar    1  LIG1        0.0127
     16 C           1.1830   -3.2290    0.0000 C.ar    1  LIG1        0.0175
     17 O           1.1830   -0.2250    0.0000 O.2     1  LIG1       -0.2709
     18 C          -2.3170    0.7710    0.0000 C.ar    1  LIG1        0.0575
     19 C          -3.1920    1.2670    0.0000 C.ar    1  LIG1        0.1779
     20 C          -3.1790    2.2540    0.0000 C.ar    1  LIG1        0.1766
     21 C          -2.3170    2.7460    0.0000 C.ar    1  LIG1        0.0448
     22 O          -4.1290    2.5630    0.0000 O.3     1  LIG1       -0.4346
     23 C          -4.7040    1.7710    0.0000 C.3     1  LIG1        0.4294
     24 O          -4.1290    0.9670    0.0000 O.3     1  LIG1       -0.4346
     25 O          -0.5580    3.7420    0.0000 O.2     1  LIG1       -0.2864
     26 C           1.2130    2.7460    0.0000 C.2     1  LIG1        0.2001
     27 C           2.0830    2.2540    0.0000 C.ar    1  LIG1        0.0391
     28 C           2.0670    1.2670    0.0000 C.ar    1  LIG1        0.0029
     29 C           2.9420    0.7710    0.0000 C.ar    1  LIG1       -0.0042
     30 C           3.8250    1.2500    0.0000 C.ar    1  LIG1       -0.0218
     31 C           3.8250    2.2540    0.0000 C.ar    1  LIG1       -0.0042
     32 C           2.9580    2.7460    0.0000 C.ar    1  LIG1        0.0029
     33 C           4.7000    0.7710    0.0000 C.3     1  LIG1        0.0310
     34 O           1.2130    3.7420    0.0000 O.2     1  LIG1       -0.2864
@<TRIPOS>BOND
     1     1     2   ar
     2     1     6   ar
     3     1    26    1
     4     2     3   ar
     5     2    25    2
     6     3     4   ar
     7     3    21   ar
     8     4     5   ar
     9     4    18   ar
    10     5     6   ar
    11     5     7    1
    12     7     8    1
    13     8     9   am
    14     8    17    2
    15     9    10    1
    16    10    11   ar
    17    10    16   ar
    18    11    12   ar
    19    12    13   ar
    20    13    14    1
    21    13    15   ar
    22    15    16   ar
    23    18    19   ar
    24    19    20   ar
    25    19    24    1
    26    20    21   ar
    27    20    22    1
    28    22    23    1
    29    23    24    1
    30    26    27    1
    31    26    34    2
    32    27    28   ar
    33    27    32   ar
    34    28    29   ar
    35    29    30   ar
    36    30    31   ar
    37    30    33    1
    38    31    32   ar
