@<TRIPOS>MOLECULE
37754_ChemDiv_C647-0472
 34 38 0 0 0
SMALL
GASTEIGER
Energy = 0

@<TRIPOS>ATOM
      1 C           0.3500    2.2500    0.0000 C.ar    1  LIG1        0.0950
      2 C          -0.5380    2.7500    0.0000 C.ar    1  LIG1        0.2016
      3 C          -1.4170    2.2500    0.0000 C.ar    1  LIG1        0.0581
      4 C          -1.4210    1.2500    0.0000 C.ar    1  LIG1        0.0666
      5 N          -0.5380    0.7500    0.0000 N.ar    1  LIG1       -0.3174
      6 C           0.3500    1.2500    0.0000 C.ar    1  LIG1        0.0827
      7 C          -0.5420   -0.2330    0.0000 C.3     1  LIG1        0.1939
      8 C           0.3250   -0.7330    0.0000 C.2     1  LIG1        0.2686
      9 N           0.3250   -1.7330    0.0000 N.am    1  LIG1       -0.1776
     10 C           1.2000   -2.2290    0.0000 C.ar    1  LIG1        0.0735
     11 C           2.0500   -1.7330    0.0000 C.ar    1  LIG1        0.0175
     12 C           2.9170   -2.2290    0.0000 C.ar    1  LIG1        0.0127
     13 C           2.9250   -3.2290    0.0000 C.ar    1  LIG1        0.0578
     14 CL          3.7880   -3.7290    0.0000 Cl      1  LIG1       -0.0822
     15 C           2.0630   -3.7290    0.0000 C.ar    1  LIG1        0.0127
     16 C           1.1880   -3.2290    0.0000 C.ar    1  LIG1        0.0175
     17 O           1.1880   -0.2330    0.0000 O.2     1  LIG1       -0.2709
     18 C          -2.3000    0.7670    0.0000 C.ar    1  LIG1        0.0575
     19 C          -3.1880    1.2500    0.0000 C.ar    1  LIG1        0.1779
     20 C          -3.1750    2.2500    0.0000 C.ar    1  LIG1        0.1766
     21 C          -2.3000    2.7330    0.0000 C.ar    1  LIG1        0.0448
     22 O          -4.1250    2.5540    0.0000 O.3     1  LIG1       -0.4346
     23 C          -4.7170    1.7540    0.0000 C.3     1  LIG1        0.4294
     24 O          -4.1290    0.9500    0.0000 O.3     1  LIG1       -0.4346
     25 O          -0.5380    3.7330    0.0000 O.2     1  LIG1       -0.2864
     26 C           1.2290    2.7330    0.0000 C.2     1  LIG1        0.2001
     27 C           2.1080    2.2500    0.0000 C.ar    1  LIG1        0.0392
     28 C           2.0830    1.2500    0.0000 C.ar    1  LIG1        0.0040
     29 C           2.9540    0.7670    0.0000 C.ar    1  LIG1        0.0115
     30 C           3.8380    1.2500    0.0000 C.ar    1  LIG1        0.0577
     31 C           3.8380    2.2500    0.0000 C.ar    1  LIG1        0.0115
     32 C           2.9580    2.7330    0.0000 C.ar    1  LIG1        0.0040
     33 CL          4.7130    0.7500    0.0000 Cl      1  LIG1       -0.0822
     34 O           1.2290    3.7170    0.0000 O.2     1  LIG1       -0.2864
@<TRIPOS>BOND
     1     1     2   ar
     2     1     6   ar
     3     1    26    1
     4     2     3   ar
     5     2    25    2
     6     3     4   ar
     7     3    21   ar
     8     4     5   ar
     9     4    18   ar
    10     5     6   ar
    11     5     7    1
    12     7     8    1
    13     8     9   am
    14     8    17    2
    15     9    10    1
    16    10    11   ar
    17    10    16   ar
    18    11    12   ar
    19    12    13   ar
    20    13    14    1
    21    13    15   ar
    22    15    16   ar
    23    18    19   ar
    24    19    20   ar
    25    19    24    1
    26    20    21   ar
    27    20    22    1
    28    22    23    1
    29    23    24    1
    30    26    27    1
    31    26    34    2
    32    27    28   ar
    33    27    32   ar
    34    28    29   ar
    35    29    30   ar
    36    30    31   ar
    37    30    33    1
    38    31    32   ar
