@<TRIPOS>MOLECULE
37760_ChemDiv_C647-0147
 38 42 0 0 0
SMALL
GASTEIGER
Energy = 0

@<TRIPOS>ATOM
      1 C           0.3420    2.2420    0.0000 C.ar    1  LIG1        0.0950
      2 C          -0.5500    2.7540    0.0000 C.ar    1  LIG1        0.2016
      3 C          -1.4250    2.2420    0.0000 C.ar    1  LIG1        0.0581
      4 C          -1.4420    1.2420    0.0000 C.ar    1  LIG1        0.0666
      5 N          -0.5500    0.7460    0.0000 N.ar    1  LIG1       -0.3174
      6 C           0.3420    1.2420    0.0000 C.ar    1  LIG1        0.0827
      7 C          -0.5500   -0.2330    0.0000 C.3     1  LIG1        0.1939
      8 C           0.3130   -0.7380    0.0000 C.2     1  LIG1        0.2686
      9 N           0.3130   -1.7380    0.0000 N.am    1  LIG1       -0.1775
     10 C           1.1790   -2.2380    0.0000 C.ar    1  LIG1        0.0766
     11 C           2.0380   -1.7380    0.0000 C.ar    1  LIG1        0.0566
     12 C           2.9000   -2.2290    0.0000 C.ar    1  LIG1        0.1737
     13 C           2.9040   -3.2330    0.0000 C.ar    1  LIG1        0.1725
     14 C           2.0420   -3.7330    0.0000 C.ar    1  LIG1        0.0414
     15 C           1.1750   -3.2330    0.0000 C.ar    1  LIG1        0.0199
     16 O           3.7750   -3.7330    0.0000 O.3     1  LIG1       -0.4684
     17 C           4.6380   -3.2290    0.0000 C.3     1  LIG1        0.2526
     18 O           3.7500   -1.7210    0.0000 O.3     1  LIG1       -0.4683
     19 C           3.7500   -0.7250    0.0000 C.3     1  LIG1        0.2526
     20 O           1.1750   -0.2330    0.0000 O.2     1  LIG1       -0.2709
     21 C          -2.3170    0.7580    0.0000 C.ar    1  LIG1        0.0575
     22 C          -3.1960    1.2460    0.0000 C.ar    1  LIG1        0.1779
     23 C          -3.1920    2.2420    0.0000 C.ar    1  LIG1        0.1766
     24 C          -2.3170    2.7290    0.0000 C.ar    1  LIG1        0.0448
     25 O          -4.1330    2.5460    0.0000 O.3     1  LIG1       -0.4346
     26 C          -4.7170    1.7540    0.0000 C.3     1  LIG1        0.4294
     27 O          -4.1420    0.9460    0.0000 O.3     1  LIG1       -0.4346
     28 O          -0.5500    3.7380    0.0000 O.2     1  LIG1       -0.2864
     29 C           1.2080    2.7290    0.0000 C.2     1  LIG1        0.2001
     30 C           2.0830    2.2420    0.0000 C.ar    1  LIG1        0.0391
     31 C           2.0670    1.2460    0.0000 C.ar    1  LIG1        0.0029
     32 C           2.9460    0.7580    0.0000 C.ar    1  LIG1       -0.0042
     33 C           3.8380    1.2420    0.0000 C.ar    1  LIG1       -0.0222
     34 C           3.8380    2.2420    0.0000 C.ar    1  LIG1       -0.0042
     35 C           2.9580    2.7290    0.0000 C.ar    1  LIG1        0.0029
     36 C           4.7130    0.7460    0.0000 C.3     1  LIG1        0.0264
     37 C           4.7000   -0.2330    0.0000 C.3     1  LIG1        0.0050
     38 O           1.2080    3.7250    0.0000 O.2     1  LIG1       -0.2864
@<TRIPOS>BOND
     1     1     2   ar
     2     1     6   ar
     3     1    29    1
     4     2     3   ar
     5     2    28    2
     6     3     4   ar
     7     3    24   ar
     8     4     5   ar
     9     4    21   ar
    10     5     6   ar
    11     5     7    1
    12     7     8    1
    13     8     9   am
    14     8    20    2
    15     9    10    1
    16    10    11   ar
    17    10    15   ar
    18    11    12   ar
    19    12    13   ar
    20    12    18    1
    21    13    14   ar
    22    13    16    1
    23    14    15   ar
    24    16    17    1
    25    18    19    1
    26    21    22   ar
    27    22    23   ar
    28    22    27    1
    29    23    24   ar
    30    23    25    1
    31    25    26    1
    32    26    27    1
    33    29    30    1
    34    29    38    2
    35    30    31   ar
    36    30    35   ar
    37    31    32   ar
    38    32    33   ar
    39    33    34   ar
    40    33    36    1
    41    34    35   ar
    42    36    37    1
