@<TRIPOS>MOLECULE
37764_ChemDiv_C690-0158
 19 21 0 0 0
SMALL
GASTEIGER
Energy = 0

@<TRIPOS>ATOM
      1 C           2.1380    0.4080    0.0000 C.ar    1  LIG1        0.0935
      2 C           1.3960   -0.2630    0.0000 C.ar    1  LIG1        0.0888
      3 N           1.8040   -1.1750    0.0000 N.ar    1  LIG1       -0.2280
      4 N           2.8000   -1.0710    0.0000 N.ar    1  LIG1       -0.1633
      5 C           3.0080   -0.0920    0.0000 C.ar    1  LIG1        0.1266
      6 C           1.2170   -1.9830    0.0000 C.ar    1  LIG1        0.1004
      7 C           0.2210   -1.8830    0.0000 C.ar    1  LIG1        0.0207
      8 C          -0.1880   -0.9670    0.0000 C.ar    1  LIG1        0.0031
      9 C           0.4000   -0.1540    0.0000 C.ar    1  LIG1        0.0194
     10 C           2.0330    1.4040    0.0000 C.2     1  LIG1        0.2678
     11 O           2.8460    1.9880    0.0000 O.2     1  LIG1       -0.2683
     12 N           1.1670    1.9000    0.0000 N.am    1  LIG1       -0.2012
     13 C           0.3000    1.4040    0.0000 C.3     1  LIG1        0.1202
     14 C          -0.5670    1.9000    0.0000 C.3     1  LIG1        0.0503
     15 C          -1.4290    1.4040    0.0000 C.ar    1  LIG1       -0.0134
     16 C          -2.3460    1.8040    0.0000 C.ar    1  LIG1        0.0312
     17 S          -3.0130    1.0670    0.0000 S.2     1  LIG1       -0.0863
     18 C          -2.5170    0.2000    0.0000 C.ar    1  LIG1        0.0351
     19 C          -1.5330    0.4080    0.0000 C.ar    1  LIG1        0.0033
@<TRIPOS>BOND
     1     1     2   ar
     2     1     5   ar
     3     1    10    1
     4     2     3   ar
     5     2     9   ar
     6     3     4   ar
     7     3     6   ar
     8     4     5   ar
     9     6     7   ar
    10     7     8   ar
    11     8     9   ar
    12    10    11    2
    13    10    12   am
    14    12    13    1
    15    13    14    1
    16    14    15    1
    17    15    16   ar
    18    15    19   ar
    19    16    17   ar
    20    17    18   ar
    21    18    19   ar
