@<TRIPOS>MOLECULE
37762_ChemDiv_C690-0144
 23 26 0 0 0
SMALL
GASTEIGER
Energy = 0

@<TRIPOS>ATOM
      1 C           1.7040   -0.8170    0.0000 C.ar    1  LIG1        0.0921
      2 C           1.6040    0.1790    0.0000 C.2     1  LIG1        0.2523
      3 N           0.7330    0.6750    0.0000 N.am    1  LIG1       -0.2706
      4 C          -0.1290    0.1790    0.0000 C.3     1  LIG1        0.1584
      5 C          -1.0000    0.6750    0.0000 C.ar    1  LIG1        0.1430
      6 O          -1.1040    1.6710    0.0000 O.2     1  LIG1       -0.4530
      7 C          -2.0790    1.8790    0.0000 C.ar    1  LIG1        0.1792
      8 C          -2.5790    1.0130    0.0000 C.ar    1  LIG1        0.0435
      9 C          -1.9080    0.2710    0.0000 C.ar    1  LIG1        0.0379
     10 C           0.7330    1.6790    0.0000 C.3     1  LIG1        0.0761
     11 C          -0.0710    2.2670    0.0000 C.3     1  LIG1        0.0198
     12 C           0.2380    3.2130    0.0000 C.3     1  LIG1        0.0018
     13 C           1.2330    3.2130    0.0000 C.3     1  LIG1        0.0018
     14 C           1.5460    2.2670    0.0000 C.3     1  LIG1        0.0198
     15 O           2.4130    0.7670    0.0000 O.2     1  LIG1       -0.2698
     16 C           0.9630   -1.4880    0.0000 C.ar    1  LIG1        0.0888
     17 N           1.3710   -2.4000    0.0000 N.ar    1  LIG1       -0.2280
     18 N           2.3670   -2.2960    0.0000 N.ar    1  LIG1       -0.1633
     19 C           2.5750   -1.3170    0.0000 C.ar    1  LIG1        0.1265
     20 C           0.7830   -3.2080    0.0000 C.ar    1  LIG1        0.1004
     21 C          -0.2130   -3.1080    0.0000 C.ar    1  LIG1        0.0207
     22 C          -0.6210   -2.1920    0.0000 C.ar    1  LIG1        0.0031
     23 C          -0.0330   -1.3790    0.0000 C.ar    1  LIG1        0.0194
@<TRIPOS>BOND
     1     1     2    1
     2     1    16   ar
     3     1    19   ar
     4     2     3   am
     5     2    15    2
     6     3     4    1
     7     3    10    1
     8     4     5    1
     9     5     6   ar
    10     5     9   ar
    11     6     7   ar
    12     7     8   ar
    13     8     9   ar
    14    10    11    1
    15    10    14    1
    16    11    12    1
    17    12    13    1
    18    13    14    1
    19    16    17   ar
    20    16    23   ar
    21    17    18   ar
    22    17    20   ar
    23    18    19   ar
    24    20    21   ar
    25    21    22   ar
    26    22    23   ar
