@<TRIPOS>MOLECULE
37768_ChemDiv_C690-0007
 21 23 0 0 0
SMALL
GASTEIGER
Energy = 0

@<TRIPOS>ATOM
      1 C           0.7250   -1.8000    0.0000 C.ar    1  LIG1        0.0939
      2 C          -0.0170   -2.4670    0.0000 C.ar    1  LIG1        0.0888
      3 N           0.3920   -3.3790    0.0000 N.ar    1  LIG1       -0.2280
      4 N           1.3880   -3.2750    0.0000 N.ar    1  LIG1       -0.1633
      5 C           1.5960   -2.2960    0.0000 C.ar    1  LIG1        0.1266
      6 C          -0.1960   -4.1880    0.0000 C.ar    1  LIG1        0.1004
      7 C          -1.1880   -4.0880    0.0000 C.ar    1  LIG1        0.0207
      8 C          -1.6000   -3.1710    0.0000 C.ar    1  LIG1        0.0031
      9 C          -1.0130   -2.3630    0.0000 C.ar    1  LIG1        0.0194
     10 C           0.6210   -0.8040    0.0000 C.2     1  LIG1        0.2720
     11 N          -0.2460   -0.3080    0.0000 N.am    1  LIG1       -0.1754
     12 C          -0.2460    0.6960    0.0000 C.ar    1  LIG1        0.0737
     13 C          -1.1080    1.1920    0.0000 C.ar    1  LIG1        0.0167
     14 C          -1.1080    2.1920    0.0000 C.ar    1  LIG1        0.0042
     15 C          -0.2460    2.6920    0.0000 C.ar    1  LIG1        0.0348
     16 C          -0.2460    3.6920    0.0000 C.2     1  LIG1        0.1735
     17 O          -1.1080    4.1880    0.0000 O.2     1  LIG1       -0.2913
     18 C           0.6210    4.1880    0.0000 C.3     1  LIG1        0.0773
     19 C           0.6210    2.1920    0.0000 C.ar    1  LIG1        0.0042
     20 C           0.6210    1.1920    0.0000 C.ar    1  LIG1        0.0167
     21 O           1.4330   -0.2170    0.0000 O.2     1  LIG1       -0.2679
@<TRIPOS>BOND
     1     1     2   ar
     2     1     5   ar
     3     1    10    1
     4     2     3   ar
     5     2     9   ar
     6     3     4   ar
     7     3     6   ar
     8     4     5   ar
     9     6     7   ar
    10     7     8   ar
    11     8     9   ar
    12    10    11   am
    13    10    21    2
    14    11    12    1
    15    12    13   ar
    16    12    20   ar
    17    13    14   ar
    18    14    15   ar
    19    15    16    1
    20    15    19   ar
    21    16    17    2
    22    16    18    1
    23    19    20   ar
