@<TRIPOS>MOLECULE
37766_ChemDiv_C690-0160
 23 26 0 0 0
SMALL
GASTEIGER
Energy = 0

@<TRIPOS>ATOM
      1 C           1.7670   -2.1630    0.0000 C.ar    1  LIG1        0.0935
      2 C           1.0250   -2.8290    0.0000 C.ar    1  LIG1        0.0888
      3 N           1.4330   -3.7420    0.0000 N.ar    1  LIG1       -0.2280
      4 N           2.4250   -3.6380    0.0000 N.ar    1  LIG1       -0.1633
      5 C           2.6330   -2.6580    0.0000 C.ar    1  LIG1        0.1266
      6 C           0.8460   -4.5500    0.0000 C.ar    1  LIG1        0.1004
      7 C          -0.1500   -4.4460    0.0000 C.ar    1  LIG1        0.0207
      8 C          -0.5580   -3.5330    0.0000 C.ar    1  LIG1        0.0031
      9 C           0.0290   -2.7250    0.0000 C.ar    1  LIG1        0.0194
     10 C           1.6630   -1.1670    0.0000 C.2     1  LIG1        0.2678
     11 N           0.7960   -0.6710    0.0000 N.am    1  LIG1       -0.2014
     12 C           0.7960    0.3330    0.0000 C.3     1  LIG1        0.1216
     13 C          -0.0710    0.8290    0.0000 C.3     1  LIG1        0.0845
     14 C          -0.1710    1.8250    0.0000 C.3     1  LIG1        0.1401
     15 N          -1.1500    2.0330    0.0000 N.4     1  LIG1        0.3730
     16 C          -1.6500    1.1670    0.0000 C.3     1  LIG1        0.1385
     17 C          -0.9830    0.4250    0.0000 C.3     1  LIG1        0.0704
     18 C          -1.5580    2.9460    0.0000 C.3     1  LIG1        0.0869
     19 C          -2.5380    3.1540    0.0000 C.3     1  LIG1        0.0567
     20 C          -2.6380    4.1460    0.0000 C.3     1  LIG1        0.0061
     21 C          -1.7250    4.5500    0.0000 C.3     1  LIG1        0.0061
     22 C          -1.0580    3.8080    0.0000 C.3     1  LIG1        0.0567
     23 O           2.4710   -0.5790    0.0000 O.2     1  LIG1       -0.2683
@<TRIPOS>BOND
     1     1     2   ar
     2     1     5   ar
     3     1    10    1
     4     2     3   ar
     5     2     9   ar
     6     3     4   ar
     7     3     6   ar
     8     4     5   ar
     9     6     7   ar
    10     7     8   ar
    11     8     9   ar
    12    10    11   am
    13    10    23    2
    14    11    12    1
    15    12    13    1
    16    13    14    1
    17    13    17    1
    18    14    15    1
    19    15    16    1
    20    15    18    1
    21    16    17    1
    22    18    19    1
    23    18    22    1
    24    19    20    1
    25    20    21    1
    26    21    22    1
