@<TRIPOS>MOLECULE
37772_ChemDiv_C690-0054
 19 21 0 0 0
SMALL
GASTEIGER
Energy = 0

@<TRIPOS>ATOM
      1 C           1.7790    0.4080    0.0000 C.ar    1  LIG1        0.0939
      2 C           1.0380   -0.2630    0.0000 C.ar    1  LIG1        0.0888
      3 N           1.4460   -1.1750    0.0000 N.ar    1  LIG1       -0.2280
      4 N           2.4380   -1.0710    0.0000 N.ar    1  LIG1       -0.1633
      5 C           2.6460   -0.0920    0.0000 C.ar    1  LIG1        0.1266
      6 C           0.8580   -1.9830    0.0000 C.ar    1  LIG1        0.1004
      7 C          -0.1380   -1.8830    0.0000 C.ar    1  LIG1        0.0207
      8 C          -0.5460   -0.9670    0.0000 C.ar    1  LIG1        0.0031
      9 C           0.0420   -0.1540    0.0000 C.ar    1  LIG1        0.0194
     10 C           1.6750    1.4040    0.0000 C.2     1  LIG1        0.2720
     11 N           0.8080    1.9000    0.0000 N.am    1  LIG1       -0.1754
     12 C          -0.0580    1.4040    0.0000 C.ar    1  LIG1        0.0737
     13 C          -0.9250    1.9000    0.0000 C.ar    1  LIG1        0.0171
     14 C          -1.7880    1.4040    0.0000 C.ar    1  LIG1        0.0080
     15 C          -1.7880    0.4000    0.0000 C.ar    1  LIG1        0.0347
     16 BR         -2.6500   -0.1000    0.0000 Br      1  LIG1       -0.0490
     17 C          -0.9250   -0.1000    0.0000 C.ar    1  LIG1        0.0080
     18 C          -0.0580    0.4000    0.0000 C.ar    1  LIG1        0.0171
     19 O           2.4880    1.9880    0.0000 O.2     1  LIG1       -0.2679
@<TRIPOS>BOND
     1     1     2   ar
     2     1     5   ar
     3     1    10    1
     4     2     3   ar
     5     2     9   ar
     6     3     4   ar
     7     3     6   ar
     8     4     5   ar
     9     6     7   ar
    10     7     8   ar
    11     8     9   ar
    12    10    11   am
    13    10    19    2
    14    11    12    1
    15    12    13   ar
    16    12    18   ar
    17    13    14   ar
    18    14    15   ar
    19    15    16    1
    20    15    17   ar
    21    17    18   ar
