@<TRIPOS>MOLECULE
37775_ChemDiv_C614-0779
 29 32 0 0 0
SMALL
GASTEIGER
Energy = 0

@<TRIPOS>ATOM
      1 S           0.5080    1.2170    0.0000 S.O2    1  LIG1        0.0663
      2 C           0.8420    2.1830    0.0000 C.ar    1  LIG1        0.1589
      3 C           1.8250    2.3540    0.0000 C.ar    1  LIG1        0.0599
      4 C           2.1670    3.3210    0.0000 C.ar    1  LIG1        0.1403
      5 C           1.5330    4.1000    0.0000 C.ar    1  LIG1        0.0401
      6 C           0.5420    3.9250    0.0000 C.ar    1  LIG1        0.0414
      7 C           0.2080    2.9630    0.0000 C.ar    1  LIG1        0.1574
      8 O          -0.7750    2.7880    0.0000 O.3     1  LIG1       -0.4701
      9 C          -1.4170    3.5500    0.0000 C.3     1  LIG1        0.2525
     10 O           3.1500    3.4830    0.0000 O.3     1  LIG1       -0.4714
     11 C           3.5000    4.4170    0.0000 C.3     1  LIG1        0.2525
     12 N           0.1630    0.2630    0.0000 N.3     1  LIG1       -0.1554
     13 C           0.7830   -0.5380    0.0000 C.3     1  LIG1        0.0961
     14 C           0.4460   -1.4750    0.0000 C.3     1  LIG1        0.0236
     15 C          -0.5250   -1.6420    0.0000 C.3     1  LIG1        0.0264
     16 C          -0.8710   -2.5920    0.0000 C.ar    1  LIG1       -0.0074
     17 C          -0.2960   -3.4080    0.0000 C.ar    1  LIG1        0.0554
     18 N          -0.8710   -4.2250    0.0000 N.ar    1  LIG1       -0.2500
     19 C          -1.8040   -3.9210    0.0000 C.ar    1  LIG1        0.0806
     20 C          -1.8040   -2.9040    0.0000 C.ar    1  LIG1        0.0148
     21 C          -2.6500   -2.3960    0.0000 C.ar    1  LIG1        0.0012
     22 C          -3.5040   -2.9040    0.0000 C.ar    1  LIG1        0.0001
     23 C          -3.5040   -3.9210    0.0000 C.ar    1  LIG1        0.0015
     24 C          -2.6500   -4.4170    0.0000 C.ar    1  LIG1        0.0191
     25 C           0.7000   -3.4080    0.0000 C.3     1  LIG1        0.0518
     26 C          -1.1460   -0.8540    0.0000 C.3     1  LIG1        0.0236
     27 C          -0.8040    0.0830    0.0000 C.3     1  LIG1        0.0961
     28 O           1.4330    0.8710    0.0000 O.2     1  LIG1       -0.1527
     29 O          -0.4290    1.5710    0.0000 O.2     1  LIG1       -0.1527
@<TRIPOS>BOND
     1     1     2    1
     2     1    12    1
     3     1    28    2
     4     1    29    2
     5     2     3   ar
     6     2     7   ar
     7     3     4   ar
     8     4     5   ar
     9     4    10    1
    10     5     6   ar
    11     6     7   ar
    12     7     8    1
    13     8     9    1
    14    10    11    1
    15    12    13    1
    16    12    27    1
    17    13    14    1
    18    14    15    1
    19    15    16    1
    20    15    26    1
    21    16    17   ar
    22    16    20   ar
    23    17    18   ar
    24    17    25    1
    25    18    19   ar
    26    19    20   ar
    27    19    24   ar
    28    20    21   ar
    29    21    22   ar
    30    22    23   ar
    31    23    24   ar
    32    26    27    1
