@<TRIPOS>MOLECULE
37770_ChemDiv_C690-0043
 21 23 0 0 0
SMALL
GASTEIGER
Energy = 0

@<TRIPOS>ATOM
      1 C           2.6460    0.4080    0.0000 C.ar    1  LIG1        0.0939
      2 C           1.9040   -0.2630    0.0000 C.ar    1  LIG1        0.0888
      3 N           2.3130   -1.1750    0.0000 N.ar    1  LIG1       -0.2280
      4 N           3.3080   -1.0710    0.0000 N.ar    1  LIG1       -0.1633
      5 C           3.5170   -0.0920    0.0000 C.ar    1  LIG1        0.1266
      6 C           1.7250   -1.9830    0.0000 C.ar    1  LIG1        0.1004
      7 C           0.7290   -1.8790    0.0000 C.ar    1  LIG1        0.0207
      8 C           0.3210   -0.9670    0.0000 C.ar    1  LIG1        0.0031
      9 C           0.9080   -0.1540    0.0000 C.ar    1  LIG1        0.0194
     10 C           2.5420    1.4000    0.0000 C.2     1  LIG1        0.2720
     11 N           1.6750    1.9000    0.0000 N.am    1  LIG1       -0.1754
     12 C           0.8080    1.4000    0.0000 C.ar    1  LIG1        0.0739
     13 C          -0.0580    1.9000    0.0000 C.ar    1  LIG1        0.0197
     14 C          -0.9210    1.4000    0.0000 C.ar    1  LIG1        0.0382
     15 C          -0.9210    0.4000    0.0000 C.ar    1  LIG1        0.1386
     16 C          -0.0580   -0.1000    0.0000 C.ar    1  LIG1        0.0382
     17 C           0.8080    0.4000    0.0000 C.ar    1  LIG1        0.0197
     18 O          -1.7830   -0.1000    0.0000 O.3     1  LIG1       -0.4755
     19 C          -2.6540    0.4000    0.0000 C.3     1  LIG1        0.2055
     20 C          -3.5210   -0.1000    0.0000 C.3     1  LIG1        0.0512
     21 O           3.3540    1.9880    0.0000 O.2     1  LIG1       -0.2679
@<TRIPOS>BOND
     1     1     2   ar
     2     1     5   ar
     3     1    10    1
     4     2     3   ar
     5     2     9   ar
     6     3     4   ar
     7     3     6   ar
     8     4     5   ar
     9     6     7   ar
    10     7     8   ar
    11     8     9   ar
    12    10    11   am
    13    10    21    2
    14    11    12    1
    15    12    13   ar
    16    12    17   ar
    17    13    14   ar
    18    14    15   ar
    19    15    16   ar
    20    15    18    1
    21    16    17   ar
    22    18    19    1
    23    19    20    1
