@<TRIPOS>MOLECULE
37782_ChemDiv_C647-0307
 38 42 0 0 0
SMALL
GASTEIGER
Energy = 0

@<TRIPOS>ATOM
      1 C           0.3380    2.7330    0.0000 C.ar    1  LIG1        0.0950
      2 C          -0.5540    3.2500    0.0000 C.ar    1  LIG1        0.2016
      3 C          -1.4290    2.7330    0.0000 C.ar    1  LIG1        0.0581
      4 C          -1.4460    1.7380    0.0000 C.ar    1  LIG1        0.0666
      5 N          -0.5540    1.2540    0.0000 N.ar    1  LIG1       -0.3174
      6 C           0.3380    1.7380    0.0000 C.ar    1  LIG1        0.0827
      7 C          -0.5540    0.2630    0.0000 C.3     1  LIG1        0.1939
      8 C           0.3080   -0.2420    0.0000 C.2     1  LIG1        0.2687
      9 N           0.3080   -1.2420    0.0000 N.am    1  LIG1       -0.1744
     10 C           1.1830   -1.7380    0.0000 C.ar    1  LIG1        0.1103
     11 C           2.0290   -1.2420    0.0000 C.ar    1  LIG1        0.0566
     12 C           2.8920   -1.7250    0.0000 C.ar    1  LIG1        0.1402
     13 C           2.9080   -2.7380    0.0000 C.ar    1  LIG1        0.0401
     14 C           2.0460   -3.2330    0.0000 C.ar    1  LIG1        0.0414
     15 C           1.1710   -2.7380    0.0000 C.ar    1  LIG1        0.1541
     16 O           0.3080   -3.2290    0.0000 O.3     1  LIG1       -0.4701
     17 C           0.3040   -4.2290    0.0000 C.3     1  LIG1        0.2525
     18 O           3.7540   -1.2250    0.0000 O.3     1  LIG1       -0.4714
     19 C           3.7500   -0.2290    0.0000 C.3     1  LIG1        0.2525
     20 O           1.1710    0.2630    0.0000 O.2     1  LIG1       -0.2709
     21 C          -2.3210    1.2540    0.0000 C.ar    1  LIG1        0.0575
     22 C          -3.2000    1.7540    0.0000 C.ar    1  LIG1        0.1779
     23 C          -3.1830    2.7330    0.0000 C.ar    1  LIG1        0.1766
     24 C          -2.3210    3.2330    0.0000 C.ar    1  LIG1        0.0448
     25 O          -4.1380    3.0540    0.0000 O.3     1  LIG1       -0.4346
     26 C          -4.7080    2.2500    0.0000 C.3     1  LIG1        0.4294
     27 O          -4.1380    1.4500    0.0000 O.3     1  LIG1       -0.4346
     28 O          -0.5540    4.2290    0.0000 O.2     1  LIG1       -0.2864
     29 C           1.2170    3.2330    0.0000 C.2     1  LIG1        0.2001
     30 C           2.0750    2.7330    0.0000 C.ar    1  LIG1        0.0391
     31 C           2.9540    3.2330    0.0000 C.ar    1  LIG1        0.0029
     32 C           3.8290    2.7330    0.0000 C.ar    1  LIG1       -0.0042
     33 C           3.8290    1.7380    0.0000 C.ar    1  LIG1       -0.0222
     34 C           2.9380    1.2540    0.0000 C.ar    1  LIG1       -0.0042
     35 C           2.0630    1.7540    0.0000 C.ar    1  LIG1        0.0029
     36 C           4.7040    1.2540    0.0000 C.3     1  LIG1        0.0264
     37 C           4.6920    0.2630    0.0000 C.3     1  LIG1        0.0050
     38 O           1.2170    4.2290    0.0000 O.2     1  LIG1       -0.2864
@<TRIPOS>BOND
     1     1     2   ar
     2     1     6   ar
     3     1    29    1
     4     2     3   ar
     5     2    28    2
     6     3     4   ar
     7     3    24   ar
     8     4     5   ar
     9     4    21   ar
    10     5     6   ar
    11     5     7    1
    12     7     8    1
    13     8     9   am
    14     8    20    2
    15     9    10    1
    16    10    11   ar
    17    10    15   ar
    18    11    12   ar
    19    12    13   ar
    20    12    18    1
    21    13    14   ar
    22    14    15   ar
    23    15    16    1
    24    16    17    1
    25    18    19    1
    26    21    22   ar
    27    22    23   ar
    28    22    27    1
    29    23    24   ar
    30    23    25    1
    31    25    26    1
    32    26    27    1
    33    29    30    1
    34    29    38    2
    35    30    31   ar
    36    30    35   ar
    37    31    32   ar
    38    32    33   ar
    39    33    34   ar
    40    33    36    1
    41    34    35   ar
    42    36    37    1
