@<TRIPOS>MOLECULE
37784_ChemDiv_C647-0347
 38 42 0 0 0
SMALL
GASTEIGER
Energy = 0

@<TRIPOS>ATOM
      1 C           0.3420    2.7380    0.0000 C.ar    1  LIG1        0.0950
      2 C          -0.5500    3.2540    0.0000 C.ar    1  LIG1        0.2016
      3 C          -1.4290    2.7380    0.0000 C.ar    1  LIG1        0.0581
      4 C          -1.4420    1.7420    0.0000 C.ar    1  LIG1        0.0666
      5 N          -0.5500    1.2460    0.0000 N.ar    1  LIG1       -0.3174
      6 C           0.3420    1.7420    0.0000 C.ar    1  LIG1        0.0827
      7 C          -0.5500    0.2630    0.0000 C.3     1  LIG1        0.1939
      8 C           0.3130   -0.2420    0.0000 C.2     1  LIG1        0.2687
      9 N           0.3130   -1.2380    0.0000 N.am    1  LIG1       -0.1745
     10 C           1.1830   -1.7380    0.0000 C.ar    1  LIG1        0.1074
     11 C           1.1710   -2.7330    0.0000 C.ar    1  LIG1        0.1569
     12 C           2.0460   -3.2330    0.0000 C.ar    1  LIG1        0.0751
     13 C           2.9080   -2.7330    0.0000 C.ar    1  LIG1        0.1418
     14 C           2.8960   -1.7330    0.0000 C.ar    1  LIG1        0.0384
     15 C           2.0330   -1.2380    0.0000 C.ar    1  LIG1        0.0228
     16 O           3.7750   -3.2330    0.0000 O.3     1  LIG1       -0.4713
     17 C           4.6380   -2.7290    0.0000 C.3     1  LIG1        0.2525
     18 O           0.3130   -3.2330    0.0000 O.3     1  LIG1       -0.4700
     19 C           0.3130   -4.2330    0.0000 C.3     1  LIG1        0.2525
     20 O           1.1710    0.2630    0.0000 O.2     1  LIG1       -0.2709
     21 C          -2.3210    1.2580    0.0000 C.ar    1  LIG1        0.0575
     22 C          -3.2000    1.7460    0.0000 C.ar    1  LIG1        0.1779
     23 C          -3.1880    2.7380    0.0000 C.ar    1  LIG1        0.1766
     24 C          -2.3210    3.2290    0.0000 C.ar    1  LIG1        0.0448
     25 O          -4.1380    3.0460    0.0000 O.3     1  LIG1       -0.4346
     26 C          -4.7170    2.2540    0.0000 C.3     1  LIG1        0.4294
     27 O          -4.1420    1.4460    0.0000 O.3     1  LIG1       -0.4346
     28 O          -0.5500    4.2330    0.0000 O.2     1  LIG1       -0.2864
     29 C           1.2130    3.2290    0.0000 C.2     1  LIG1        0.2001
     30 C           2.0790    2.7380    0.0000 C.ar    1  LIG1        0.0391
     31 C           2.0670    1.7460    0.0000 C.ar    1  LIG1        0.0029
     32 C           2.9420    1.2580    0.0000 C.ar    1  LIG1       -0.0042
     33 C           3.8330    1.7420    0.0000 C.ar    1  LIG1       -0.0222
     34 C           3.8330    2.7380    0.0000 C.ar    1  LIG1       -0.0042
     35 C           2.9580    3.2290    0.0000 C.ar    1  LIG1        0.0029
     36 C           4.7130    1.2460    0.0000 C.3     1  LIG1        0.0264
     37 C           4.6960    0.2630    0.0000 C.3     1  LIG1        0.0050
     38 O           1.2130    4.2210    0.0000 O.2     1  LIG1       -0.2864
@<TRIPOS>BOND
     1     1     2   ar
     2     1     6   ar
     3     1    29    1
     4     2     3   ar
     5     2    28    2
     6     3     4   ar
     7     3    24   ar
     8     4     5   ar
     9     4    21   ar
    10     5     6   ar
    11     5     7    1
    12     7     8    1
    13     8     9   am
    14     8    20    2
    15     9    10    1
    16    10    11   ar
    17    10    15   ar
    18    11    12   ar
    19    11    18    1
    20    12    13   ar
    21    13    14   ar
    22    13    16    1
    23    14    15   ar
    24    16    17    1
    25    18    19    1
    26    21    22   ar
    27    22    23   ar
    28    22    27    1
    29    23    24   ar
    30    23    25    1
    31    25    26    1
    32    26    27    1
    33    29    30    1
    34    29    38    2
    35    30    31   ar
    36    30    35   ar
    37    31    32   ar
    38    32    33   ar
    39    33    34   ar
    40    33    36    1
    41    34    35   ar
    42    36    37    1
