@<TRIPOS>MOLECULE
37783_ChemDiv_C620-0609
 36 41 0 0 0
SMALL
GASTEIGER
Energy = 0

@<TRIPOS>ATOM
      1 C           0.1080    0.4080    0.0000 C.ar    1  LIG1        0.0568
      2 C           0.1080    1.4000    0.0000 C.ar    1  LIG1        0.0621
      3 C          -0.7460    1.8920    0.0000 C.ar    1  LIG1        0.1770
      4 O          -0.5380    2.8710    0.0000 O.2     1  LIG1       -0.3534
      5 N           0.4500    2.9670    0.0000 N.ar    1  LIG1       -0.0771
      6 C           0.8540    2.0750    0.0000 C.ar    1  LIG1        0.1246
      7 C           1.7920    1.7630    0.0000 C.ar    1  LIG1        0.0565
      8 C           1.8290    0.4210    0.0000 C.ar    1  LIG1        0.0177
      9 C           0.9670   -0.0830    0.0000 C.ar    1  LIG1        0.0511
     10 N           0.9670   -1.0790    0.0000 N.pl3   1  LIG1       -0.3040
     11 C           1.8380   -1.5750    0.0000 C.3     1  LIG1        0.1123
     12 C           1.8290   -2.5750    0.0000 C.3     1  LIG1        0.1152
     13 N           0.9670   -3.0630    0.0000 N.am    1  LIG1       -0.2701
     14 C           0.9540   -4.0540    0.0000 C.2     1  LIG1        0.2839
     15 C           1.8170   -4.5580    0.0000 C.ar    1  LIG1        0.1987
     16 O           1.8040   -5.5540    0.0000 O.2     1  LIG1       -0.4458
     17 C           2.7460   -5.8630    0.0000 C.ar    1  LIG1        0.1798
     18 C           3.3330   -5.0630    0.0000 C.ar    1  LIG1        0.0440
     19 C           2.7580   -4.2580    0.0000 C.ar    1  LIG1        0.0455
     20 O           0.0960   -4.5460    0.0000 O.2     1  LIG1       -0.2666
     21 C           0.1080   -2.5710    0.0000 C.3     1  LIG1        0.1152
     22 C           0.1080   -1.5710    0.0000 C.3     1  LIG1        0.1123
     23 C           2.4380    2.5130    0.0000 C.3     1  LIG1        0.1683
     24 N           2.1130    3.4500    0.0000 N.4     1  LIG1        0.3876
     25 C           2.7670    4.1920    0.0000 C.3     1  LIG1        0.1755
     26 C           2.4500    5.1250    0.0000 C.3     1  LIG1        0.2443
     27 O           3.1000    5.8630    0.0000 O.3     1  LIG1       -0.2137
     28 C           1.1420    3.6380    0.0000 C.3     1  LIG1        0.2029
     29 C          -1.6130    1.3960    0.0000 C.ar    1  LIG1        0.0403
     30 C          -1.6130    0.4210    0.0000 C.ar    1  LIG1        0.0420
     31 C          -0.7460   -0.0830    0.0000 C.2     1  LIG1        0.1970
     32 O          -0.7420   -1.0710    0.0000 O.2     1  LIG1       -0.2865
     33 C          -2.4670   -0.0710    0.0000 C.ar    1  LIG1        0.0033
     34 C          -3.3380    0.4250    0.0000 C.ar    1  LIG1        0.0001
     35 C          -3.3380    1.3830    0.0000 C.ar    1  LIG1        0.0001
     36 C          -2.4670    1.8920    0.0000 C.ar    1  LIG1        0.0032
@<TRIPOS>BOND
     1     1     2   ar
     2     1     9   ar
     3     1    31    1
     4     2     3   ar
     5     2     6   ar
     6     3     4   ar
     7     3    29    1
     8     4     5   ar
     9     5     6   ar
    10     6     7   ar
    11     7     8   ar
    12     7    23    1
    13     8     9   ar
    14     9    10    1
    15    10    11    1
    16    10    22    1
    17    11    12    1
    18    12    13    1
    19    13    14   am
    20    13    21    1
    21    14    15    1
    22    14    20    2
    23    15    16   ar
    24    15    19   ar
    25    16    17   ar
    26    17    18   ar
    27    18    19   ar
    28    21    22    1
    29    23    24    1
    30    24    25    1
    31    24    28    1
    32    25    26    1
    33    26    27    1
    34    29    30   ar
    35    29    36   ar
    36    30    31    1
    37    30    33   ar
    38    31    32    2
    39    33    34   ar
    40    34    35   ar
    41    35    36   ar
