@<TRIPOS>MOLECULE
37789_ChemDiv_C625-0038
 15 16 0 0 0
SMALL
GASTEIGER
Energy = 0

@<TRIPOS>ATOM
      1 C          -0.0960    1.1710    0.0000 C.ar    1  LIG1        0.2297
      2 C           0.7130    0.5830    0.0000 C.2     1  LIG1        0.2864
      3 N           0.7130   -0.4170    0.0000 N.am    1  LIG1       -0.2735
      4 C           1.5830   -0.9170    0.0000 C.3     1  LIG1        0.0938
      5 C           1.5830   -1.9170    0.0000 C.3     1  LIG1        0.0216
      6 C           0.7130   -2.4170    0.0000 C.3     1  LIG1        0.0034
      7 C          -0.1540   -1.9170    0.0000 C.3     1  LIG1        0.0216
      8 C          -0.1540   -0.9170    0.0000 C.3     1  LIG1        0.0938
      9 C           0.7130   -3.4250    0.0000 C.3     1  LIG1        0.0001
     10 O           1.6250    0.9880    0.0000 O.2     1  LIG1       -0.2665
     11 O          -1.0500    0.8580    0.0000 O.2     1  LIG1       -0.3490
     12 N          -1.6290    1.6710    0.0000 N.ar    1  LIG1       -0.0812
     13 C          -1.0500    2.4750    0.0000 C.ar    1  LIG1        0.1012
     14 C          -0.0960    2.1670    0.0000 C.ar    1  LIG1        0.0629
     15 C          -1.3540    3.4290    0.0000 C.3     1  LIG1        0.0557
@<TRIPOS>BOND
     1     1     2    1
     2     1    11   ar
     3     1    14   ar
     4     2     3   am
     5     2    10    2
     6     3     4    1
     7     3     8    1
     8     4     5    1
     9     5     6    1
    10     6     7    1
    11     6     9    1
    12     7     8    1
    13    11    12   ar
    14    12    13   ar
    15    13    14   ar
    16    13    15    1
