@<TRIPOS>MOLECULE
37780_ChemDiv_C647-0227
 36 40 0 0 0
SMALL
GASTEIGER
Energy = 0

@<TRIPOS>ATOM
      1 C           0.3420    2.2380    0.0000 C.ar    1  LIG1        0.0950
      2 C          -0.5500    2.7500    0.0000 C.ar    1  LIG1        0.2016
      3 C          -1.4250    2.2380    0.0000 C.ar    1  LIG1        0.0581
      4 C          -1.4420    1.2420    0.0000 C.ar    1  LIG1        0.0666
      5 N          -0.5500    0.7580    0.0000 N.ar    1  LIG1       -0.3174
      6 C           0.3420    1.2420    0.0000 C.ar    1  LIG1        0.0827
      7 C          -0.5500   -0.2330    0.0000 C.3     1  LIG1        0.1939
      8 C           0.3080   -0.7380    0.0000 C.2     1  LIG1        0.2686
      9 N           0.3080   -1.7330    0.0000 N.am    1  LIG1       -0.1775
     10 C           1.1880   -2.2330    0.0000 C.ar    1  LIG1        0.0764
     11 C           2.0330   -1.7330    0.0000 C.ar    1  LIG1        0.0535
     12 C           2.8920   -2.2210    0.0000 C.ar    1  LIG1        0.1400
     13 O           3.7540   -1.7210    0.0000 O.3     1  LIG1       -0.4714
     14 C           3.7420   -0.7250    0.0000 C.3     1  LIG1        0.2525
     15 C           2.9080   -3.2290    0.0000 C.ar    1  LIG1        0.0370
     16 C           2.0460   -3.7290    0.0000 C.ar    1  LIG1        0.0044
     17 C           1.1710   -3.2290    0.0000 C.ar    1  LIG1        0.0168
     18 O           1.1710   -0.2330    0.0000 O.2     1  LIG1       -0.2709
     19 C          -2.3170    0.7580    0.0000 C.ar    1  LIG1        0.0575
     20 C          -3.1960    1.2580    0.0000 C.ar    1  LIG1        0.1779
     21 C          -3.1790    2.2380    0.0000 C.ar    1  LIG1        0.1766
     22 C          -2.3170    2.7380    0.0000 C.ar    1  LIG1        0.0448
     23 O          -4.1330    2.5540    0.0000 O.3     1  LIG1       -0.4346
     24 C          -4.7130    1.7540    0.0000 C.3     1  LIG1        0.4294
     25 O          -4.1330    0.9540    0.0000 O.3     1  LIG1       -0.4346
     26 O          -0.5500    3.7330    0.0000 O.2     1  LIG1       -0.2864
     27 C           1.2170    2.7380    0.0000 C.2     1  LIG1        0.2001
     28 C           2.0790    2.2380    0.0000 C.ar    1  LIG1        0.0391
     29 C           2.0630    1.2580    0.0000 C.ar    1  LIG1        0.0029
     30 C           2.9380    0.7580    0.0000 C.ar    1  LIG1       -0.0042
     31 C           3.8290    1.2420    0.0000 C.ar    1  LIG1       -0.0222
     32 C           3.8290    2.2380    0.0000 C.ar    1  LIG1       -0.0042
     33 C           2.9540    2.7380    0.0000 C.ar    1  LIG1        0.0029
     34 C           4.7080    0.7580    0.0000 C.3     1  LIG1        0.0264
     35 C           4.6920   -0.2330    0.0000 C.3     1  LIG1        0.0050
     36 O           1.2170    3.7330    0.0000 O.2     1  LIG1       -0.2864
@<TRIPOS>BOND
     1     1     2   ar
     2     1     6   ar
     3     1    27    1
     4     2     3   ar
     5     2    26    2
     6     3     4   ar
     7     3    22   ar
     8     4     5   ar
     9     4    19   ar
    10     5     6   ar
    11     5     7    1
    12     7     8    1
    13     8     9   am
    14     8    18    2
    15     9    10    1
    16    10    11   ar
    17    10    17   ar
    18    11    12   ar
    19    12    13    1
    20    12    15   ar
    21    13    14    1
    22    15    16   ar
    23    16    17   ar
    24    19    20   ar
    25    20    21   ar
    26    20    25    1
    27    21    22   ar
    28    21    23    1
    29    23    24    1
    30    24    25    1
    31    27    28    1
    32    27    36    2
    33    28    29   ar
    34    28    33   ar
    35    29    30   ar
    36    30    31   ar
    37    31    32   ar
    38    31    34    1
    39    32    33   ar
    40    34    35    1
