@<TRIPOS>MOLECULE
37794_ChemDiv_C690-0061
 20 22 0 0 0
SMALL
GASTEIGER
Energy = 0

@<TRIPOS>ATOM
      1 C           0.9170   -1.5460    0.0000 C.ar    1  LIG1        0.0939
      2 C           0.1710   -2.2170    0.0000 C.ar    1  LIG1        0.0888
      3 N           0.5790   -3.1290    0.0000 N.ar    1  LIG1       -0.2280
      4 N           1.5750   -3.0250    0.0000 N.ar    1  LIG1       -0.1633
      5 C           1.7830   -2.0460    0.0000 C.ar    1  LIG1        0.1266
      6 C          -0.0040   -3.9380    0.0000 C.ar    1  LIG1        0.1004
      7 C          -1.0000   -3.8330    0.0000 C.ar    1  LIG1        0.0207
      8 C          -1.4080   -2.9210    0.0000 C.ar    1  LIG1        0.0031
      9 C          -0.8210   -2.1130    0.0000 C.ar    1  LIG1        0.0194
     10 C           0.8130   -0.5540    0.0000 C.2     1  LIG1        0.2720
     11 N          -0.0540   -0.0580    0.0000 N.am    1  LIG1       -0.1754
     12 C          -0.0540    0.9460    0.0000 C.ar    1  LIG1        0.0733
     13 C          -0.9210    1.4460    0.0000 C.ar    1  LIG1        0.0120
     14 C          -0.9210    2.4420    0.0000 C.ar    1  LIG1       -0.0245
     15 C          -0.0540    2.9420    0.0000 C.ar    1  LIG1       -0.0257
     16 C           0.8130    2.4420    0.0000 C.ar    1  LIG1       -0.0032
     17 C           0.8130    1.4460    0.0000 C.ar    1  LIG1        0.0163
     18 C          -0.0540    3.9420    0.0000 C.3     1  LIG1        0.0307
     19 C          -1.7880    2.9420    0.0000 C.3     1  LIG1        0.0307
     20 O           1.6210    0.0330    0.0000 O.2     1  LIG1       -0.2679
@<TRIPOS>BOND
     1     1     2   ar
     2     1     5   ar
     3     1    10    1
     4     2     3   ar
     5     2     9   ar
     6     3     4   ar
     7     3     6   ar
     8     4     5   ar
     9     6     7   ar
    10     7     8   ar
    11     8     9   ar
    12    10    11   am
    13    10    20    2
    14    11    12    1
    15    12    13   ar
    16    12    17   ar
    17    13    14   ar
    18    14    15   ar
    19    14    19    1
    20    15    16   ar
    21    15    18    1
    22    16    17   ar
