@<TRIPOS>MOLECULE
37796_ChemDiv_C690-0069
 21 23 0 0 0
SMALL
GASTEIGER
Energy = 0

@<TRIPOS>ATOM
      1 C           1.8130   -0.4460    0.0000 C.ar    1  LIG1        0.0939
      2 C           2.0250    0.5290    0.0000 C.ar    1  LIG1        0.0888
      3 N           3.0170    0.6380    0.0000 N.ar    1  LIG1       -0.2280
      4 N           3.4250   -0.2750    0.0000 N.ar    1  LIG1       -0.1633
      5 C           2.6790   -0.9460    0.0000 C.ar    1  LIG1        0.1266
      6 C           3.4250    1.5460    0.0000 C.ar    1  LIG1        0.1004
      7 C           2.8380    2.3580    0.0000 C.ar    1  LIG1        0.0207
      8 C           1.8420    2.2500    0.0000 C.ar    1  LIG1        0.0031
      9 C           1.4380    1.3420    0.0000 C.ar    1  LIG1        0.0194
     10 C           0.9000   -0.8540    0.0000 C.2     1  LIG1        0.2720
     11 N           0.0330   -0.3540    0.0000 N.am    1  LIG1       -0.1760
     12 C          -0.8330   -0.8540    0.0000 C.ar    1  LIG1        0.0657
     13 C          -0.8330   -1.8540    0.0000 C.ar    1  LIG1       -0.0071
     14 C          -1.7000   -2.3540    0.0000 C.ar    1  LIG1       -0.0072
     15 C          -2.5630   -1.8540    0.0000 C.ar    1  LIG1       -0.0224
     16 C          -2.5630   -0.8540    0.0000 C.ar    1  LIG1       -0.0072
     17 C          -1.7000   -0.3540    0.0000 C.ar    1  LIG1       -0.0071
     18 C          -1.7000    0.6460    0.0000 C.3     1  LIG1        0.0324
     19 C          -3.4290   -2.3540    0.0000 C.3     1  LIG1        0.0310
     20 C           0.0330   -2.3540    0.0000 C.3     1  LIG1        0.0324
     21 O           0.7960   -1.8460    0.0000 O.2     1  LIG1       -0.2679
@<TRIPOS>BOND
     1     1     2   ar
     2     1     5   ar
     3     1    10    1
     4     2     3   ar
     5     2     9   ar
     6     3     4   ar
     7     3     6   ar
     8     4     5   ar
     9     6     7   ar
    10     7     8   ar
    11     8     9   ar
    12    10    11   am
    13    10    21    2
    14    11    12    1
    15    12    13   ar
    16    12    17   ar
    17    13    14   ar
    18    13    20    1
    19    14    15   ar
    20    15    16   ar
    21    15    19    1
    22    16    17   ar
    23    17    18    1
