@<TRIPOS>MOLECULE
37792_ChemDiv_C647-0231
 35 39 0 0 0
SMALL
GASTEIGER
Energy = 0

@<TRIPOS>ATOM
      1 C           0.3420    2.2540    0.0000 C.ar    1  LIG1        0.0950
      2 C          -0.5500    2.7630    0.0000 C.ar    1  LIG1        0.2016
      3 C          -1.4170    2.2540    0.0000 C.ar    1  LIG1        0.0581
      4 C          -1.4250    1.2420    0.0000 C.ar    1  LIG1        0.0666
      5 N          -0.5500    0.7580    0.0000 N.ar    1  LIG1       -0.3174
      6 C           0.3420    1.2420    0.0000 C.ar    1  LIG1        0.0827
      7 C          -0.5540   -0.2250    0.0000 C.3     1  LIG1        0.1939
      8 C           0.3080   -0.7330    0.0000 C.2     1  LIG1        0.2686
      9 N           0.3080   -1.7380    0.0000 N.am    1  LIG1       -0.1775
     10 C           1.1710   -2.2420    0.0000 C.ar    1  LIG1        0.0764
     11 C           2.0290   -1.7460    0.0000 C.ar    1  LIG1        0.0535
     12 C           2.8880   -2.2420    0.0000 C.ar    1  LIG1        0.1400
     13 O           3.7500   -1.7460    0.0000 O.3     1  LIG1       -0.4714
     14 C           3.7500   -0.7500    0.0000 C.3     1  LIG1        0.2525
     15 C           2.8880   -3.2460    0.0000 C.ar    1  LIG1        0.0370
     16 C           2.0290   -3.7420    0.0000 C.ar    1  LIG1        0.0044
     17 C           1.1670   -3.2460    0.0000 C.ar    1  LIG1        0.0168
     18 O           1.1790   -0.2380    0.0000 O.2     1  LIG1       -0.2709
     19 C          -2.3000    0.7710    0.0000 C.ar    1  LIG1        0.0575
     20 C          -3.1790    1.2580    0.0000 C.ar    1  LIG1        0.1779
     21 C          -3.1750    2.2540    0.0000 C.ar    1  LIG1        0.1766
     22 C          -2.3000    2.7460    0.0000 C.ar    1  LIG1        0.0448
     23 O          -4.1250    2.5710    0.0000 O.3     1  LIG1       -0.4346
     24 C          -4.7130    1.7710    0.0000 C.3     1  LIG1        0.4294
     25 O          -4.1250    0.9670    0.0000 O.3     1  LIG1       -0.4346
     26 O          -0.5500    3.7460    0.0000 O.2     1  LIG1       -0.2864
     27 C           1.2250    2.7460    0.0000 C.2     1  LIG1        0.2001
     28 C           2.1000    2.2540    0.0000 C.ar    1  LIG1        0.0393
     29 C           2.0830    1.2580    0.0000 C.ar    1  LIG1        0.0055
     30 C           2.9500    0.7710    0.0000 C.ar    1  LIG1        0.0297
     31 C           3.8330    1.2420    0.0000 C.ar    1  LIG1        0.1401
     32 C           3.8330    2.2540    0.0000 C.ar    1  LIG1        0.0297
     33 C           2.9670    2.7460    0.0000 C.ar    1  LIG1        0.0055
     34 F           4.7080    0.7580    0.0000 F       1  LIG1       -0.2042
     35 O           1.2250    3.7250    0.0000 O.2     1  LIG1       -0.2864
@<TRIPOS>BOND
     1     1     2   ar
     2     1     6   ar
     3     1    27    1
     4     2     3   ar
     5     2    26    2
     6     3     4   ar
     7     3    22   ar
     8     4     5   ar
     9     4    19   ar
    10     5     6   ar
    11     5     7    1
    12     7     8    1
    13     8     9   am
    14     8    18    2
    15     9    10    1
    16    10    11   ar
    17    10    17   ar
    18    11    12   ar
    19    12    13    1
    20    12    15   ar
    21    13    14    1
    22    15    16   ar
    23    16    17   ar
    24    19    20   ar
    25    20    21   ar
    26    20    25    1
    27    21    22   ar
    28    21    23    1
    29    23    24    1
    30    24    25    1
    31    27    28    1
    32    27    35    2
    33    28    29   ar
    34    28    33   ar
    35    29    30   ar
    36    30    31   ar
    37    31    32   ar
    38    31    34    1
    39    32    33   ar
