@<TRIPOS>MOLECULE
37806_ChemDiv_C690-0053
 21 24 0 0 0
SMALL
GASTEIGER
Energy = 0

@<TRIPOS>ATOM
      1 C           0.9170   -1.0460    0.0000 C.ar    1  LIG1        0.0924
      2 C           0.8130   -0.0540    0.0000 C.2     1  LIG1        0.2558
      3 N          -0.0540    0.4420    0.0000 N.am    1  LIG1       -0.2554
      4 C          -0.0540    1.4460    0.0000 C.ar    1  LIG1        0.0501
      5 C          -0.9210    1.9460    0.0000 C.ar    1  LIG1       -0.0084
      6 C          -1.7880    1.4460    0.0000 C.3     1  LIG1        0.0294
      7 C          -1.7880    0.4420    0.0000 C.3     1  LIG1        0.0266
      8 C          -0.9210   -0.0540    0.0000 C.3     1  LIG1        0.0988
      9 C          -0.9210    2.9420    0.0000 C.ar    1  LIG1       -0.0030
     10 C          -0.0540    3.4420    0.0000 C.ar    1  LIG1       -0.0002
     11 C           0.8130    2.9420    0.0000 C.ar    1  LIG1        0.0013
     12 C           0.8130    1.9460    0.0000 C.ar    1  LIG1        0.0146
     13 O           1.6210    0.5330    0.0000 O.2     1  LIG1       -0.2695
     14 C           0.1710   -1.7170    0.0000 C.ar    1  LIG1        0.0888
     15 N           0.5830   -2.6290    0.0000 N.ar    1  LIG1       -0.2280
     16 N           1.5750   -2.5250    0.0000 N.ar    1  LIG1       -0.1633
     17 C           1.7830   -1.5460    0.0000 C.ar    1  LIG1        0.1265
     18 C          -0.0040   -3.4380    0.0000 C.ar    1  LIG1        0.1004
     19 C          -1.0000   -3.3380    0.0000 C.ar    1  LIG1        0.0207
     20 C          -1.4080   -2.4210    0.0000 C.ar    1  LIG1        0.0031
     21 C          -0.8210   -1.6130    0.0000 C.ar    1  LIG1        0.0194
@<TRIPOS>BOND
     1     1     2    1
     2     1    14   ar
     3     1    17   ar
     4     2     3   am
     5     2    13    2
     6     3     4    1
     7     3     8    1
     8     4     5   ar
     9     4    12   ar
    10     5     6    1
    11     5     9   ar
    12     6     7    1
    13     7     8    1
    14     9    10   ar
    15    10    11   ar
    16    11    12   ar
    17    14    15   ar
    18    14    21   ar
    19    15    16   ar
    20    15    18   ar
    21    16    17   ar
    22    18    19   ar
    23    19    20   ar
    24    20    21   ar
