@<TRIPOS>MOLECULE
37808_ChemDiv_C690-0052
 21 24 0 0 0
SMALL
GASTEIGER
Energy = 0

@<TRIPOS>ATOM
      1 C           1.7790   -0.3000    0.0000 C.ar    1  LIG1        0.0921
      2 C           1.6750    0.6960    0.0000 C.2     1  LIG1        0.2523
      3 N           0.8080    1.1920    0.0000 N.am    1  LIG1       -0.2716
      4 C          -0.0580    0.6960    0.0000 C.3     1  LIG1        0.1201
      5 C          -0.9250    1.1920    0.0000 C.ar    1  LIG1       -0.0062
      6 C          -0.9250    2.1960    0.0000 C.ar    1  LIG1       -0.0228
      7 C          -0.0580    2.6960    0.0000 C.3     1  LIG1        0.0476
      8 C           0.8080    2.1960    0.0000 C.3     1  LIG1        0.0987
      9 C          -1.7880    2.6960    0.0000 C.ar    1  LIG1       -0.0045
     10 C          -2.6540    2.1960    0.0000 C.ar    1  LIG1       -0.0003
     11 C          -2.6540    1.1920    0.0000 C.ar    1  LIG1       -0.0003
     12 C          -1.7880    0.6960    0.0000 C.ar    1  LIG1       -0.0029
     13 O           2.4880    1.2830    0.0000 O.2     1  LIG1       -0.2698
     14 C           1.0380   -0.9670    0.0000 C.ar    1  LIG1        0.0888
     15 N           1.4460   -1.8790    0.0000 N.ar    1  LIG1       -0.2280
     16 N           2.4420   -1.7790    0.0000 N.ar    1  LIG1       -0.1633
     17 C           2.6500   -0.7960    0.0000 C.ar    1  LIG1        0.1265
     18 C           0.8580   -2.6920    0.0000 C.ar    1  LIG1        0.1004
     19 C          -0.1380   -2.5880    0.0000 C.ar    1  LIG1        0.0207
     20 C          -0.5460   -1.6710    0.0000 C.ar    1  LIG1        0.0031
     21 C           0.0420   -0.8630    0.0000 C.ar    1  LIG1        0.0194
@<TRIPOS>BOND
     1     1     2    1
     2     1    14   ar
     3     1    17   ar
     4     2     3   am
     5     2    13    2
     6     3     4    1
     7     3     8    1
     8     4     5    1
     9     5     6   ar
    10     5    12   ar
    11     6     7    1
    12     6     9   ar
    13     7     8    1
    14     9    10   ar
    15    10    11   ar
    16    11    12   ar
    17    14    15   ar
    18    14    21   ar
    19    15    16   ar
    20    15    18   ar
    21    16    17   ar
    22    18    19   ar
    23    19    20   ar
    24    20    21   ar
