@<TRIPOS>MOLECULE
37800_ChemDiv_C690-0117
 19 21 0 0 0
SMALL
GASTEIGER
Energy = 0

@<TRIPOS>ATOM
      1 C           0.9170   -1.0460    0.0000 C.ar    1  LIG1        0.0939
      2 C           0.1710   -1.7170    0.0000 C.ar    1  LIG1        0.0888
      3 N           0.5790   -2.6290    0.0000 N.ar    1  LIG1       -0.2280
      4 N           1.5750   -2.5250    0.0000 N.ar    1  LIG1       -0.1633
      5 C           1.7830   -1.5460    0.0000 C.ar    1  LIG1        0.1266
      6 C          -0.0040   -3.4380    0.0000 C.ar    1  LIG1        0.1004
      7 C          -1.0000   -3.3330    0.0000 C.ar    1  LIG1        0.0207
      8 C          -1.4080   -2.4210    0.0000 C.ar    1  LIG1        0.0031
      9 C          -0.8210   -1.6130    0.0000 C.ar    1  LIG1        0.0194
     10 C           0.8130   -0.0540    0.0000 C.2     1  LIG1        0.2720
     11 N          -0.0540    0.4420    0.0000 N.am    1  LIG1       -0.1757
     12 C          -0.0540    1.4460    0.0000 C.ar    1  LIG1        0.0697
     13 C          -0.9210    1.9460    0.0000 C.ar    1  LIG1       -0.0065
     14 C          -1.7880    1.4460    0.0000 C.3     1  LIG1        0.0324
     15 C          -0.9210    2.9420    0.0000 C.ar    1  LIG1       -0.0030
     16 C          -0.0540    3.4420    0.0000 C.ar    1  LIG1       -0.0002
     17 C           0.8130    2.9420    0.0000 C.ar    1  LIG1        0.0013
     18 C           0.8130    1.9460    0.0000 C.ar    1  LIG1        0.0163
     19 O           1.6210    0.5330    0.0000 O.2     1  LIG1       -0.2679
@<TRIPOS>BOND
     1     1     2   ar
     2     1     5   ar
     3     1    10    1
     4     2     3   ar
     5     2     9   ar
     6     3     4   ar
     7     3     6   ar
     8     4     5   ar
     9     6     7   ar
    10     7     8   ar
    11     8     9   ar
    12    10    11   am
    13    10    19    2
    14    11    12    1
    15    12    13   ar
    16    12    18   ar
    17    13    14    1
    18    13    15   ar
    19    15    16   ar
    20    16    17   ar
    21    17    18   ar
