@<TRIPOS>MOLECULE
37809_ChemDiv_C625-0156
 28 31 0 0 0
SMALL
GASTEIGER
Energy = 0

@<TRIPOS>ATOM
      1 C          -0.8130    2.1670    0.0000 C.ar    1  LIG1        0.2401
      2 C          -0.8130    3.1670    0.0000 C.ar    1  LIG1        0.1159
      3 C          -1.7630    3.4750    0.0000 C.ar    1  LIG1        0.1116
      4 N          -2.3500    2.6630    0.0000 N.ar    1  LIG1       -0.0803
      5 O          -1.7630    1.8540    0.0000 O.2     1  LIG1       -0.3481
      6 C          -2.0710    4.4210    0.0000 C.3     1  LIG1        0.0566
      7 CL         -0.0040    3.7540    0.0000 Cl      1  LIG1       -0.0775
      8 C          -0.0040    1.5790    0.0000 C.2     1  LIG1        0.2876
      9 N          -0.0040    0.5750    0.0000 N.am    1  LIG1       -0.2619
     10 C          -0.8710    0.0750    0.0000 C.3     1  LIG1        0.1568
     11 C          -0.8710   -0.9250    0.0000 C.3     1  LIG1        0.1612
     12 N          -0.0040   -1.4250    0.0000 N.4     1  LIG1        0.3820
     13 C          -0.0040   -2.4250    0.0000 C.3     1  LIG1        0.1331
     14 C          -0.8710   -2.9210    0.0000 C.ar    1  LIG1        0.0328
     15 C          -0.8710   -3.9210    0.0000 C.ar    1  LIG1        0.0016
     16 C          -1.7380   -4.4210    0.0000 C.ar    1  LIG1       -0.0001
     17 C          -2.6040   -3.9210    0.0000 C.ar    1  LIG1       -0.0000
     18 C          -2.6040   -2.9210    0.0000 C.ar    1  LIG1       -0.0001
     19 C          -1.7380   -2.4250    0.0000 C.ar    1  LIG1        0.0016
     20 C           0.8630   -2.9210    0.0000 C.ar    1  LIG1        0.0328
     21 C           0.8630   -3.9210    0.0000 C.ar    1  LIG1        0.0016
     22 C           1.7330   -4.4210    0.0000 C.ar    1  LIG1       -0.0001
     23 C           2.6000   -3.9210    0.0000 C.ar    1  LIG1       -0.0000
     24 C           2.6000   -2.9210    0.0000 C.ar    1  LIG1       -0.0001
     25 C           1.7330   -2.4250    0.0000 C.ar    1  LIG1        0.0016
     26 C           0.8630   -0.9250    0.0000 C.3     1  LIG1        0.1612
     27 C           0.8630    0.0750    0.0000 C.3     1  LIG1        0.1568
     28 O           0.9080    1.9880    0.0000 O.2     1  LIG1       -0.2664
@<TRIPOS>BOND
     1     1     2   ar
     2     1     5   ar
     3     1     8    1
     4     2     3   ar
     5     2     7    1
     6     3     4   ar
     7     3     6    1
     8     4     5   ar
     9     8     9   am
    10     8    28    2
    11     9    10    1
    12     9    27    1
    13    10    11    1
    14    11    12    1
    15    12    13    1
    16    12    26    1
    17    13    14    1
    18    13    20    1
    19    14    15   ar
    20    14    19   ar
    21    15    16   ar
    22    16    17   ar
    23    17    18   ar
    24    18    19   ar
    25    20    21   ar
    26    20    25   ar
    27    21    22   ar
    28    22    23   ar
    29    23    24   ar
    30    24    25   ar
    31    26    27    1
