@<TRIPOS>MOLECULE
37804_ChemDiv_C690-0035
 20 23 0 0 0
SMALL
GASTEIGER
Energy = 0

@<TRIPOS>ATOM
      1 C           0.8420   -0.9960    0.0000 C.ar    1  LIG1        0.0924
      2 C           0.7380    0.0000    0.0000 C.2     1  LIG1        0.2558
      3 N          -0.1330    0.4960    0.0000 N.am    1  LIG1       -0.2551
      4 C          -0.2330    1.4880    0.0000 C.ar    1  LIG1        0.0502
      5 C          -1.2130    1.6960    0.0000 C.ar    1  LIG1       -0.0067
      6 C          -1.7130    0.8330    0.0000 C.3     1  LIG1        0.0495
      7 C          -1.0460    0.0920    0.0000 C.3     1  LIG1        0.1032
      8 C          -1.5210    2.6460    0.0000 C.ar    1  LIG1       -0.0030
      9 C          -0.8500    3.3920    0.0000 C.ar    1  LIG1       -0.0002
     10 C           0.1290    3.1830    0.0000 C.ar    1  LIG1        0.0013
     11 C           0.4380    2.2330    0.0000 C.ar    1  LIG1        0.0146
     12 O           1.5460    0.5830    0.0000 O.2     1  LIG1       -0.2695
     13 C           0.0960   -1.6670    0.0000 C.ar    1  LIG1        0.0888
     14 N           0.5040   -2.5750    0.0000 N.ar    1  LIG1       -0.2280
     15 N           1.5000   -2.4750    0.0000 N.ar    1  LIG1       -0.1633
     16 C           1.7080   -1.4960    0.0000 C.ar    1  LIG1        0.1265
     17 C          -0.0790   -3.3880    0.0000 C.ar    1  LIG1        0.1004
     18 C          -1.0750   -3.2830    0.0000 C.ar    1  LIG1        0.0207
     19 C          -1.4830   -2.3710    0.0000 C.ar    1  LIG1        0.0031
     20 C          -0.8960   -1.5580    0.0000 C.ar    1  LIG1        0.0194
@<TRIPOS>BOND
     1     1     2    1
     2     1    13   ar
     3     1    16   ar
     4     2     3   am
     5     2    12    2
     6     3     4    1
     7     3     7    1
     8     4     5   ar
     9     4    11   ar
    10     5     6    1
    11     5     8   ar
    12     6     7    1
    13     8     9   ar
    14     9    10   ar
    15    10    11   ar
    16    13    14   ar
    17    13    20   ar
    18    14    15   ar
    19    14    17   ar
    20    15    16   ar
    21    17    18   ar
    22    18    19   ar
    23    19    20   ar
