@<TRIPOS>MOLECULE
37802_ChemDiv_C690-0162
 25 28 0 0 0
SMALL
GASTEIGER
Energy = 0

@<TRIPOS>ATOM
      1 C           2.2130    0.9670    0.0000 C.ar    1  LIG1        0.0939
      2 C           1.4710    0.2960    0.0000 C.ar    1  LIG1        0.0888
      3 N           1.8790   -0.6170    0.0000 N.ar    1  LIG1       -0.2280
      4 N           2.8750   -0.5130    0.0000 N.ar    1  LIG1       -0.1633
      5 C           3.0830    0.4670    0.0000 C.ar    1  LIG1        0.1266
      6 C           1.2920   -1.4250    0.0000 C.ar    1  LIG1        0.1004
      7 C           0.2960   -1.3250    0.0000 C.ar    1  LIG1        0.0207
      8 C          -0.1130   -0.4080    0.0000 C.ar    1  LIG1        0.0031
      9 C           0.4750    0.4000    0.0000 C.ar    1  LIG1        0.0194
     10 C           2.1130    1.9580    0.0000 C.2     1  LIG1        0.2720
     11 N           1.2420    2.4580    0.0000 N.am    1  LIG1       -0.1754
     12 C           0.3790    1.9580    0.0000 C.ar    1  LIG1        0.0737
     13 C           0.3790    0.9580    0.0000 C.ar    1  LIG1        0.0165
     14 C          -0.4920    0.4580    0.0000 C.ar    1  LIG1        0.0028
     15 C          -1.3540    0.9580    0.0000 C.ar    1  LIG1        0.0345
     16 C          -2.2170    0.4580    0.0000 C.3     1  LIG1        0.1664
     17 N          -2.2170   -0.5380    0.0000 N.4     1  LIG1        0.3847
     18 C          -3.0880   -1.0420    0.0000 C.3     1  LIG1        0.1718
     19 C          -3.0880   -2.0380    0.0000 C.3     1  LIG1        0.2048
     20 O          -2.2170   -2.5420    0.0000 O.3     1  LIG1       -0.3411
     21 C          -1.3540   -2.0380    0.0000 C.3     1  LIG1        0.2048
     22 C          -1.3540   -1.0420    0.0000 C.3     1  LIG1        0.1718
     23 C          -1.3540    1.9580    0.0000 C.ar    1  LIG1        0.0028
     24 C          -0.4920    2.4580    0.0000 C.ar    1  LIG1        0.0165
     25 O           2.9210    2.5460    0.0000 O.2     1  LIG1       -0.2679
@<TRIPOS>BOND
     1     1     2   ar
     2     1     5   ar
     3     1    10    1
     4     2     3   ar
     5     2     9   ar
     6     3     4   ar
     7     3     6   ar
     8     4     5   ar
     9     6     7   ar
    10     7     8   ar
    11     8     9   ar
    12    10    11   am
    13    10    25    2
    14    11    12    1
    15    12    13   ar
    16    12    24   ar
    17    13    14   ar
    18    14    15   ar
    19    15    16    1
    20    15    23   ar
    21    16    17    1
    22    17    18    1
    23    17    22    1
    24    18    19    1
    25    19    20    1
    26    20    21    1
    27    21    22    1
    28    23    24   ar
