@<TRIPOS>MOLECULE
37819_ChemDiv_C627-0013
 20 22 0 0 0
SMALL
GASTEIGER
Energy = 0

@<TRIPOS>ATOM
      1 C           1.2170    0.6290    0.0000 C.ar    1  LIG1        0.1579
      2 N           0.8080    1.5420    0.0000 N.ar    1  LIG1       -0.1604
      3 N           1.5500    2.2080    0.0000 N.ar    1  LIG1       -0.2281
      4 C           2.4130    1.7080    0.0000 C.ar    1  LIG1        0.0846
      5 C           2.2080    0.7290    0.0000 C.ar    1  LIG1        0.0447
      6 C           3.2830    2.2080    0.0000 C.ar    1  LIG1        0.0193
      7 C           3.2830    3.2130    0.0000 C.ar    1  LIG1        0.0031
      8 C           2.4130    3.7040    0.0000 C.ar    1  LIG1        0.0207
      9 C           1.5500    3.2130    0.0000 C.ar    1  LIG1        0.1004
     10 C           0.7130   -0.2420    0.0000 C.2     1  LIG1        0.2885
     11 N          -0.2880   -0.2420    0.0000 N.am    1  LIG1       -0.1741
     12 C          -0.7880   -1.1080    0.0000 C.ar    1  LIG1        0.0739
     13 C          -1.7880   -1.1080    0.0000 C.ar    1  LIG1        0.0197
     14 C          -2.2830   -1.9710    0.0000 C.ar    1  LIG1        0.0382
     15 C          -1.7880   -2.8380    0.0000 C.ar    1  LIG1        0.1388
     16 C          -0.7880   -2.8380    0.0000 C.ar    1  LIG1        0.0382
     17 C          -0.2880   -1.9710    0.0000 C.ar    1  LIG1        0.0197
     18 O          -2.2830   -3.7000    0.0000 O.3     1  LIG1       -0.4714
     19 C          -3.2880   -3.7000    0.0000 C.3     1  LIG1        0.2525
     20 O           1.2170   -1.1080    0.0000 O.2     1  LIG1       -0.2663
@<TRIPOS>BOND
     1     1     2   ar
     2     1     5   ar
     3     1    10    1
     4     2     3   ar
     5     3     4   ar
     6     3     9   ar
     7     4     5   ar
     8     4     6   ar
     9     6     7   ar
    10     7     8   ar
    11     8     9   ar
    12    10    11   am
    13    10    20    2
    14    11    12    1
    15    12    13   ar
    16    12    17   ar
    17    13    14   ar
    18    14    15   ar
    19    15    16   ar
    20    15    18    1
    21    16    17   ar
    22    18    19    1
