@<TRIPOS>MOLECULE
37813_ChemDiv_C627-0003
 25 28 0 0 0
SMALL
GASTEIGER
Energy = 0

@<TRIPOS>ATOM
      1 C           2.2170    1.0630    0.0000 C.ar    1  LIG1        0.1579
      2 N           1.8080    1.9750    0.0000 N.ar    1  LIG1       -0.1604
      3 N           2.5500    2.6420    0.0000 N.ar    1  LIG1       -0.2281
      4 C           3.4130    2.1420    0.0000 C.ar    1  LIG1        0.0846
      5 C           3.2080    1.1630    0.0000 C.ar    1  LIG1        0.0447
      6 C           4.2830    2.6420    0.0000 C.ar    1  LIG1        0.0193
      7 C           4.2830    3.6460    0.0000 C.ar    1  LIG1        0.0031
      8 C           3.4130    4.1330    0.0000 C.ar    1  LIG1        0.0207
      9 C           2.5500    3.6460    0.0000 C.ar    1  LIG1        0.1004
     10 C           1.7130    0.1920    0.0000 C.2     1  LIG1        0.2885
     11 N           0.7130    0.1920    0.0000 N.am    1  LIG1       -0.1741
     12 C           0.2130   -0.6750    0.0000 C.ar    1  LIG1        0.0737
     13 C           0.7130   -1.5420    0.0000 C.ar    1  LIG1        0.0163
     14 C           0.2130   -2.4040    0.0000 C.ar    1  LIG1       -0.0026
     15 C          -0.7880   -2.4040    0.0000 C.ar    1  LIG1       -0.0177
     16 C          -1.2830   -3.2710    0.0000 C.3     1  LIG1        0.0527
     17 C          -2.2880   -3.2710    0.0000 C.ar    1  LIG1       -0.0147
     18 C          -2.7880   -2.4040    0.0000 C.ar    1  LIG1        0.0167
     19 C          -3.7880   -2.4040    0.0000 C.ar    1  LIG1        0.0986
     20 N          -4.2880   -3.2710    0.0000 N.ar    1  LIG1       -0.2423
     21 C          -3.7880   -4.1330    0.0000 C.ar    1  LIG1        0.0986
     22 C          -2.7880   -4.1330    0.0000 C.ar    1  LIG1        0.0167
     23 C          -1.2830   -1.5420    0.0000 C.ar    1  LIG1       -0.0026
     24 C          -0.7880   -0.6750    0.0000 C.ar    1  LIG1        0.0163
     25 O           2.2170   -0.6750    0.0000 O.2     1  LIG1       -0.2663
@<TRIPOS>BOND
     1     1     2   ar
     2     1     5   ar
     3     1    10    1
     4     2     3   ar
     5     3     4   ar
     6     3     9   ar
     7     4     5   ar
     8     4     6   ar
     9     6     7   ar
    10     7     8   ar
    11     8     9   ar
    12    10    11   am
    13    10    25    2
    14    11    12    1
    15    12    13   ar
    16    12    24   ar
    17    13    14   ar
    18    14    15   ar
    19    15    16    1
    20    15    23   ar
    21    16    17    1
    22    17    18   ar
    23    17    22   ar
    24    18    19   ar
    25    19    20   ar
    26    20    21   ar
    27    21    22   ar
    28    23    24   ar
