@<TRIPOS>MOLECULE
37816_ChemDiv_C647-0390
 36 40 0 0 0
SMALL
GASTEIGER
Energy = 0

@<TRIPOS>ATOM
      1 C          -0.5420    2.2500    0.0000 C.ar    1  LIG1        0.0950
      2 C          -1.4330    2.7330    0.0000 C.ar    1  LIG1        0.2016
      3 C          -2.3130    2.2500    0.0000 C.ar    1  LIG1        0.0581
      4 C          -2.3330    1.2500    0.0000 C.ar    1  LIG1        0.0666
      5 N          -1.4330    0.7670    0.0000 N.ar    1  LIG1       -0.3174
      6 C          -0.5420    1.2500    0.0000 C.ar    1  LIG1        0.0827
      7 C          -1.4330   -0.2330    0.0000 C.3     1  LIG1        0.1939
      8 C          -0.5710   -0.7330    0.0000 C.2     1  LIG1        0.2686
      9 N          -0.5710   -1.7330    0.0000 N.am    1  LIG1       -0.1776
     10 C           0.3040   -2.2290    0.0000 C.ar    1  LIG1        0.0736
     11 C           1.1580   -1.7330    0.0000 C.ar    1  LIG1        0.0189
     12 C           2.0210   -2.2290    0.0000 C.ar    1  LIG1        0.0310
     13 C           2.0290   -3.2290    0.0000 C.ar    1  LIG1        0.1402
     14 F           2.8960   -3.7290    0.0000 F       1  LIG1       -0.2042
     15 C           1.1670   -3.7290    0.0000 C.ar    1  LIG1        0.0310
     16 C           0.2920   -3.2290    0.0000 C.ar    1  LIG1        0.0189
     17 O           0.2920   -0.2330    0.0000 O.2     1  LIG1       -0.2709
     18 C          -3.2080    0.7830    0.0000 C.ar    1  LIG1        0.0575
     19 C          -4.0960    1.2670    0.0000 C.ar    1  LIG1        0.1779
     20 C          -4.0880    2.2500    0.0000 C.ar    1  LIG1        0.1766
     21 C          -3.2080    2.7330    0.0000 C.ar    1  LIG1        0.0448
     22 O          -5.0250    2.5540    0.0000 O.3     1  LIG1       -0.4346
     23 C          -5.6130    1.7670    0.0000 C.3     1  LIG1        0.4294
     24 O          -5.0380    0.9630    0.0000 O.3     1  LIG1       -0.4346
     25 O          -1.4330    3.7330    0.0000 O.2     1  LIG1       -0.2864
     26 C           0.3380    2.7330    0.0000 C.2     1  LIG1        0.2001
     27 C           1.2170    2.2500    0.0000 C.ar    1  LIG1        0.0393
     28 C           1.2000    1.2670    0.0000 C.ar    1  LIG1        0.0063
     29 C           2.0790    0.7830    0.0000 C.ar    1  LIG1        0.0370
     30 C           2.9750    1.2500    0.0000 C.ar    1  LIG1        0.1386
     31 C           2.9750    2.2500    0.0000 C.ar    1  LIG1        0.0370
     32 C           2.0960    2.7330    0.0000 C.ar    1  LIG1        0.0063
     33 O           3.8380    0.7670    0.0000 O.3     1  LIG1       -0.4755
     34 C           4.7290    1.2500    0.0000 C.3     1  LIG1        0.2055
     35 C           5.6080    0.7670    0.0000 C.3     1  LIG1        0.0512
     36 O           0.3380    3.7210    0.0000 O.2     1  LIG1       -0.2864
@<TRIPOS>BOND
     1     1     2   ar
     2     1     6   ar
     3     1    26    1
     4     2     3   ar
     5     2    25    2
     6     3     4   ar
     7     3    21   ar
     8     4     5   ar
     9     4    18   ar
    10     5     6   ar
    11     5     7    1
    12     7     8    1
    13     8     9   am
    14     8    17    2
    15     9    10    1
    16    10    11   ar
    17    10    16   ar
    18    11    12   ar
    19    12    13   ar
    20    13    14    1
    21    13    15   ar
    22    15    16   ar
    23    18    19   ar
    24    19    20   ar
    25    19    24    1
    26    20    21   ar
    27    20    22    1
    28    22    23    1
    29    23    24    1
    30    26    27    1
    31    26    36    2
    32    27    28   ar
    33    27    32   ar
    34    28    29   ar
    35    29    30   ar
    36    30    31   ar
    37    30    33    1
    38    31    32   ar
    39    33    34    1
    40    34    35    1
