@<TRIPOS>MOLECULE
37811_ChemDiv_C626-0113
 36 39 0 0 0
SMALL
GASTEIGER
Energy = 0

@<TRIPOS>ATOM
      1 S          -2.5380    1.4080    0.0000 S.O2    1  LIG1        0.0793
      2 C          -3.0420    2.2830    0.0000 C.ar    1  LIG1        0.1536
      3 C          -2.7290    3.2500    0.0000 C.ar    1  LIG1        0.0989
      4 N          -3.5580    3.8420    0.0000 N.ar    1  LIG1       -0.1725
      5 N          -4.3630    3.2500    0.0000 N.ar    1  LIG1       -0.2518
      6 C          -4.0540    2.2830    0.0000 C.ar    1  LIG1        0.0760
      7 C          -4.6580    1.4630    0.0000 C.3     1  LIG1        0.0532
      8 C          -5.3330    3.5750    0.0000 C.3     1  LIG1        0.1533
      9 C          -1.7750    3.5710    0.0000 C.3     1  LIG1        0.0554
     10 N          -2.0290    0.5330    0.0000 N.pl3   1  LIG1       -0.1812
     11 C          -1.0290    0.5330    0.0000 C.3     1  LIG1        0.2005
     12 C          -0.5210   -0.3460    0.0000 C.2     1  LIG1        0.2480
     13 N           0.4830   -0.3460    0.0000 N.am    1  LIG1       -0.2737
     14 C           1.0250   -1.1580    0.0000 C.3     1  LIG1        0.1196
     15 C           1.9500   -1.1880    0.0000 C.2     1  LIG1       -0.0089
     16 C           2.4540   -0.3210    0.0000 C.2     1  LIG1       -0.0231
     17 C           1.9920    0.5130    0.0000 C.3     1  LIG1        0.0476
     18 C           0.9920    0.5250    0.0000 C.3     1  LIG1        0.0984
     19 C           3.3580   -0.3250    0.0000 C.ar    1  LIG1       -0.0042
     20 C           3.8380   -1.2210    0.0000 C.ar    1  LIG1       -0.0003
     21 C           4.8250   -1.1750    0.0000 C.ar    1  LIG1       -0.0000
     22 C           5.3290   -0.3040    0.0000 C.ar    1  LIG1       -0.0000
     23 C           4.8500    0.5330    0.0000 C.ar    1  LIG1       -0.0000
     24 C           3.8580    0.5420    0.0000 C.ar    1  LIG1       -0.0003
     25 O          -1.0250   -1.2170    0.0000 O.2     1  LIG1       -0.2729
     26 C          -2.5460   -0.3460    0.0000 C.ar    1  LIG1        0.0693
     27 C          -3.5460   -0.3460    0.0000 C.ar    1  LIG1        0.0158
     28 C          -4.0540   -1.2250    0.0000 C.ar    1  LIG1       -0.0030
     29 C          -3.5420   -2.0920    0.0000 C.ar    1  LIG1       -0.0224
     30 C          -2.5330   -2.0920    0.0000 C.ar    1  LIG1       -0.0030
     31 C          -2.0380   -1.2250    0.0000 C.ar    1  LIG1        0.0158
     32 C          -4.0540   -2.9580    0.0000 C.3     1  LIG1        0.0224
     33 C          -3.5500   -3.8380    0.0000 C.3     1  LIG1        0.0047
     34 C          -5.0670   -2.9580    0.0000 C.3     1  LIG1        0.0047
     35 O          -1.6670    1.9170    0.0000 O.2     1  LIG1       -0.1496
     36 O          -3.4130    0.9080    0.0000 O.2     1  LIG1       -0.1496
@<TRIPOS>BOND
     1     1     2    1
     2     1    10    1
     3     1    35    2
     4     1    36    2
     5     2     3   ar
     6     2     6   ar
     7     3     4   ar
     8     3     9    1
     9     4     5   ar
    10     5     6   ar
    11     5     8    1
    12     6     7    1
    13    10    11    1
    14    10    26    1
    15    11    12    1
    16    12    13   am
    17    12    25    2
    18    13    14    1
    19    13    18    1
    20    14    15    1
    21    15    16    2
    22    16    17    1
    23    16    19    1
    24    17    18    1
    25    19    20   ar
    26    19    24   ar
    27    20    21   ar
    28    21    22   ar
    29    22    23   ar
    30    23    24   ar
    31    26    27   ar
    32    26    31   ar
    33    27    28   ar
    34    28    29   ar
    35    29    30   ar
    36    29    32    1
    37    30    31   ar
    38    32    33    1
    39    32    34    1
