@<TRIPOS>MOLECULE
37815_ChemDiv_C627-0007
 21 23 0 0 0
SMALL
GASTEIGER
Energy = 0

@<TRIPOS>ATOM
      1 C           1.2170   -0.8630    0.0000 C.ar    1  LIG1        0.1579
      2 N           0.8080    0.0500    0.0000 N.ar    1  LIG1       -0.1604
      3 N           1.5500    0.7210    0.0000 N.ar    1  LIG1       -0.2281
      4 C           2.4130    0.2170    0.0000 C.ar    1  LIG1        0.0846
      5 C           2.2040   -0.7580    0.0000 C.ar    1  LIG1        0.0447
      6 C           3.2830    0.7210    0.0000 C.ar    1  LIG1        0.0193
      7 C           3.2830    1.7210    0.0000 C.ar    1  LIG1        0.0031
      8 C           2.4130    2.2170    0.0000 C.ar    1  LIG1        0.0207
      9 C           1.5500    1.7210    0.0000 C.ar    1  LIG1        0.1004
     10 C           0.7130   -1.7330    0.0000 C.2     1  LIG1        0.2885
     11 N          -0.2880   -1.7330    0.0000 N.am    1  LIG1       -0.1741
     12 C          -0.7880   -0.8630    0.0000 C.ar    1  LIG1        0.0737
     13 C          -1.7880   -0.8630    0.0000 C.ar    1  LIG1        0.0167
     14 C          -2.2830    0.0040    0.0000 C.ar    1  LIG1        0.0042
     15 C          -1.7880    0.8670    0.0000 C.ar    1  LIG1        0.0348
     16 C          -2.2830    1.7380    0.0000 C.2     1  LIG1        0.1735
     17 O          -3.2880    1.7380    0.0000 O.2     1  LIG1       -0.2913
     18 C          -1.7880    2.6000    0.0000 C.3     1  LIG1        0.0773
     19 C          -0.7880    0.8670    0.0000 C.ar    1  LIG1        0.0042
     20 C          -0.2880    0.0040    0.0000 C.ar    1  LIG1        0.0167
     21 O           1.2170   -2.5960    0.0000 O.2     1  LIG1       -0.2663
@<TRIPOS>BOND
     1     1     2   ar
     2     1     5   ar
     3     1    10    1
     4     2     3   ar
     5     3     4   ar
     6     3     9   ar
     7     4     5   ar
     8     4     6   ar
     9     6     7   ar
    10     7     8   ar
    11     8     9   ar
    12    10    11   am
    13    10    21    2
    14    11    12    1
    15    12    13   ar
    16    12    20   ar
    17    13    14   ar
    18    14    15   ar
    19    15    16    1
    20    15    19   ar
    21    16    17    2
    22    16    18    1
    23    19    20   ar
