@<TRIPOS>MOLECULE
37823_ChemDiv_C627-0043
 21 23 0 0 0
SMALL
GASTEIGER
Energy = 0

@<TRIPOS>ATOM
      1 C           1.4670    1.0630    0.0000 C.ar    1  LIG1        0.1579
      2 N           1.0540    1.9750    0.0000 N.ar    1  LIG1       -0.1604
      3 N           1.7960    2.6420    0.0000 N.ar    1  LIG1       -0.2281
      4 C           2.6630    2.1420    0.0000 C.ar    1  LIG1        0.0846
      5 C           2.4540    1.1630    0.0000 C.ar    1  LIG1        0.0447
      6 C           3.5330    2.6420    0.0000 C.ar    1  LIG1        0.0193
      7 C           3.5330    3.6420    0.0000 C.ar    1  LIG1        0.0031
      8 C           2.6630    4.1330    0.0000 C.ar    1  LIG1        0.0207
      9 C           1.7960    3.6420    0.0000 C.ar    1  LIG1        0.1004
     10 C           0.9630    0.1920    0.0000 C.2     1  LIG1        0.2885
     11 N          -0.0380    0.1920    0.0000 N.am    1  LIG1       -0.1741
     12 C          -0.5380   -0.6750    0.0000 C.ar    1  LIG1        0.0739
     13 C          -1.5420   -0.6750    0.0000 C.ar    1  LIG1        0.0197
     14 C          -2.0330   -1.5380    0.0000 C.ar    1  LIG1        0.0382
     15 C          -1.5420   -2.4040    0.0000 C.ar    1  LIG1        0.1386
     16 C          -0.5380   -2.4040    0.0000 C.ar    1  LIG1        0.0382
     17 C          -0.0380   -1.5380    0.0000 C.ar    1  LIG1        0.0197
     18 O          -2.0330   -3.2710    0.0000 O.3     1  LIG1       -0.4755
     19 C          -3.0380   -3.2710    0.0000 C.3     1  LIG1        0.2055
     20 C          -3.5380   -4.1330    0.0000 C.3     1  LIG1        0.0512
     21 O           1.4670   -0.6750    0.0000 O.2     1  LIG1       -0.2663
@<TRIPOS>BOND
     1     1     2   ar
     2     1     5   ar
     3     1    10    1
     4     2     3   ar
     5     3     4   ar
     6     3     9   ar
     7     4     5   ar
     8     4     6   ar
     9     6     7   ar
    10     7     8   ar
    11     8     9   ar
    12    10    11   am
    13    10    21    2
    14    11    12    1
    15    12    13   ar
    16    12    17   ar
    17    13    14   ar
    18    14    15   ar
    19    15    16   ar
    20    15    18    1
    21    16    17   ar
    22    18    19    1
    23    19    20    1
