@<TRIPOS>MOLECULE
37829_ChemDiv_C614-0942
 32 35 0 0 0
SMALL
GASTEIGER
Energy = 0

@<TRIPOS>ATOM
      1 N          -2.3830    1.0580    0.0000 N.ar    1  LIG1       -0.2961
      2 C          -1.7960    1.8670    0.0000 C.ar    1  LIG1        0.1222
      3 N          -2.3830    2.6790    0.0000 N.ar    1  LIG1       -0.2293
      4 C          -3.3290    2.3670    0.0000 C.ar    1  LIG1        0.1167
      5 C          -3.3290    1.3670    0.0000 C.ar    1  LIG1        0.1627
      6 N          -4.2040    0.8630    0.0000 N.ar    1  LIG1       -0.2252
      7 C          -5.0670    1.3630    0.0000 C.ar    1  LIG1        0.1006
      8 C          -5.0670    2.3670    0.0000 C.ar    1  LIG1        0.0223
      9 C          -4.2040    2.8670    0.0000 C.ar    1  LIG1        0.0238
     10 C          -0.7960    1.8670    0.0000 C.3     1  LIG1        0.0736
     11 C          -0.2960    1.0040    0.0000 C.3     1  LIG1        0.0947
     12 C           0.7040    1.0040    0.0000 C.2     1  LIG1        0.2418
     13 O           1.2040    1.8790    0.0000 O.2     1  LIG1       -0.2733
     14 N           1.2170    0.1420    0.0000 N.am    1  LIG1       -0.2051
     15 C           2.2130    0.1500    0.0000 C.3     1  LIG1        0.1198
     16 C           2.7210   -0.7130    0.0000 C.3     1  LIG1        0.0498
     17 C           3.7210   -0.6960    0.0000 C.ar    1  LIG1       -0.0207
     18 C           4.2040    0.1670    0.0000 C.ar    1  LIG1       -0.0085
     19 C           5.2040    0.1830    0.0000 C.ar    1  LIG1       -0.0222
     20 C           5.7170   -0.6830    0.0000 C.ar    1  LIG1       -0.0043
     21 C           5.2170   -1.5540    0.0000 C.ar    1  LIG1       -0.0006
     22 C           4.2170   -1.5630    0.0000 C.ar    1  LIG1       -0.0042
     23 C           5.6880    1.0500    0.0000 C.3     1  LIG1        0.0310
     24 C          -2.0670    0.1040    0.0000 C.3     1  LIG1        0.1353
     25 C          -2.7500   -0.6380    0.0000 C.ar    1  LIG1        0.0007
     26 C          -2.4290   -1.5750    0.0000 C.ar    1  LIG1        0.0007
     27 C          -3.0960   -2.3170    0.0000 C.ar    1  LIG1        0.0366
     28 C          -4.0830   -2.1210    0.0000 C.ar    1  LIG1        0.1387
     29 C          -4.3830   -1.1670    0.0000 C.ar    1  LIG1        0.0366
     30 C          -3.7170   -0.4250    0.0000 C.ar    1  LIG1        0.0007
     31 O          -4.7500   -2.8630    0.0000 O.3     1  LIG1       -0.4714
     32 C          -5.7210   -2.6500    0.0000 C.3     1  LIG1        0.2525
@<TRIPOS>BOND
     1     1     2   ar
     2     1     5   ar
     3     1    24    1
     4     2     3   ar
     5     2    10    1
     6     3     4   ar
     7     4     5   ar
     8     4     9   ar
     9     5     6   ar
    10     6     7   ar
    11     7     8   ar
    12     8     9   ar
    13    10    11    1
    14    11    12    1
    15    12    13    2
    16    12    14   am
    17    14    15    1
    18    15    16    1
    19    16    17    1
    20    17    18   ar
    21    17    22   ar
    22    18    19   ar
    23    19    20   ar
    24    19    23    1
    25    20    21   ar
    26    21    22   ar
    27    24    25    1
    28    25    26   ar
    29    25    30   ar
    30    26    27   ar
    31    27    28   ar
    32    28    29   ar
    33    28    31    1
    34    29    30   ar
    35    31    32    1
