@<TRIPOS>MOLECULE
37821_ChemDiv_C627-0031
 19 21 0 0 0
SMALL
GASTEIGER
Energy = 0

@<TRIPOS>ATOM
      1 C           0.7130    0.1960    0.0000 C.ar    1  LIG1        0.1579
      2 N           0.3040    1.1080    0.0000 N.ar    1  LIG1       -0.1604
      3 N           1.0460    1.7790    0.0000 N.ar    1  LIG1       -0.2281
      4 C           1.9130    1.2750    0.0000 C.ar    1  LIG1        0.0846
      5 C           1.7040    0.3000    0.0000 C.ar    1  LIG1        0.0447
      6 C           2.7830    1.7790    0.0000 C.ar    1  LIG1        0.0193
      7 C           2.7830    2.7790    0.0000 C.ar    1  LIG1        0.0031
      8 C           1.9130    3.2750    0.0000 C.ar    1  LIG1        0.0207
      9 C           1.0460    2.7790    0.0000 C.ar    1  LIG1        0.1004
     10 C           0.2080   -0.6750    0.0000 C.2     1  LIG1        0.2885
     11 N          -0.7880   -0.6750    0.0000 N.am    1  LIG1       -0.1718
     12 C          -1.2880   -1.5420    0.0000 C.ar    1  LIG1        0.1011
     13 C          -2.2920   -1.5420    0.0000 C.ar    1  LIG1        0.1553
     14 F          -2.7880   -0.6750    0.0000 F       1  LIG1       -0.2028
     15 C          -2.7880   -2.4040    0.0000 C.ar    1  LIG1        0.0310
     16 C          -2.2920   -3.2710    0.0000 C.ar    1  LIG1        0.0024
     17 C          -1.2880   -3.2710    0.0000 C.ar    1  LIG1        0.0015
     18 C          -0.7880   -2.4040    0.0000 C.ar    1  LIG1        0.0189
     19 O           0.7130   -1.5420    0.0000 O.2     1  LIG1       -0.2663
@<TRIPOS>BOND
     1     1     2   ar
     2     1     5   ar
     3     1    10    1
     4     2     3   ar
     5     3     4   ar
     6     3     9   ar
     7     4     5   ar
     8     4     6   ar
     9     6     7   ar
    10     7     8   ar
    11     8     9   ar
    12    10    11   am
    13    10    19    2
    14    11    12    1
    15    12    13   ar
    16    12    18   ar
    17    13    14    1
    18    13    15   ar
    19    15    16   ar
    20    16    17   ar
    21    17    18   ar
