@<TRIPOS>MOLECULE
37826_ChemDiv_C690-0157
 26 28 0 0 0
SMALL
GASTEIGER
Energy = 0

@<TRIPOS>ATOM
      1 C           3.0790    0.4080    0.0000 C.ar    1  LIG1        0.0935
      2 C           2.3380   -0.2630    0.0000 C.ar    1  LIG1        0.0888
      3 N           2.7460   -1.1750    0.0000 N.ar    1  LIG1       -0.2280
      4 N           3.7420   -1.0710    0.0000 N.ar    1  LIG1       -0.1633
      5 C           3.9500   -0.0920    0.0000 C.ar    1  LIG1        0.1266
      6 C           2.1580   -1.9830    0.0000 C.ar    1  LIG1        0.1004
      7 C           1.1630   -1.8830    0.0000 C.ar    1  LIG1        0.0207
      8 C           0.7540   -0.9670    0.0000 C.ar    1  LIG1        0.0031
      9 C           1.3420   -0.1540    0.0000 C.ar    1  LIG1        0.0194
     10 C           2.9750    1.4040    0.0000 C.2     1  LIG1        0.2678
     11 O           3.7880    1.9880    0.0000 O.2     1  LIG1       -0.2683
     12 N           2.1080    1.9000    0.0000 N.am    1  LIG1       -0.2012
     13 C           1.2420    1.4040    0.0000 C.3     1  LIG1        0.1201
     14 C           0.3750    1.9000    0.0000 C.3     1  LIG1        0.0500
     15 C          -0.4880    1.4040    0.0000 C.ar    1  LIG1       -0.0142
     16 C          -1.3540    1.9000    0.0000 C.ar    1  LIG1        0.0360
     17 C          -2.2210    1.4040    0.0000 C.ar    1  LIG1        0.1751
     18 C          -2.2210    0.4000    0.0000 C.ar    1  LIG1        0.2060
     19 C          -1.3540   -0.1000    0.0000 C.ar    1  LIG1        0.1751
     20 C          -0.4880    0.4000    0.0000 C.ar    1  LIG1        0.0360
     21 O          -1.3540   -1.0960    0.0000 O.3     1  LIG1       -0.4683
     22 C          -0.4880   -1.6000    0.0000 C.3     1  LIG1        0.2526
     23 O          -3.0880   -0.1000    0.0000 O.3     1  LIG1       -0.4654
     24 C          -3.9540    0.4000    0.0000 C.3     1  LIG1        0.2528
     25 O          -3.0880    1.9000    0.0000 O.3     1  LIG1       -0.4683
     26 C          -3.9540    1.4040    0.0000 C.3     1  LIG1        0.2526
@<TRIPOS>BOND
     1     1     2   ar
     2     1     5   ar
     3     1    10    1
     4     2     3   ar
     5     2     9   ar
     6     3     4   ar
     7     3     6   ar
     8     4     5   ar
     9     6     7   ar
    10     7     8   ar
    11     8     9   ar
    12    10    11    2
    13    10    12   am
    14    12    13    1
    15    13    14    1
    16    14    15    1
    17    15    16   ar
    18    15    20   ar
    19    16    17   ar
    20    17    18   ar
    21    17    25    1
    22    18    19   ar
    23    18    23    1
    24    19    20   ar
    25    19    21    1
    26    21    22    1
    27    23    24    1
    28    25    26    1
