@<TRIPOS>MOLECULE
37825_ChemDiv_C614-0929
 31 34 0 0 0
SMALL
GASTEIGER
Energy = 0

@<TRIPOS>ATOM
      1 N          -2.7040   -0.7420    0.0000 N.ar    1  LIG1       -0.2961
      2 C          -2.1210    0.0630    0.0000 C.ar    1  LIG1        0.1222
      3 N          -2.7040    0.8790    0.0000 N.ar    1  LIG1       -0.2293
      4 C          -3.6630    0.5670    0.0000 C.ar    1  LIG1        0.1167
      5 C          -3.6630   -0.4210    0.0000 C.ar    1  LIG1        0.1627
      6 N          -4.5250   -0.9330    0.0000 N.ar    1  LIG1       -0.2252
      7 C          -5.3880   -0.4210    0.0000 C.ar    1  LIG1        0.1006
      8 C          -5.3880    0.5670    0.0000 C.ar    1  LIG1        0.0223
      9 C          -4.5250    1.0670    0.0000 C.ar    1  LIG1        0.0238
     10 C          -1.1210    0.0630    0.0000 C.3     1  LIG1        0.0736
     11 C          -0.6210    0.9250    0.0000 C.3     1  LIG1        0.0947
     12 C           0.3830    0.9250    0.0000 C.2     1  LIG1        0.2418
     13 O           0.8830    0.0630    0.0000 O.2     1  LIG1       -0.2733
     14 N           0.8830    1.7920    0.0000 N.am    1  LIG1       -0.2051
     15 C           1.8830    1.7920    0.0000 C.3     1  LIG1        0.1198
     16 C           2.3830    2.6540    0.0000 C.3     1  LIG1        0.0498
     17 C           3.3830    2.6540    0.0000 C.ar    1  LIG1       -0.0204
     18 C           3.8830    1.7790    0.0000 C.ar    1  LIG1       -0.0042
     19 C           4.8830    1.7750    0.0000 C.ar    1  LIG1       -0.0003
     20 C           5.3830    2.6380    0.0000 C.ar    1  LIG1       -0.0000
     21 C           4.8830    3.5170    0.0000 C.ar    1  LIG1       -0.0003
     22 C           3.8830    3.5170    0.0000 C.ar    1  LIG1       -0.0042
     23 C          -2.4040   -1.6960    0.0000 C.3     1  LIG1        0.1353
     24 C          -1.4250   -1.9080    0.0000 C.ar    1  LIG1        0.0007
     25 C          -1.1170   -2.8540    0.0000 C.ar    1  LIG1        0.0007
     26 C          -0.1460   -3.0670    0.0000 C.ar    1  LIG1        0.0366
     27 C           0.5290   -2.3290    0.0000 C.ar    1  LIG1        0.1387
     28 C           0.2170   -1.3750    0.0000 C.ar    1  LIG1        0.0366
     29 C          -0.7500   -1.1630    0.0000 C.ar    1  LIG1        0.0007
     30 O           1.5040   -2.5540    0.0000 O.3     1  LIG1       -0.4714
     31 C           1.8080   -3.5130    0.0000 C.3     1  LIG1        0.2525
@<TRIPOS>BOND
     1     1     2   ar
     2     1     5   ar
     3     1    23    1
     4     2     3   ar
     5     2    10    1
     6     3     4   ar
     7     4     5   ar
     8     4     9   ar
     9     5     6   ar
    10     6     7   ar
    11     7     8   ar
    12     8     9   ar
    13    10    11    1
    14    11    12    1
    15    12    13    2
    16    12    14   am
    17    14    15    1
    18    15    16    1
    19    16    17    1
    20    17    18   ar
    21    17    22   ar
    22    18    19   ar
    23    19    20   ar
    24    20    21   ar
    25    21    22   ar
    26    23    24    1
    27    24    25   ar
    28    24    29   ar
    29    25    26   ar
    30    26    27   ar
    31    27    28   ar
    32    27    30    1
    33    28    29   ar
    34    30    31    1
