@<TRIPOS>MOLECULE
37839_ChemDiv_C614-0931
 28 31 0 0 0
SMALL
GASTEIGER
Energy = 0

@<TRIPOS>ATOM
      1 N          -1.7290   -0.2880    0.0000 N.ar    1  LIG1       -0.2961
      2 C          -1.1420    0.5170    0.0000 C.ar    1  LIG1        0.1222
      3 N          -1.7290    1.3330    0.0000 N.ar    1  LIG1       -0.2293
      4 C          -2.6830    1.0210    0.0000 C.ar    1  LIG1        0.1167
      5 C          -2.6830    0.0330    0.0000 C.ar    1  LIG1        0.1627
      6 N          -3.5460   -0.4790    0.0000 N.ar    1  LIG1       -0.2252
      7 C          -4.4080    0.0330    0.0000 C.ar    1  LIG1        0.1006
      8 C          -4.4080    1.0210    0.0000 C.ar    1  LIG1        0.0223
      9 C          -3.5460    1.5210    0.0000 C.ar    1  LIG1        0.0238
     10 C          -0.1420    0.5170    0.0000 C.3     1  LIG1        0.0736
     11 C           0.3540    1.3790    0.0000 C.3     1  LIG1        0.0947
     12 C           1.3630    1.3790    0.0000 C.2     1  LIG1        0.2418
     13 N           1.8580    2.2420    0.0000 N.am    1  LIG1       -0.2072
     14 C           2.8580    2.2420    0.0000 C.3     1  LIG1        0.0953
     15 C           3.4500    1.4290    0.0000 C.3     1  LIG1        0.0217
     16 C           4.4040    1.7420    0.0000 C.3     1  LIG1        0.0018
     17 C           4.4040    2.7460    0.0000 C.3     1  LIG1        0.0018
     18 C           3.4500    3.0630    0.0000 C.3     1  LIG1        0.0217
     19 O           1.8580    0.5170    0.0000 O.2     1  LIG1       -0.2733
     20 C          -1.4250   -1.2380    0.0000 C.3     1  LIG1        0.1353
     21 C          -0.4460   -1.4500    0.0000 C.ar    1  LIG1        0.0007
     22 C           0.2250   -0.7080    0.0000 C.ar    1  LIG1        0.0007
     23 C           1.1960   -0.9210    0.0000 C.ar    1  LIG1        0.0366
     24 C           1.5080   -1.8750    0.0000 C.ar    1  LIG1        0.1387
     25 C           0.8290   -2.6130    0.0000 C.ar    1  LIG1        0.0366
     26 C          -0.1380   -2.4000    0.0000 C.ar    1  LIG1        0.0007
     27 O           2.4790   -2.0960    0.0000 O.3     1  LIG1       -0.4714
     28 C           2.7830   -3.0580    0.0000 C.3     1  LIG1        0.2525
@<TRIPOS>BOND
     1     1     2   ar
     2     1     5   ar
     3     1    20    1
     4     2     3   ar
     5     2    10    1
     6     3     4   ar
     7     4     5   ar
     8     4     9   ar
     9     5     6   ar
    10     6     7   ar
    11     7     8   ar
    12     8     9   ar
    13    10    11    1
    14    11    12    1
    15    12    13   am
    16    12    19    2
    17    13    14    1
    18    14    15    1
    19    14    18    1
    20    15    16    1
    21    16    17    1
    22    17    18    1
    23    20    21    1
    24    21    22   ar
    25    21    26   ar
    26    22    23   ar
    27    23    24   ar
    28    24    25   ar
    29    24    27    1
    30    25    26   ar
    31    27    28    1
