@<TRIPOS>MOLECULE
37838_ChemDiv_C697-0885
 25 27 0 0 0
SMALL
GASTEIGER
Energy = 0

@<TRIPOS>ATOM
      1 C          -3.7330    0.0040    0.0000 C.ar    1  LIG1        0.4220
      2 N          -3.6330   -0.9920    0.0000 N.ar    1  LIG1       -0.2601
      3 C          -2.6460   -1.2000    0.0000 C.ar    1  LIG1        0.1001
      4 C          -2.1460   -0.3380    0.0000 C.ar    1  LIG1        0.1673
      5 O          -2.8210    0.4040    0.0000 O.2     1  LIG1       -0.4067
      6 C          -1.1540   -0.3420    0.0000 C.ar    1  LIG1        0.0591
      7 C          -0.6500   -1.2000    0.0000 C.ar    1  LIG1        0.1267
      8 S           0.3710   -1.2130    0.0000 S.O2    1  LIG1        0.0769
      9 O           0.3750   -0.2040    0.0000 O.2     1  LIG1       -0.1516
     10 O           0.3540   -2.2250    0.0000 O.2     1  LIG1       -0.1516
     11 N           1.3790   -1.2290    0.0000 N.3     1  LIG1       -0.0773
     12 C           1.8830   -0.3670    0.0000 C.3     1  LIG1        0.1251
     13 C           1.3920    0.5040    0.0000 C.3     1  LIG1        0.1080
     14 C           1.8960    1.3630    0.0000 C.2     1  LIG1        0.2488
     15 N           2.9040    1.3630    0.0000 N.am    1  LIG1       -0.1543
     16 C           3.3960    0.4920    0.0000 C.ar    1  LIG1        0.1858
     17 N           4.3830    0.3880    0.0000 N.ar    1  LIG1       -0.2209
     18 C           4.5920   -0.5960    0.0000 C.ar    1  LIG1        0.1079
     19 C           3.7290   -1.0710    0.0000 C.ar    1  LIG1        0.0588
     20 S           2.9880   -0.4040    0.0000 S.2     1  LIG1       -0.0491
     21 O           1.4080    2.2290    0.0000 O.2     1  LIG1       -0.2729
     22 C          -1.1500   -2.0710    0.0000 C.ar    1  LIG1        0.0216
     23 C          -2.1540   -2.0790    0.0000 C.ar    1  LIG1        0.0218
     24 C          -4.3670   -1.6540    0.0000 C.3     1  LIG1        0.1369
     25 O          -4.5960    0.5040    0.0000 O.2     1  LIG1       -0.2226
@<TRIPOS>BOND
     1     1     2   ar
     2     1     5   ar
     3     1    25    2
     4     2     3   ar
     5     2    24    1
     6     3     4   ar
     7     3    23   ar
     8     4     5   ar
     9     4     6   ar
    10     6     7   ar
    11     7     8    1
    12     7    22   ar
    13     8     9    2
    14     8    10    2
    15     8    11    1
    16    11    12    1
    17    12    13    1
    18    13    14    1
    19    14    15   am
    20    14    21    2
    21    15    16    1
    22    16    17   ar
    23    16    20   ar
    24    17    18   ar
    25    18    19   ar
    26    19    20   ar
    27    22    23   ar
