@<TRIPOS>MOLECULE
37831_ChemDiv_C614-0943
 37 40 0 0 0
SMALL
GASTEIGER
Energy = 0

@<TRIPOS>ATOM
      1 N          -3.6330    1.7000    0.0000 N.ar    1  LIG1       -0.2961
      2 C          -3.0420    2.5130    0.0000 C.ar    1  LIG1        0.1222
      3 N          -3.6330    3.3210    0.0000 N.ar    1  LIG1       -0.2293
      4 C          -4.5830    3.0130    0.0000 C.ar    1  LIG1        0.1167
      5 C          -4.5830    2.0130    0.0000 C.ar    1  LIG1        0.1627
      6 N          -5.4500    1.5040    0.0000 N.ar    1  LIG1       -0.2252
      7 C          -6.3080    2.0040    0.0000 C.ar    1  LIG1        0.1006
      8 C          -6.3080    3.0040    0.0000 C.ar    1  LIG1        0.0223
      9 C          -5.4500    3.5130    0.0000 C.ar    1  LIG1        0.0238
     10 C          -2.0420    2.5130    0.0000 C.3     1  LIG1        0.0736
     11 C          -1.5420    1.6500    0.0000 C.3     1  LIG1        0.0947
     12 C          -0.5420    1.6500    0.0000 C.2     1  LIG1        0.2418
     13 O          -0.0420    2.5130    0.0000 O.2     1  LIG1       -0.2733
     14 N          -0.0380    0.7880    0.0000 N.am    1  LIG1       -0.2051
     15 C           0.9630    0.7880    0.0000 C.3     1  LIG1        0.1198
     16 C           1.4630   -0.0710    0.0000 C.3     1  LIG1        0.0499
     17 C           2.4630   -0.0630    0.0000 C.ar    1  LIG1       -0.0172
     18 C           2.9710   -0.9250    0.0000 C.ar    1  LIG1        0.0358
     19 C           3.9710   -0.9080    0.0000 C.ar    1  LIG1        0.1719
     20 C           4.4630   -0.0420    0.0000 C.ar    1  LIG1        0.1722
     21 C           3.9460    0.8210    0.0000 C.ar    1  LIG1        0.0397
     22 C           2.9580    0.8080    0.0000 C.ar    1  LIG1       -0.0009
     23 O           5.4630   -0.0290    0.0000 O.3     1  LIG1       -0.4724
     24 C           5.9710   -0.8960    0.0000 C.3     1  LIG1        0.2057
     25 C           6.9710   -0.8790    0.0000 C.3     1  LIG1        0.0512
     26 O           4.4750   -1.7710    0.0000 O.3     1  LIG1       -0.4724
     27 C           3.9880   -2.6460    0.0000 C.3     1  LIG1        0.2057
     28 C           4.4920   -3.5080    0.0000 C.3     1  LIG1        0.0512
     29 C          -3.3250    0.7460    0.0000 C.3     1  LIG1        0.1353
     30 C          -3.9920    0.0040    0.0000 C.ar    1  LIG1        0.0007
     31 C          -3.6790   -0.9380    0.0000 C.ar    1  LIG1        0.0007
     32 C          -4.3460   -1.6830    0.0000 C.ar    1  LIG1        0.0366
     33 C          -5.3380   -1.4790    0.0000 C.ar    1  LIG1        0.1387
     34 C          -5.6420   -0.5250    0.0000 C.ar    1  LIG1        0.0366
     35 C          -4.9670    0.2170    0.0000 C.ar    1  LIG1        0.0007
     36 O          -5.9960   -2.2210    0.0000 O.3     1  LIG1       -0.4714
     37 C          -6.9710   -2.0170    0.0000 C.3     1  LIG1        0.2525
@<TRIPOS>BOND
     1     1     2   ar
     2     1     5   ar
     3     1    29    1
     4     2     3   ar
     5     2    10    1
     6     3     4   ar
     7     4     5   ar
     8     4     9   ar
     9     5     6   ar
    10     6     7   ar
    11     7     8   ar
    12     8     9   ar
    13    10    11    1
    14    11    12    1
    15    12    13    2
    16    12    14   am
    17    14    15    1
    18    15    16    1
    19    16    17    1
    20    17    18   ar
    21    17    22   ar
    22    18    19   ar
    23    19    20   ar
    24    19    26    1
    25    20    21   ar
    26    20    23    1
    27    21    22   ar
    28    23    24    1
    29    24    25    1
    30    26    27    1
    31    27    28    1
    32    29    30    1
    33    30    31   ar
    34    30    35   ar
    35    31    32   ar
    36    32    33   ar
    37    33    34   ar
    38    33    36    1
    39    34    35   ar
    40    36    37    1
