@<TRIPOS>MOLECULE
37835_ChemDiv_C614-6016
 32 35 0 0 0
SMALL
GASTEIGER
Energy = 0

@<TRIPOS>ATOM
      1 N          -3.9380    0.7960    0.0000 N.ar    1  LIG1       -0.2961
      2 C          -3.3380    1.6000    0.0000 C.ar    1  LIG1        0.1222
      3 N          -3.9380    2.4130    0.0000 N.ar    1  LIG1       -0.2293
      4 C          -4.8920    2.1000    0.0000 C.ar    1  LIG1        0.1167
      5 C          -4.8920    1.1000    0.0000 C.ar    1  LIG1        0.1627
      6 N          -5.7580    0.6000    0.0000 N.ar    1  LIG1       -0.2252
      7 C          -6.6250    1.1000    0.0000 C.ar    1  LIG1        0.1006
      8 C          -6.6250    2.1000    0.0000 C.ar    1  LIG1        0.0223
      9 C          -5.7580    2.6080    0.0000 C.ar    1  LIG1        0.0238
     10 C          -2.3330    1.6000    0.0000 C.3     1  LIG1        0.0736
     11 C          -1.8380    0.7330    0.0000 C.3     1  LIG1        0.0947
     12 C          -0.8380    0.7330    0.0000 C.2     1  LIG1        0.2418
     13 O          -0.3290    1.6000    0.0000 O.2     1  LIG1       -0.2733
     14 N          -0.3420   -0.1250    0.0000 N.am    1  LIG1       -0.2051
     15 C           0.6580   -0.1250    0.0000 C.3     1  LIG1        0.1198
     16 C           1.1580   -0.9880    0.0000 C.3     1  LIG1        0.0498
     17 C           2.1540   -0.9880    0.0000 C.ar    1  LIG1       -0.0202
     18 C           2.6500   -1.8500    0.0000 C.ar    1  LIG1       -0.0011
     19 C           3.6380   -1.8500    0.0000 C.ar    1  LIG1        0.0366
     20 C           4.1330   -0.9880    0.0000 C.ar    1  LIG1        0.1385
     21 C           3.6290   -0.1250    0.0000 C.ar    1  LIG1        0.0366
     22 C           2.6380   -0.1250    0.0000 C.ar    1  LIG1       -0.0011
     23 O           5.1290   -0.9830    0.0000 O.3     1  LIG1       -0.4755
     24 C           5.6250   -0.1130    0.0000 C.3     1  LIG1        0.2055
     25 C           6.6250   -0.1130    0.0000 C.3     1  LIG1        0.0512
     26 C          -3.6210   -0.1670    0.0000 C.3     1  LIG1        0.1353
     27 C          -4.2920   -0.9130    0.0000 C.ar    1  LIG1        0.0005
     28 C          -3.9750   -1.8500    0.0000 C.ar    1  LIG1       -0.0024
     29 C          -4.6330   -2.6040    0.0000 C.ar    1  LIG1       -0.0003
     30 C          -5.6210   -2.3960    0.0000 C.ar    1  LIG1       -0.0000
     31 C          -5.9330   -1.4420    0.0000 C.ar    1  LIG1       -0.0003
     32 C          -5.2670   -0.7000    0.0000 C.ar    1  LIG1       -0.0024
@<TRIPOS>BOND
     1     1     2   ar
     2     1     5   ar
     3     1    26    1
     4     2     3   ar
     5     2    10    1
     6     3     4   ar
     7     4     5   ar
     8     4     9   ar
     9     5     6   ar
    10     6     7   ar
    11     7     8   ar
    12     8     9   ar
    13    10    11    1
    14    11    12    1
    15    12    13    2
    16    12    14   am
    17    14    15    1
    18    15    16    1
    19    16    17    1
    20    17    18   ar
    21    17    22   ar
    22    18    19   ar
    23    19    20   ar
    24    20    21   ar
    25    20    23    1
    26    21    22   ar
    27    23    24    1
    28    24    25    1
    29    26    27    1
    30    27    28   ar
    31    27    32   ar
    32    28    29   ar
    33    29    30   ar
    34    30    31   ar
    35    31    32   ar
