@<TRIPOS>MOLECULE
37837_ChemDiv_C614-6017
 35 38 0 0 0
SMALL
GASTEIGER
Energy = 0

@<TRIPOS>ATOM
      1 N          -3.4380    0.8460    0.0000 N.ar    1  LIG1       -0.2961
      2 C          -2.8420    1.6540    0.0000 C.ar    1  LIG1        0.1222
      3 N          -3.4380    2.4630    0.0000 N.ar    1  LIG1       -0.2293
      4 C          -4.3920    2.1500    0.0000 C.ar    1  LIG1        0.1167
      5 C          -4.3920    1.1500    0.0000 C.ar    1  LIG1        0.1627
      6 N          -5.2580    0.6500    0.0000 N.ar    1  LIG1       -0.2252
      7 C          -6.1250    1.1500    0.0000 C.ar    1  LIG1        0.1006
      8 C          -6.1250    2.1500    0.0000 C.ar    1  LIG1        0.0223
      9 C          -5.2580    2.6630    0.0000 C.ar    1  LIG1        0.0238
     10 C          -1.8380    1.6540    0.0000 C.3     1  LIG1        0.0736
     11 C          -1.3380    0.7880    0.0000 C.3     1  LIG1        0.0947
     12 C          -0.3420    0.7880    0.0000 C.2     1  LIG1        0.2418
     13 O           0.1710    1.6540    0.0000 O.2     1  LIG1       -0.2733
     14 N           0.1580   -0.0750    0.0000 N.am    1  LIG1       -0.2051
     15 C           1.1580   -0.0750    0.0000 C.3     1  LIG1        0.1198
     16 C           1.6540   -0.9380    0.0000 C.3     1  LIG1        0.0500
     17 C           2.6540   -0.9380    0.0000 C.ar    1  LIG1       -0.0142
     18 C           3.1500   -1.8000    0.0000 C.ar    1  LIG1        0.0360
     19 C           4.1380   -1.8000    0.0000 C.ar    1  LIG1        0.1751
     20 C           4.6330   -0.9380    0.0000 C.ar    1  LIG1        0.2060
     21 C           4.1290   -0.0750    0.0000 C.ar    1  LIG1        0.1751
     22 C           3.1380   -0.0750    0.0000 C.ar    1  LIG1        0.0360
     23 O           4.6210    0.7920    0.0000 O.3     1  LIG1       -0.4683
     24 C           4.1040    1.6540    0.0000 C.3     1  LIG1        0.2526
     25 O           5.6290   -0.9330    0.0000 O.3     1  LIG1       -0.4654
     26 C           6.1250   -0.0630    0.0000 C.3     1  LIG1        0.2528
     27 O           4.6330   -2.6580    0.0000 O.3     1  LIG1       -0.4683
     28 C           5.6330   -2.6580    0.0000 C.3     1  LIG1        0.2526
     29 C          -3.1210   -0.1170    0.0000 C.3     1  LIG1        0.1353
     30 C          -3.7920   -0.8630    0.0000 C.ar    1  LIG1        0.0005
     31 C          -3.4750   -1.8000    0.0000 C.ar    1  LIG1       -0.0024
     32 C          -4.1330   -2.5540    0.0000 C.ar    1  LIG1       -0.0003
     33 C          -5.1250   -2.3460    0.0000 C.ar    1  LIG1       -0.0000
     34 C          -5.4380   -1.3920    0.0000 C.ar    1  LIG1       -0.0003
     35 C          -4.7710   -0.6500    0.0000 C.ar    1  LIG1       -0.0024
@<TRIPOS>BOND
     1     1     2   ar
     2     1     5   ar
     3     1    29    1
     4     2     3   ar
     5     2    10    1
     6     3     4   ar
     7     4     5   ar
     8     4     9   ar
     9     5     6   ar
    10     6     7   ar
    11     7     8   ar
    12     8     9   ar
    13    10    11    1
    14    11    12    1
    15    12    13    2
    16    12    14   am
    17    14    15    1
    18    15    16    1
    19    16    17    1
    20    17    18   ar
    21    17    22   ar
    22    18    19   ar
    23    19    20   ar
    24    19    27    1
    25    20    21   ar
    26    20    25    1
    27    21    22   ar
    28    21    23    1
    29    23    24    1
    30    25    26    1
    31    27    28    1
    32    29    30    1
    33    30    31   ar
    34    30    35   ar
    35    31    32   ar
    36    32    33   ar
    37    33    34   ar
    38    34    35   ar
