@<TRIPOS>MOLECULE
37832_ChemDiv_C696-0100
 26 29 0 0 0
SMALL
GASTEIGER
Energy = 0

@<TRIPOS>ATOM
      1 C          -1.0040   -0.8670    0.0000 C.ar    1  LIG1        0.1734
      2 N          -0.5040    0.0040    0.0000 N.ar    1  LIG1       -0.1314
      3 N           0.4960    0.0040    0.0000 N.ar    1  LIG1       -0.1508
      4 C           0.9960   -0.8670    0.0000 C.ar    1  LIG1        0.0850
      5 C           0.4960   -1.7290    0.0000 C.ar    1  LIG1        0.0184
      6 C          -0.5040   -1.7290    0.0000 C.ar    1  LIG1        0.0363
      7 C          -1.0040   -2.5960    0.0000 C.ar    1  LIG1        0.0029
      8 C          -0.5040   -3.4630    0.0000 C.ar    1  LIG1        0.0001
      9 C           0.4960   -3.4630    0.0000 C.ar    1  LIG1        0.0000
     10 C           0.9960   -2.5960    0.0000 C.ar    1  LIG1        0.0013
     11 C           1.9960   -0.8670    0.0000 C.3     1  LIG1        0.0755
     12 C           2.4960    0.0040    0.0000 C.ar    1  LIG1        0.0030
     13 C           1.9960    0.8710    0.0000 C.ar    1  LIG1        0.0950
     14 N           2.4960    1.7330    0.0000 N.ar    1  LIG1       -0.2426
     15 C           3.4960    1.7330    0.0000 C.ar    1  LIG1        0.0989
     16 C           3.9960    0.8710    0.0000 C.ar    1  LIG1        0.0204
     17 C           3.4960    0.0040    0.0000 C.ar    1  LIG1       -0.0008
     18 N          -2.0000   -0.8670    0.0000 N.pl3   1  LIG1       -0.1927
     19 C          -2.5000    0.0040    0.0000 C.ar    1  LIG1        0.0722
     20 C          -3.5000    0.0040    0.0000 C.ar    1  LIG1        0.0162
     21 C          -4.0000    0.8710    0.0000 C.ar    1  LIG1       -0.0029
     22 C          -3.5000    1.7330    0.0000 C.ar    1  LIG1       -0.0221
     23 C          -2.5000    1.7330    0.0000 C.ar    1  LIG1       -0.0029
     24 C          -2.0000    0.8710    0.0000 C.ar    1  LIG1        0.0162
     25 C          -4.0000    2.6000    0.0000 C.3     1  LIG1        0.0264
     26 C          -3.5000    3.4670    0.0000 C.3     1  LIG1        0.0050
@<TRIPOS>BOND
     1     1     2   ar
     2     1     6   ar
     3     1    18    1
     4     2     3   ar
     5     3     4   ar
     6     4     5   ar
     7     4    11    1
     8     5     6   ar
     9     5    10   ar
    10     6     7   ar
    11     7     8   ar
    12     8     9   ar
    13     9    10   ar
    14    11    12    1
    15    12    13   ar
    16    12    17   ar
    17    13    14   ar
    18    14    15   ar
    19    15    16   ar
    20    16    17   ar
    21    18    19    1
    22    19    20   ar
    23    19    24   ar
    24    20    21   ar
    25    21    22   ar
    26    22    23   ar
    27    22    25    1
    28    23    24   ar
    29    25    26    1
