@<TRIPOS>MOLECULE
37833_ChemDiv_C614-0973
 33 36 0 0 0
SMALL
GASTEIGER
Energy = 0

@<TRIPOS>ATOM
      1 N          -3.4630    0.7960    0.0000 N.ar    1  LIG1       -0.2961
      2 C          -2.8710    1.5960    0.0000 C.ar    1  LIG1        0.1222
      3 N          -3.4630    2.4130    0.0000 N.ar    1  LIG1       -0.2293
      4 C          -4.4130    2.0960    0.0000 C.ar    1  LIG1        0.1167
      5 C          -4.4130    1.0960    0.0000 C.ar    1  LIG1        0.1627
      6 N          -5.2790    0.5960    0.0000 N.ar    1  LIG1       -0.2252
      7 C          -6.1380    1.0960    0.0000 C.ar    1  LIG1        0.1006
      8 C          -6.1380    2.0960    0.0000 C.ar    1  LIG1        0.0223
      9 C          -5.2790    2.5960    0.0000 C.ar    1  LIG1        0.0238
     10 C          -1.8710    1.5960    0.0000 C.3     1  LIG1        0.0736
     11 C          -1.3710    0.7330    0.0000 C.3     1  LIG1        0.0947
     12 C          -0.3750    0.7330    0.0000 C.2     1  LIG1        0.2418
     13 O           0.1250    1.6000    0.0000 O.2     1  LIG1       -0.2733
     14 N           0.1330   -0.1290    0.0000 N.am    1  LIG1       -0.2051
     15 C           1.1290   -0.1250    0.0000 C.3     1  LIG1        0.1198
     16 C           1.6290   -0.9790    0.0000 C.3     1  LIG1        0.0499
     17 C           2.6290   -0.9710    0.0000 C.ar    1  LIG1       -0.0172
     18 C           3.1250   -0.1000    0.0000 C.ar    1  LIG1        0.0358
     19 C           4.1130   -0.0830    0.0000 C.ar    1  LIG1        0.1721
     20 C           4.6290   -0.9460    0.0000 C.ar    1  LIG1        0.1724
     21 C           4.1380   -1.8250    0.0000 C.ar    1  LIG1        0.0397
     22 C           3.1290   -1.8330    0.0000 C.ar    1  LIG1       -0.0009
     23 O           5.6290   -0.9330    0.0000 O.3     1  LIG1       -0.4684
     24 C           6.1380   -1.8040    0.0000 C.3     1  LIG1        0.2526
     25 O           4.6080    0.7790    0.0000 O.3     1  LIG1       -0.4684
     26 C           5.6080    0.7960    0.0000 C.3     1  LIG1        0.2526
     27 C          -3.1540   -0.1580    0.0000 C.3     1  LIG1        0.1353
     28 C          -3.8210   -0.9000    0.0000 C.ar    1  LIG1        0.0005
     29 C          -4.7960   -0.6920    0.0000 C.ar    1  LIG1       -0.0024
     30 C          -5.4710   -1.4290    0.0000 C.ar    1  LIG1       -0.0003
     31 C          -5.1580   -2.3880    0.0000 C.ar    1  LIG1       -0.0000
     32 C          -4.1750   -2.5920    0.0000 C.ar    1  LIG1       -0.0003
     33 C          -3.5080   -1.8500    0.0000 C.ar    1  LIG1       -0.0024
@<TRIPOS>BOND
     1     1     2   ar
     2     1     5   ar
     3     1    27    1
     4     2     3   ar
     5     2    10    1
     6     3     4   ar
     7     4     5   ar
     8     4     9   ar
     9     5     6   ar
    10     6     7   ar
    11     7     8   ar
    12     8     9   ar
    13    10    11    1
    14    11    12    1
    15    12    13    2
    16    12    14   am
    17    14    15    1
    18    15    16    1
    19    16    17    1
    20    17    18   ar
    21    17    22   ar
    22    18    19   ar
    23    19    20   ar
    24    19    25    1
    25    20    21   ar
    26    20    23    1
    27    21    22   ar
    28    23    24    1
    29    25    26    1
    30    27    28    1
    31    28    29   ar
    32    28    33   ar
    33    29    30   ar
    34    30    31   ar
    35    31    32   ar
    36    32    33   ar
