@<TRIPOS>MOLECULE
37846_ChemDiv_C647-0351
 37 41 0 0 0
SMALL
GASTEIGER
Energy = 0

@<TRIPOS>ATOM
      1 C           0.3380    2.7540    0.0000 C.ar    1  LIG1        0.0950
      2 C          -0.5540    3.2460    0.0000 C.ar    1  LIG1        0.2016
      3 C          -1.4210    2.7540    0.0000 C.ar    1  LIG1        0.0581
      4 C          -1.4330    1.7380    0.0000 C.ar    1  LIG1        0.0666
      5 N          -0.5540    1.2540    0.0000 N.ar    1  LIG1       -0.3174
      6 C           0.3380    1.7380    0.0000 C.ar    1  LIG1        0.0827
      7 C          -0.5540    0.2580    0.0000 C.3     1  LIG1        0.1939
      8 C           0.3040   -0.2330    0.0000 C.2     1  LIG1        0.2687
      9 N           0.3040   -1.2460    0.0000 N.am    1  LIG1       -0.1745
     10 C           1.1750   -1.7500    0.0000 C.ar    1  LIG1        0.1074
     11 C           1.1580   -2.7500    0.0000 C.ar    1  LIG1        0.1569
     12 C           2.0210   -3.2500    0.0000 C.ar    1  LIG1        0.0751
     13 C           2.8880   -2.7630    0.0000 C.ar    1  LIG1        0.1418
     14 C           2.8880   -1.7500    0.0000 C.ar    1  LIG1        0.0384
     15 C           2.0210   -1.2500    0.0000 C.ar    1  LIG1        0.0228
     16 O           3.7500   -3.2500    0.0000 O.3     1  LIG1       -0.4713
     17 C           4.6170   -2.7670    0.0000 C.3     1  LIG1        0.2525
     18 O           0.2920   -3.2380    0.0000 O.3     1  LIG1       -0.4700
     19 C           0.2880   -4.2380    0.0000 C.3     1  LIG1        0.2525
     20 O           1.1750    0.2580    0.0000 O.2     1  LIG1       -0.2709
     21 C          -2.3000    1.2580    0.0000 C.ar    1  LIG1        0.0575
     22 C          -3.1830    1.7540    0.0000 C.ar    1  LIG1        0.1779
     23 C          -3.1790    2.7540    0.0000 C.ar    1  LIG1        0.1766
     24 C          -2.3000    3.2290    0.0000 C.ar    1  LIG1        0.0448
     25 O          -4.1330    3.0630    0.0000 O.3     1  LIG1       -0.4346
     26 C          -4.7130    2.2710    0.0000 C.3     1  LIG1        0.4294
     27 O          -4.1330    1.4500    0.0000 O.3     1  LIG1       -0.4346
     28 O          -0.5540    4.2380    0.0000 O.2     1  LIG1       -0.2864
     29 C           1.2210    3.2290    0.0000 C.2     1  LIG1        0.2001
     30 C           2.1000    2.7540    0.0000 C.ar    1  LIG1        0.0393
     31 C           2.0830    1.7540    0.0000 C.ar    1  LIG1        0.0055
     32 C           2.9500    1.2580    0.0000 C.ar    1  LIG1        0.0297
     33 C           3.8290    1.7380    0.0000 C.ar    1  LIG1        0.1401
     34 C           3.8290    2.7540    0.0000 C.ar    1  LIG1        0.0297
     35 C           2.9580    3.2290    0.0000 C.ar    1  LIG1        0.0055
     36 F           4.7080    1.2540    0.0000 F       1  LIG1       -0.2042
     37 O           1.2210    4.2130    0.0000 O.2     1  LIG1       -0.2864
@<TRIPOS>BOND
     1     1     2   ar
     2     1     6   ar
     3     1    29    1
     4     2     3   ar
     5     2    28    2
     6     3     4   ar
     7     3    24   ar
     8     4     5   ar
     9     4    21   ar
    10     5     6   ar
    11     5     7    1
    12     7     8    1
    13     8     9   am
    14     8    20    2
    15     9    10    1
    16    10    11   ar
    17    10    15   ar
    18    11    12   ar
    19    11    18    1
    20    12    13   ar
    21    13    14   ar
    22    13    16    1
    23    14    15   ar
    24    16    17    1
    25    18    19    1
    26    21    22   ar
    27    22    23   ar
    28    22    27    1
    29    23    24   ar
    30    23    25    1
    31    25    26    1
    32    26    27    1
    33    29    30    1
    34    29    37    2
    35    30    31   ar
    36    30    35   ar
    37    31    32   ar
    38    32    33   ar
    39    33    34   ar
    40    33    36    1
    41    34    35   ar
