@<TRIPOS>MOLECULE
37848_ChemDiv_C647-0619
 31 34 0 0 0
SMALL
GASTEIGER
Energy = 0

@<TRIPOS>ATOM
      1 C          -0.4250    2.2500    0.0000 C.ar    1  LIG1        0.0950
      2 C          -0.4250    1.2500    0.0000 C.ar    1  LIG1        0.0827
      3 N          -1.3210    0.7670    0.0000 N.ar    1  LIG1       -0.3174
      4 C          -2.1960    1.2500    0.0000 C.ar    1  LIG1        0.0634
      5 C          -2.1830    2.2500    0.0000 C.ar    1  LIG1        0.0549
      6 C          -1.3210    2.7670    0.0000 C.ar    1  LIG1        0.2015
      7 O          -1.3210    3.7330    0.0000 O.2     1  LIG1       -0.2864
      8 C          -3.0750    2.7330    0.0000 C.ar    1  LIG1        0.0046
      9 C          -3.9380    2.2500    0.0000 C.ar    1  LIG1        0.0002
     10 C          -3.9380    1.2670    0.0000 C.ar    1  LIG1        0.0015
     11 C          -3.0750    0.7670    0.0000 C.ar    1  LIG1        0.0173
     12 C          -1.3210   -0.2330    0.0000 C.3     1  LIG1        0.1939
     13 C          -0.4420   -0.7330    0.0000 C.2     1  LIG1        0.2686
     14 N          -0.4420   -1.7330    0.0000 N.am    1  LIG1       -0.1779
     15 C           0.4210   -2.2330    0.0000 C.ar    1  LIG1        0.0694
     16 C           0.4210   -3.2290    0.0000 C.ar    1  LIG1       -0.0065
     17 C          -0.4500   -3.7290    0.0000 C.3     1  LIG1        0.0324
     18 C           1.2830   -3.7290    0.0000 C.ar    1  LIG1       -0.0030
     19 C           2.1500   -3.2290    0.0000 C.ar    1  LIG1       -0.0002
     20 C           2.1500   -2.2330    0.0000 C.ar    1  LIG1        0.0013
     21 C           1.2830   -1.7330    0.0000 C.ar    1  LIG1        0.0163
     22 O           0.4210   -0.2330    0.0000 O.2     1  LIG1       -0.2709
     23 C           0.4540    2.7330    0.0000 C.2     1  LIG1        0.2001
     24 C           1.3040    2.2500    0.0000 C.ar    1  LIG1        0.0391
     25 C           2.1920    2.7330    0.0000 C.ar    1  LIG1        0.0029
     26 C           3.0580    2.2500    0.0000 C.ar    1  LIG1       -0.0042
     27 C           3.0580    1.2500    0.0000 C.ar    1  LIG1       -0.0218
     28 C           2.1790    0.7670    0.0000 C.ar    1  LIG1       -0.0042
     29 C           1.3000    1.2670    0.0000 C.ar    1  LIG1        0.0029
     30 C           3.9330    0.7670    0.0000 C.3     1  LIG1        0.0310
     31 O           0.4540    3.7330    0.0000 O.2     1  LIG1       -0.2864
@<TRIPOS>BOND
     1     1     2   ar
     2     1     6   ar
     3     1    23    1
     4     2     3   ar
     5     3     4   ar
     6     3    12    1
     7     4     5   ar
     8     4    11   ar
     9     5     6   ar
    10     5     8   ar
    11     6     7    2
    12     8     9   ar
    13     9    10   ar
    14    10    11   ar
    15    12    13    1
    16    13    14   am
    17    13    22    2
    18    14    15    1
    19    15    16   ar
    20    15    21   ar
    21    16    17    1
    22    16    18   ar
    23    18    19   ar
    24    19    20   ar
    25    20    21   ar
    26    23    24    1
    27    23    31    2
    28    24    25   ar
    29    24    29   ar
    30    25    26   ar
    31    26    27   ar
    32    27    28   ar
    33    27    30    1
    34    28    29   ar
