@<TRIPOS>MOLECULE
37840_ChemDiv_K906-1932
 35 38 0 0 0
SMALL
GASTEIGER
Energy = 0

@<TRIPOS>ATOM
      1 S          -0.0290   -4.3290    0.0000 S.O2    1  LIG1        0.0773
      2 N           0.9210   -4.4750    0.0000 N.3     1  LIG1       -0.0699
      3 C           1.5210   -3.7130    0.0000 C.3     1  LIG1        0.1764
      4 C           1.1580   -2.8250    0.0000 C.2     1  LIG1        0.2650
      5 N           1.9000   -2.0710    0.0000 N.am    1  LIG1       -0.1531
      6 C           1.8960   -1.0080    0.0000 C.ar    1  LIG1        0.1858
      7 N           2.8130   -0.4750    0.0000 N.ar    1  LIG1       -0.2225
      8 C           2.5880    0.5580    0.0000 C.ar    1  LIG1        0.0895
      9 C           1.5330    0.6670    0.0000 C.ar    1  LIG1        0.0528
     10 S           1.1040   -0.3000    0.0000 S.2     1  LIG1       -0.0496
     11 C           1.1000    1.6290    0.0000 C.ar    1  LIG1        0.0450
     12 C           1.7170    2.4880    0.0000 C.ar    1  LIG1        0.1391
     13 C           2.7750    2.3790    0.0000 C.ar    1  LIG1        0.0385
     14 C           3.2080    1.4170    0.0000 C.ar    1  LIG1        0.0228
     15 O           1.2750    3.4540    0.0000 O.3     1  LIG1       -0.4754
     16 C           1.8960    4.3210    0.0000 C.3     1  LIG1        0.2055
     17 C           1.4580    5.2880    0.0000 C.3     1  LIG1        0.0512
     18 O           0.2080   -2.6920    0.0000 O.2     1  LIG1       -0.2714
     19 C           2.4710   -3.8500    0.0000 C.3     1  LIG1        0.0404
     20 C           3.0580   -3.0960    0.0000 C.3     1  LIG1        0.0596
     21 S           4.0080   -3.2330    0.0000 S.3     1  LIG1       -0.1393
     22 C           4.6040   -2.4830    0.0000 C.3     1  LIG1        0.0692
     23 C          -0.9960   -4.1830    0.0000 C.ar    1  LIG1        0.1267
     24 C          -1.3500   -3.2920    0.0000 C.ar    1  LIG1        0.0591
     25 C          -2.2920   -3.1500    0.0000 C.ar    1  LIG1        0.1673
     26 O          -2.8250   -2.3540    0.0000 O.2     1  LIG1       -0.4067
     27 C          -3.7460   -2.6000    0.0000 C.ar    1  LIG1        0.4220
     28 N          -3.7920   -3.5540    0.0000 N.ar    1  LIG1       -0.2601
     29 C          -2.8920   -3.8960    0.0000 C.ar    1  LIG1        0.1001
     30 C          -2.5420   -4.7880    0.0000 C.ar    1  LIG1        0.0218
     31 C          -1.5920   -4.9330    0.0000 C.ar    1  LIG1        0.0216
     32 C          -4.6080   -4.0830    0.0000 C.3     1  LIG1        0.1369
     33 O          -4.5000   -2.0000    0.0000 O.2     1  LIG1       -0.2226
     34 O           0.1080   -3.3790    0.0000 O.2     1  LIG1       -0.1516
     35 O          -0.1710   -5.2880    0.0000 O.2     1  LIG1       -0.1516
@<TRIPOS>BOND
     1     1     2    1
     2     1    23    1
     3     1    34    2
     4     1    35    2
     5     2     3    1
     6     3     4    1
     7     3    19    1
     8     4     5   am
     9     4    18    2
    10     5     6    1
    11     6     7   ar
    12     6    10   ar
    13     7     8   ar
    14     8     9   ar
    15     8    14   ar
    16     9    10   ar
    17     9    11   ar
    18    11    12   ar
    19    12    13   ar
    20    12    15    1
    21    13    14   ar
    22    15    16    1
    23    16    17    1
    24    19    20    1
    25    20    21    1
    26    21    22    1
    27    23    24   ar
    28    23    31   ar
    29    24    25   ar
    30    25    26   ar
    31    25    29   ar
    32    26    27   ar
    33    27    28   ar
    34    27    33    2
    35    28    29   ar
    36    28    32    1
    37    29    30   ar
    38    30    31   ar
