@<TRIPOS>MOLECULE
37841_ChemDiv_C627-0054
 19 21 0 0 0
SMALL
GASTEIGER
Energy = 0

@<TRIPOS>ATOM
      1 C           0.7130    0.6290    0.0000 C.ar    1  LIG1        0.1579
      2 N           0.3040    1.5420    0.0000 N.ar    1  LIG1       -0.1604
      3 N           1.0460    2.2080    0.0000 N.ar    1  LIG1       -0.2281
      4 C           1.9130    1.7080    0.0000 C.ar    1  LIG1        0.0846
      5 C           1.7040    0.7290    0.0000 C.ar    1  LIG1        0.0447
      6 C           2.7830    2.2080    0.0000 C.ar    1  LIG1        0.0193
      7 C           2.7830    3.2130    0.0000 C.ar    1  LIG1        0.0031
      8 C           1.9130    3.7080    0.0000 C.ar    1  LIG1        0.0207
      9 C           1.0460    3.2130    0.0000 C.ar    1  LIG1        0.1004
     10 C           0.2080   -0.2420    0.0000 C.2     1  LIG1        0.2885
     11 N          -0.7880   -0.2420    0.0000 N.am    1  LIG1       -0.1741
     12 C          -1.2880   -1.1080    0.0000 C.ar    1  LIG1        0.0738
     13 C          -2.2920   -1.1080    0.0000 C.ar    1  LIG1        0.0171
     14 C          -2.7880   -1.9710    0.0000 C.ar    1  LIG1        0.0080
     15 C          -2.2920   -2.8380    0.0000 C.ar    1  LIG1        0.0347
     16 BR         -2.7880   -3.7040    0.0000 Br      1  LIG1       -0.0490
     17 C          -1.2880   -2.8380    0.0000 C.ar    1  LIG1        0.0080
     18 C          -0.7880   -1.9710    0.0000 C.ar    1  LIG1        0.0171
     19 O           0.7130   -1.1080    0.0000 O.2     1  LIG1       -0.2663
@<TRIPOS>BOND
     1     1     2   ar
     2     1     5   ar
     3     1    10    1
     4     2     3   ar
     5     3     4   ar
     6     3     9   ar
     7     4     5   ar
     8     4     6   ar
     9     6     7   ar
    10     7     8   ar
    11     8     9   ar
    12    10    11   am
    13    10    19    2
    14    11    12    1
    15    12    13   ar
    16    12    18   ar
    17    13    14   ar
    18    14    15   ar
    19    15    16    1
    20    15    17   ar
    21    17    18   ar
