@<TRIPOS>MOLECULE
37849_ChemDiv_C627-0061
 20 22 0 0 0
SMALL
GASTEIGER
Energy = 0

@<TRIPOS>ATOM
      1 C           1.2170   -0.6670    0.0000 C.ar    1  LIG1        0.1579
      2 N           0.8080    0.2420    0.0000 N.ar    1  LIG1       -0.1604
      3 N           1.5500    0.9130    0.0000 N.ar    1  LIG1       -0.2281
      4 C           2.4130    0.4130    0.0000 C.ar    1  LIG1        0.0846
      5 C           2.2040   -0.5670    0.0000 C.ar    1  LIG1        0.0447
      6 C           3.2830    0.9130    0.0000 C.ar    1  LIG1        0.0193
      7 C           3.2830    1.9130    0.0000 C.ar    1  LIG1        0.0031
      8 C           2.4130    2.4080    0.0000 C.ar    1  LIG1        0.0207
      9 C           1.5500    1.9130    0.0000 C.ar    1  LIG1        0.1004
     10 C           0.7130   -1.5380    0.0000 C.2     1  LIG1        0.2885
     11 N          -0.2880   -1.5380    0.0000 N.am    1  LIG1       -0.1741
     12 C          -0.7880   -0.6670    0.0000 C.ar    1  LIG1        0.0734
     13 C          -1.7880   -0.6670    0.0000 C.ar    1  LIG1        0.0120
     14 C          -2.2830    0.1960    0.0000 C.ar    1  LIG1       -0.0245
     15 C          -1.7880    1.0630    0.0000 C.ar    1  LIG1       -0.0257
     16 C          -0.7880    1.0630    0.0000 C.ar    1  LIG1       -0.0032
     17 C          -0.2880    0.1960    0.0000 C.ar    1  LIG1        0.0163
     18 C          -2.2830    1.9290    0.0000 C.3     1  LIG1        0.0307
     19 C          -3.2880    0.1960    0.0000 C.3     1  LIG1        0.0307
     20 O           1.2170   -2.4040    0.0000 O.2     1  LIG1       -0.2663
@<TRIPOS>BOND
     1     1     2   ar
     2     1     5   ar
     3     1    10    1
     4     2     3   ar
     5     3     4   ar
     6     3     9   ar
     7     4     5   ar
     8     4     6   ar
     9     6     7   ar
    10     7     8   ar
    11     8     9   ar
    12    10    11   am
    13    10    20    2
    14    11    12    1
    15    12    13   ar
    16    12    17   ar
    17    13    14   ar
    18    14    15   ar
    19    14    19    1
    20    15    16   ar
    21    15    18    1
    22    16    17   ar
