@<TRIPOS>MOLECULE
37845_ChemDiv_C627-0058
 23 25 0 0 0
SMALL
GASTEIGER
Energy = 0

@<TRIPOS>ATOM
      1 C           1.9630   -0.8630    0.0000 C.ar    1  LIG1        0.1579
      2 N           1.5540    0.0500    0.0000 N.ar    1  LIG1       -0.1604
      3 N           2.2960    0.7210    0.0000 N.ar    1  LIG1       -0.2281
      4 C           3.1630    0.2170    0.0000 C.ar    1  LIG1        0.0846
      5 C           2.9540   -0.7580    0.0000 C.ar    1  LIG1        0.0447
      6 C           4.0330    0.7210    0.0000 C.ar    1  LIG1        0.0193
      7 C           4.0330    1.7210    0.0000 C.ar    1  LIG1        0.0031
      8 C           3.1630    2.2170    0.0000 C.ar    1  LIG1        0.0207
      9 C           2.2960    1.7210    0.0000 C.ar    1  LIG1        0.1004
     10 C           1.4630   -1.7330    0.0000 C.2     1  LIG1        0.2885
     11 N           0.4630   -1.7330    0.0000 N.am    1  LIG1       -0.1741
     12 C          -0.0380   -0.8630    0.0000 C.ar    1  LIG1        0.0737
     13 C          -1.0420   -0.8630    0.0000 C.ar    1  LIG1        0.0168
     14 C          -1.5380    0.0040    0.0000 C.ar    1  LIG1        0.0078
     15 C          -1.0420    0.8670    0.0000 C.ar    1  LIG1        0.0757
     16 C          -1.5380    1.7380    0.0000 C.2     1  LIG1        0.3412
     17 O          -1.0420    2.6000    0.0000 O.2     1  LIG1       -0.2449
     18 O          -2.5380    1.7380    0.0000 O.3     1  LIG1       -0.4454
     19 C          -3.0380    0.8670    0.0000 C.3     1  LIG1        0.2089
     20 C          -4.0370    0.8670    0.0000 C.3     1  LIG1        0.0513
     21 C          -0.0380    0.8670    0.0000 C.ar    1  LIG1        0.0078
     22 C           0.4630    0.0040    0.0000 C.ar    1  LIG1        0.0168
     23 O           1.9630   -2.5960    0.0000 O.2     1  LIG1       -0.2663
@<TRIPOS>BOND
     1     1     2   ar
     2     1     5   ar
     3     1    10    1
     4     2     3   ar
     5     3     4   ar
     6     3     9   ar
     7     4     5   ar
     8     4     6   ar
     9     6     7   ar
    10     7     8   ar
    11     8     9   ar
    12    10    11   am
    13    10    23    2
    14    11    12    1
    15    12    13   ar
    16    12    22   ar
    17    13    14   ar
    18    14    15   ar
    19    15    16    1
    20    15    21   ar
    21    16    17    2
    22    16    18    1
    23    18    19    1
    24    19    20    1
    25    21    22   ar
