@<TRIPOS>MOLECULE
37855_ChemDiv_C627-0117
 19 21 0 0 0
SMALL
GASTEIGER
Energy = 0

@<TRIPOS>ATOM
      1 C           0.7130   -0.6670    0.0000 C.ar    1  LIG1        0.1579
      2 N           0.3040    0.2420    0.0000 N.ar    1  LIG1       -0.1604
      3 N           1.0460    0.9130    0.0000 N.ar    1  LIG1       -0.2281
      4 C           1.9130    0.4130    0.0000 C.ar    1  LIG1        0.0846
      5 C           1.7040   -0.5670    0.0000 C.ar    1  LIG1        0.0447
      6 C           2.7790    0.9130    0.0000 C.ar    1  LIG1        0.0193
      7 C           2.7790    1.9130    0.0000 C.ar    1  LIG1        0.0031
      8 C           1.9130    2.4080    0.0000 C.ar    1  LIG1        0.0207
      9 C           1.0460    1.9130    0.0000 C.ar    1  LIG1        0.1004
     10 C           0.2080   -1.5380    0.0000 C.2     1  LIG1        0.2885
     11 N          -0.7880   -1.5380    0.0000 N.am    1  LIG1       -0.1744
     12 C          -1.2880   -0.6670    0.0000 C.ar    1  LIG1        0.0697
     13 C          -2.2920   -0.6670    0.0000 C.ar    1  LIG1       -0.0065
     14 C          -2.7830   -1.5380    0.0000 C.3     1  LIG1        0.0324
     15 C          -2.7830    0.1960    0.0000 C.ar    1  LIG1       -0.0030
     16 C          -2.2920    1.0630    0.0000 C.ar    1  LIG1       -0.0002
     17 C          -1.2880    1.0630    0.0000 C.ar    1  LIG1        0.0013
     18 C          -0.7880    0.1960    0.0000 C.ar    1  LIG1        0.0163
     19 O           0.7130   -2.4040    0.0000 O.2     1  LIG1       -0.2663
@<TRIPOS>BOND
     1     1     2   ar
     2     1     5   ar
     3     1    10    1
     4     2     3   ar
     5     3     4   ar
     6     3     9   ar
     7     4     5   ar
     8     4     6   ar
     9     6     7   ar
    10     7     8   ar
    11     8     9   ar
    12    10    11   am
    13    10    19    2
    14    11    12    1
    15    12    13   ar
    16    12    18   ar
    17    13    14    1
    18    13    15   ar
    19    15    16   ar
    20    16    17   ar
    21    17    18   ar
