@<TRIPOS>MOLECULE
37859_ChemDiv_C614-0947
 27 29 0 0 0
SMALL
GASTEIGER
Energy = 0

@<TRIPOS>ATOM
      1 N          -1.6330    1.0580    0.0000 N.ar    1  LIG1       -0.2961
      2 C          -1.0460    1.8670    0.0000 C.ar    1  LIG1        0.1222
      3 N          -1.6330    2.6790    0.0000 N.ar    1  LIG1       -0.2293
      4 C          -2.5790    2.3670    0.0000 C.ar    1  LIG1        0.1167
      5 C          -2.5790    1.3670    0.0000 C.ar    1  LIG1        0.1627
      6 N          -3.4540    0.8630    0.0000 N.ar    1  LIG1       -0.2252
      7 C          -4.3170    1.3630    0.0000 C.ar    1  LIG1        0.1006
      8 C          -4.3170    2.3670    0.0000 C.ar    1  LIG1        0.0223
      9 C          -3.4540    2.8670    0.0000 C.ar    1  LIG1        0.0238
     10 C          -0.0460    1.8670    0.0000 C.3     1  LIG1        0.0736
     11 C           0.4540    1.0040    0.0000 C.3     1  LIG1        0.0947
     12 C           1.4540    1.0040    0.0000 C.2     1  LIG1        0.2419
     13 O           1.9540    1.8790    0.0000 O.2     1  LIG1       -0.2733
     14 N           1.9630    0.1420    0.0000 N.am    1  LIG1       -0.2027
     15 C           2.9630    0.1500    0.0000 C.3     1  LIG1        0.1471
     16 C           3.4670   -0.7130    0.0000 C.3     1  LIG1        0.1656
     17 O           4.4670   -0.6960    0.0000 O.3     1  LIG1       -0.3492
     18 C           4.9670   -1.5580    0.0000 C.3     1  LIG1        0.1742
     19 C          -1.3170    0.1040    0.0000 C.3     1  LIG1        0.1353
     20 C          -2.0000   -0.6380    0.0000 C.ar    1  LIG1        0.0007
     21 C          -2.9670   -0.4250    0.0000 C.ar    1  LIG1        0.0007
     22 C          -3.6330   -1.1670    0.0000 C.ar    1  LIG1        0.0366
     23 C          -3.3330   -2.1210    0.0000 C.ar    1  LIG1        0.1387
     24 C          -2.3460   -2.3170    0.0000 C.ar    1  LIG1        0.0366
     25 C          -1.6790   -1.5750    0.0000 C.ar    1  LIG1        0.0007
     26 O          -3.9960   -2.8630    0.0000 O.3     1  LIG1       -0.4714
     27 C          -4.9710   -2.6500    0.0000 C.3     1  LIG1        0.2525
@<TRIPOS>BOND
     1     1     2   ar
     2     1     5   ar
     3     1    19    1
     4     2     3   ar
     5     2    10    1
     6     3     4   ar
     7     4     5   ar
     8     4     9   ar
     9     5     6   ar
    10     6     7   ar
    11     7     8   ar
    12     8     9   ar
    13    10    11    1
    14    11    12    1
    15    12    13    2
    16    12    14   am
    17    14    15    1
    18    15    16    1
    19    16    17    1
    20    17    18    1
    21    19    20    1
    22    20    21   ar
    23    20    25   ar
    24    21    22   ar
    25    22    23   ar
    26    23    24   ar
    27    23    26    1
    28    24    25   ar
    29    26    27    1
