@<TRIPOS>MOLECULE
37852_ChemDiv_C647-0778
 36 40 0 0 0
SMALL
GASTEIGER
Energy = 0

@<TRIPOS>ATOM
      1 C           0.4460    2.2330    0.0000 C.ar    1  LIG1        0.0950
      2 C          -0.4500    2.7460    0.0000 C.ar    1  LIG1        0.2015
      3 C          -1.3130    2.2330    0.0000 C.ar    1  LIG1        0.0546
      4 C          -1.3290    1.2420    0.0000 C.ar    1  LIG1        0.0633
      5 N          -0.4500    0.7460    0.0000 N.ar    1  LIG1       -0.3174
      6 C           0.4460    1.2420    0.0000 C.ar    1  LIG1        0.0827
      7 C          -0.4500   -0.2380    0.0000 C.3     1  LIG1        0.1939
      8 C           0.4130   -0.7380    0.0000 C.2     1  LIG1        0.2686
      9 N           0.4130   -1.7290    0.0000 N.am    1  LIG1       -0.1775
     10 C           1.2790   -2.2290    0.0000 C.ar    1  LIG1        0.0767
     11 C           2.1250   -1.7290    0.0000 C.ar    1  LIG1        0.0568
     12 C           2.9880   -2.2210    0.0000 C.ar    1  LIG1        0.1777
     13 C           2.9880   -3.2210    0.0000 C.ar    1  LIG1        0.1765
     14 O           3.9580   -3.5250    0.0000 O.3     1  LIG1       -0.4346
     15 C           4.5500   -2.6960    0.0000 C.3     1  LIG1        0.4294
     16 O           3.9460   -1.8880    0.0000 O.3     1  LIG1       -0.4346
     17 C           2.1420   -3.7210    0.0000 C.ar    1  LIG1        0.0415
     18 C           1.2790   -3.2210    0.0000 C.ar    1  LIG1        0.0199
     19 O           1.2790   -0.2380    0.0000 O.2     1  LIG1       -0.2709
     20 C          -2.2040    0.7580    0.0000 C.ar    1  LIG1        0.0170
     21 C          -3.0710    1.2460    0.0000 C.ar    1  LIG1       -0.0028
     22 C          -3.0710    2.2330    0.0000 C.ar    1  LIG1       -0.0220
     23 C          -2.2040    2.7250    0.0000 C.ar    1  LIG1        0.0004
     24 C          -3.9330    2.7420    0.0000 C.3     1  LIG1        0.0264
     25 C          -4.8130    2.2420    0.0000 C.3     1  LIG1        0.0050
     26 O          -0.4500    3.7250    0.0000 O.2     1  LIG1       -0.2864
     27 C           1.3080    2.7250    0.0000 C.2     1  LIG1        0.2001
     28 C           2.1710    2.2330    0.0000 C.ar    1  LIG1        0.0391
     29 C           3.0500    2.7250    0.0000 C.ar    1  LIG1        0.0029
     30 C           3.9290    2.2330    0.0000 C.ar    1  LIG1       -0.0042
     31 C           3.9290    1.2420    0.0000 C.ar    1  LIG1       -0.0222
     32 C           3.0330    0.7580    0.0000 C.ar    1  LIG1       -0.0042
     33 C           2.1580    1.2460    0.0000 C.ar    1  LIG1        0.0029
     34 C           4.8080    0.7460    0.0000 C.3     1  LIG1        0.0264
     35 C           4.7920   -0.2380    0.0000 C.3     1  LIG1        0.0050
     36 O           1.3080    3.7170    0.0000 O.2     1  LIG1       -0.2864
@<TRIPOS>BOND
     1     1     2   ar
     2     1     6   ar
     3     1    27    1
     4     2     3   ar
     5     2    26    2
     6     3     4   ar
     7     3    23   ar
     8     4     5   ar
     9     4    20   ar
    10     5     6   ar
    11     5     7    1
    12     7     8    1
    13     8     9   am
    14     8    19    2
    15     9    10    1
    16    10    11   ar
    17    10    18   ar
    18    11    12   ar
    19    12    13   ar
    20    12    16    1
    21    13    14    1
    22    13    17   ar
    23    14    15    1
    24    15    16    1
    25    17    18   ar
    26    20    21   ar
    27    21    22   ar
    28    22    23   ar
    29    22    24    1
    30    24    25    1
    31    27    28    1
    32    27    36    2
    33    28    29   ar
    34    28    33   ar
    35    29    30   ar
    36    30    31   ar
    37    31    32   ar
    38    31    34    1
    39    32    33   ar
    40    34    35    1
