@<TRIPOS>MOLECULE
37857_ChemDiv_C614-0938
 29 32 0 0 0
SMALL
GASTEIGER
Energy = 0

@<TRIPOS>ATOM
      1 N          -1.6250    1.0580    0.0000 N.ar    1  LIG1       -0.2961
      2 C          -1.0380    1.8710    0.0000 C.ar    1  LIG1        0.1222
      3 N          -1.6250    2.6750    0.0000 N.ar    1  LIG1       -0.2293
      4 C          -2.5750    2.3710    0.0000 C.ar    1  LIG1        0.1167
      5 C          -2.5750    1.3710    0.0000 C.ar    1  LIG1        0.1627
      6 N          -3.4460    0.8580    0.0000 N.ar    1  LIG1       -0.2252
      7 C          -4.3080    1.3580    0.0000 C.ar    1  LIG1        0.1006
      8 C          -4.3080    2.3580    0.0000 C.ar    1  LIG1        0.0223
      9 C          -3.4460    2.8670    0.0000 C.ar    1  LIG1        0.0238
     10 C          -0.0380    1.8710    0.0000 C.3     1  LIG1        0.0736
     11 C           0.4630    1.0080    0.0000 C.3     1  LIG1        0.0947
     12 C           1.4630    1.0080    0.0000 C.2     1  LIG1        0.2418
     13 N           1.9670    0.1420    0.0000 N.am    1  LIG1       -0.2072
     14 C           2.9670    0.1420    0.0000 C.3     1  LIG1        0.0953
     15 C           3.4750   -0.7210    0.0000 C.3     1  LIG1        0.0217
     16 C           4.4630   -0.7210    0.0000 C.3     1  LIG1        0.0018
     17 C           4.9630    0.1580    0.0000 C.3     1  LIG1        0.0001
     18 C           4.4580    1.0210    0.0000 C.3     1  LIG1        0.0018
     19 C           3.4500    1.0130    0.0000 C.3     1  LIG1        0.0217
     20 O           1.9630    1.8710    0.0000 O.2     1  LIG1       -0.2733
     21 C          -1.3210    0.1040    0.0000 C.3     1  LIG1        0.1353
     22 C          -1.9830   -0.6380    0.0000 C.ar    1  LIG1        0.0007
     23 C          -1.6710   -1.5830    0.0000 C.ar    1  LIG1        0.0007
     24 C          -2.3380   -2.3250    0.0000 C.ar    1  LIG1        0.0366
     25 C          -3.3330   -2.1210    0.0000 C.ar    1  LIG1        0.1387
     26 C          -3.6380   -1.1670    0.0000 C.ar    1  LIG1        0.0366
     27 C          -2.9580   -0.4250    0.0000 C.ar    1  LIG1        0.0007
     28 O          -3.9880   -2.8630    0.0000 O.3     1  LIG1       -0.4714
     29 C          -4.9670   -2.6580    0.0000 C.3     1  LIG1        0.2525
@<TRIPOS>BOND
     1     1     2   ar
     2     1     5   ar
     3     1    21    1
     4     2     3   ar
     5     2    10    1
     6     3     4   ar
     7     4     5   ar
     8     4     9   ar
     9     5     6   ar
    10     6     7   ar
    11     7     8   ar
    12     8     9   ar
    13    10    11    1
    14    11    12    1
    15    12    13   am
    16    12    20    2
    17    13    14    1
    18    14    15    1
    19    14    19    1
    20    15    16    1
    21    16    17    1
    22    17    18    1
    23    18    19    1
    24    21    22    1
    25    22    23   ar
    26    22    27   ar
    27    23    24   ar
    28    24    25   ar
    29    25    26   ar
    30    25    28    1
    31    26    27   ar
    32    28    29    1
