@<TRIPOS>MOLECULE
37854_ChemDiv_C647-0792
 37 40 0 0 0
SMALL
GASTEIGER
Energy = 0

@<TRIPOS>ATOM
      1 C           0.4460    2.2380    0.0000 C.ar    1  LIG1        0.0950
      2 C          -0.4500    2.7540    0.0000 C.ar    1  LIG1        0.2015
      3 C          -1.3250    2.2380    0.0000 C.ar    1  LIG1        0.0546
      4 C          -1.3420    1.2420    0.0000 C.ar    1  LIG1        0.0633
      5 N          -0.4500    0.7420    0.0000 N.ar    1  LIG1       -0.3174
      6 C           0.4460    1.2420    0.0000 C.ar    1  LIG1        0.0827
      7 C          -0.4500   -0.2420    0.0000 C.3     1  LIG1        0.1939
      8 C           0.4130   -0.7380    0.0000 C.2     1  LIG1        0.2686
      9 N           0.4130   -1.7380    0.0000 N.am    1  LIG1       -0.1775
     10 C           1.2830   -2.2330    0.0000 C.ar    1  LIG1        0.0766
     11 C           2.1380   -1.7380    0.0000 C.ar    1  LIG1        0.0566
     12 C           3.0000   -2.2330    0.0000 C.ar    1  LIG1        0.1737
     13 C           3.0080   -3.2330    0.0000 C.ar    1  LIG1        0.1725
     14 C           2.1460   -3.7330    0.0000 C.ar    1  LIG1        0.0414
     15 C           1.2750   -3.2330    0.0000 C.ar    1  LIG1        0.0199
     16 O           3.8750   -3.7330    0.0000 O.3     1  LIG1       -0.4684
     17 C           4.7380   -3.2330    0.0000 C.3     1  LIG1        0.2526
     18 O           3.8540   -1.7210    0.0000 O.3     1  LIG1       -0.4683
     19 C           3.8540   -0.7250    0.0000 C.3     1  LIG1        0.2526
     20 O           1.2750   -0.2420    0.0000 O.2     1  LIG1       -0.2709
     21 C          -2.2170    0.7580    0.0000 C.ar    1  LIG1        0.0170
     22 C          -3.0830    1.2420    0.0000 C.ar    1  LIG1       -0.0028
     23 C          -3.0830    2.2380    0.0000 C.ar    1  LIG1       -0.0220
     24 C          -2.2170    2.7250    0.0000 C.ar    1  LIG1        0.0004
     25 C          -3.9420    2.7380    0.0000 C.3     1  LIG1        0.0264
     26 C          -4.8170    2.2540    0.0000 C.3     1  LIG1        0.0050
     27 O          -0.4500    3.7380    0.0000 O.2     1  LIG1       -0.2864
     28 C           1.3170    2.7250    0.0000 C.2     1  LIG1        0.2001
     29 C           2.1830    2.2380    0.0000 C.ar    1  LIG1        0.0391
     30 C           3.0580    2.7250    0.0000 C.ar    1  LIG1        0.0029
     31 C           3.9380    2.2380    0.0000 C.ar    1  LIG1       -0.0042
     32 C           3.9380    1.2420    0.0000 C.ar    1  LIG1       -0.0222
     33 C           3.0460    0.7580    0.0000 C.ar    1  LIG1       -0.0042
     34 C           2.1670    1.2420    0.0000 C.ar    1  LIG1        0.0029
     35 C           4.8130    0.7420    0.0000 C.3     1  LIG1        0.0264
     36 C           4.7960   -0.2420    0.0000 C.3     1  LIG1        0.0050
     37 O           1.3170    3.7210    0.0000 O.2     1  LIG1       -0.2864
@<TRIPOS>BOND
     1     1     2   ar
     2     1     6   ar
     3     1    28    1
     4     2     3   ar
     5     2    27    2
     6     3     4   ar
     7     3    24   ar
     8     4     5   ar
     9     4    21   ar
    10     5     6   ar
    11     5     7    1
    12     7     8    1
    13     8     9   am
    14     8    20    2
    15     9    10    1
    16    10    11   ar
    17    10    15   ar
    18    11    12   ar
    19    12    13   ar
    20    12    18    1
    21    13    14   ar
    22    13    16    1
    23    14    15   ar
    24    16    17    1
    25    18    19    1
    26    21    22   ar
    27    22    23   ar
    28    23    24   ar
    29    23    25    1
    30    25    26    1
    31    28    29    1
    32    28    37    2
    33    29    30   ar
    34    29    34   ar
    35    30    31   ar
    36    31    32   ar
    37    32    33   ar
    38    32    35    1
    39    33    34   ar
    40    35    36    1
