@<TRIPOS>MOLECULE
37850_ChemDiv_C647-1051
 34 37 0 0 0
SMALL
GASTEIGER
Energy = 0

@<TRIPOS>ATOM
      1 C           0.8750    2.2500    0.0000 C.ar    1  LIG1        0.0950
      2 C          -0.0210    2.7670    0.0000 C.ar    1  LIG1        0.2016
      3 C          -0.8830    2.2500    0.0000 C.ar    1  LIG1        0.0579
      4 C          -0.8960    1.2500    0.0000 C.ar    1  LIG1        0.0636
      5 N          -0.0210    0.7670    0.0000 N.ar    1  LIG1       -0.3174
      6 C           0.8750    1.2500    0.0000 C.ar    1  LIG1        0.0827
      7 C          -0.0210   -0.2330    0.0000 C.3     1  LIG1        0.1939
      8 C           0.8580   -0.7330    0.0000 C.2     1  LIG1        0.2686
      9 N           0.8580   -1.7330    0.0000 N.am    1  LIG1       -0.1779
     10 C           1.7210   -2.2290    0.0000 C.ar    1  LIG1        0.0694
     11 C           1.7210   -3.2290    0.0000 C.ar    1  LIG1       -0.0065
     12 C           0.8500   -3.7290    0.0000 C.3     1  LIG1        0.0324
     13 C           2.5830   -3.7290    0.0000 C.ar    1  LIG1       -0.0030
     14 C           3.4460   -3.2290    0.0000 C.ar    1  LIG1       -0.0002
     15 C           3.4460   -2.2290    0.0000 C.ar    1  LIG1        0.0013
     16 C           2.5830   -1.7330    0.0000 C.ar    1  LIG1        0.0163
     17 O           1.7210   -0.2330    0.0000 O.2     1  LIG1       -0.2709
     18 C          -1.7750    0.7670    0.0000 C.ar    1  LIG1        0.0204
     19 C          -2.6380    1.2670    0.0000 C.ar    1  LIG1        0.0384
     20 C          -2.6380    2.2500    0.0000 C.ar    1  LIG1        0.1387
     21 C          -1.7750    2.7330    0.0000 C.ar    1  LIG1        0.0415
     22 O          -3.5000    2.7500    0.0000 O.3     1  LIG1       -0.4755
     23 C          -4.3750    2.2500    0.0000 C.3     1  LIG1        0.2055
     24 C          -5.2380    2.7670    0.0000 C.3     1  LIG1        0.0512
     25 O          -0.0210    3.7330    0.0000 O.2     1  LIG1       -0.2864
     26 C           1.7500    2.7330    0.0000 C.2     1  LIG1        0.2001
     27 C           2.6040    2.2500    0.0000 C.ar    1  LIG1        0.0391
     28 C           3.4920    2.7330    0.0000 C.ar    1  LIG1        0.0029
     29 C           4.3540    2.2500    0.0000 C.ar    1  LIG1       -0.0042
     30 C           4.3540    1.2500    0.0000 C.ar    1  LIG1       -0.0218
     31 C           3.4790    0.7670    0.0000 C.ar    1  LIG1       -0.0042
     32 C           2.6000    1.2670    0.0000 C.ar    1  LIG1        0.0029
     33 C           5.2330    0.7670    0.0000 C.3     1  LIG1        0.0310
     34 O           1.7500    3.7330    0.0000 O.2     1  LIG1       -0.2864
@<TRIPOS>BOND
     1     1     2   ar
     2     1     6   ar
     3     1    26    1
     4     2     3   ar
     5     2    25    2
     6     3     4   ar
     7     3    21   ar
     8     4     5   ar
     9     4    18   ar
    10     5     6   ar
    11     5     7    1
    12     7     8    1
    13     8     9   am
    14     8    17    2
    15     9    10    1
    16    10    11   ar
    17    10    16   ar
    18    11    12    1
    19    11    13   ar
    20    13    14   ar
    21    14    15   ar
    22    15    16   ar
    23    18    19   ar
    24    19    20   ar
    25    20    21   ar
    26    20    22    1
    27    22    23    1
    28    23    24    1
    29    26    27    1
    30    26    34    2
    31    27    28   ar
    32    27    32   ar
    33    28    29   ar
    34    29    30   ar
    35    30    31   ar
    36    30    33    1
    37    31    32   ar
