@<TRIPOS>MOLECULE
37867_ChemDiv_C614-0933
 33 36 0 0 0
SMALL
GASTEIGER
Energy = 0

@<TRIPOS>ATOM
      1 N          -2.7130   -0.7420    0.0000 N.ar    1  LIG1       -0.2961
      2 C          -2.1250    0.0580    0.0000 C.ar    1  LIG1        0.1222
      3 N          -2.7130    0.8790    0.0000 N.ar    1  LIG1       -0.2293
      4 C          -3.6670    0.5670    0.0000 C.ar    1  LIG1        0.1167
      5 C          -3.6670   -0.4250    0.0000 C.ar    1  LIG1        0.1627
      6 N          -4.5290   -0.9330    0.0000 N.ar    1  LIG1       -0.2252
      7 C          -5.3920   -0.4250    0.0000 C.ar    1  LIG1        0.1006
      8 C          -5.3920    0.5670    0.0000 C.ar    1  LIG1        0.0223
      9 C          -4.5290    1.0670    0.0000 C.ar    1  LIG1        0.0238
     10 C          -1.1250    0.0580    0.0000 C.3     1  LIG1        0.0736
     11 C          -0.6250    0.9250    0.0000 C.3     1  LIG1        0.0951
     12 C           0.3790    0.9250    0.0000 C.2     1  LIG1        0.2460
     13 N           0.8790    1.7880    0.0000 N.am    1  LIG1       -0.1792
     14 C           1.8790    1.7880    0.0000 C.ar    1  LIG1        0.0734
     15 C           2.3790    2.6540    0.0000 C.ar    1  LIG1        0.0168
     16 C           3.3790    2.6670    0.0000 C.ar    1  LIG1        0.0078
     17 C           3.8790    1.7880    0.0000 C.ar    1  LIG1        0.0757
     18 C           4.8880    1.7880    0.0000 C.2     1  LIG1        0.3413
     19 O           5.3880    0.9250    0.0000 O.2     1  LIG1       -0.2449
     20 O           5.3750    2.6540    0.0000 O.3     1  LIG1       -0.4413
     21 C           4.8790    3.5170    0.0000 C.3     1  LIG1        0.2560
     22 C           3.3790    0.9130    0.0000 C.ar    1  LIG1        0.0078
     23 C           2.3790    0.9250    0.0000 C.ar    1  LIG1        0.0168
     24 O           0.8790    0.0580    0.0000 O.2     1  LIG1       -0.2730
     25 C          -2.4080   -1.6960    0.0000 C.3     1  LIG1        0.1353
     26 C          -1.4290   -1.9080    0.0000 C.ar    1  LIG1        0.0007
     27 C          -0.7580   -1.1670    0.0000 C.ar    1  LIG1        0.0007
     28 C           0.2130   -1.3790    0.0000 C.ar    1  LIG1        0.0366
     29 C           0.5250   -2.3330    0.0000 C.ar    1  LIG1        0.1387
     30 C          -0.1500   -3.0710    0.0000 C.ar    1  LIG1        0.0366
     31 C          -1.1210   -2.8580    0.0000 C.ar    1  LIG1        0.0007
     32 O           1.5000   -2.5540    0.0000 O.3     1  LIG1       -0.4714
     33 C           1.8040   -3.5130    0.0000 C.3     1  LIG1        0.2525
@<TRIPOS>BOND
     1     1     2   ar
     2     1     5   ar
     3     1    25    1
     4     2     3   ar
     5     2    10    1
     6     3     4   ar
     7     4     5   ar
     8     4     9   ar
     9     5     6   ar
    10     6     7   ar
    11     7     8   ar
    12     8     9   ar
    13    10    11    1
    14    11    12    1
    15    12    13   am
    16    12    24    2
    17    13    14    1
    18    14    15   ar
    19    14    23   ar
    20    15    16   ar
    21    16    17   ar
    22    17    18    1
    23    17    22   ar
    24    18    19    2
    25    18    20    1
    26    20    21    1
    27    22    23   ar
    28    25    26    1
    29    26    27   ar
    30    26    31   ar
    31    27    28   ar
    32    28    29   ar
    33    29    30   ar
    34    29    32    1
    35    30    31   ar
    36    32    33    1
