@<TRIPOS>MOLECULE
37865_ChemDiv_C614-0956
 29 31 0 0 0
SMALL
GASTEIGER
Energy = 0

@<TRIPOS>ATOM
      1 N          -2.3580    1.0580    0.0000 N.ar    1  LIG1       -0.2961
      2 C          -1.7670    1.8670    0.0000 C.ar    1  LIG1        0.1222
      3 N          -2.3580    2.6790    0.0000 N.ar    1  LIG1       -0.2293
      4 C          -3.3080    2.3670    0.0000 C.ar    1  LIG1        0.1167
      5 C          -3.3080    1.3670    0.0000 C.ar    1  LIG1        0.1627
      6 N          -4.1750    0.8630    0.0000 N.ar    1  LIG1       -0.2252
      7 C          -5.0420    1.3630    0.0000 C.ar    1  LIG1        0.1006
      8 C          -5.0420    2.3670    0.0000 C.ar    1  LIG1        0.0223
      9 C          -4.1750    2.8670    0.0000 C.ar    1  LIG1        0.0238
     10 C          -0.7710    1.8670    0.0000 C.3     1  LIG1        0.0736
     11 C          -0.2710    1.0040    0.0000 C.3     1  LIG1        0.0947
     12 C           0.7290    1.0040    0.0000 C.2     1  LIG1        0.2418
     13 O           1.2290    1.8790    0.0000 O.2     1  LIG1       -0.2733
     14 N           1.2330    0.1420    0.0000 N.am    1  LIG1       -0.2054
     15 C           2.2330    0.1500    0.0000 C.3     1  LIG1        0.1151
     16 C           2.7170    1.0130    0.0000 C.3     1  LIG1        0.0234
     17 C           3.7170    1.0290    0.0000 C.3     1  LIG1        0.0018
     18 C           4.2040    1.9080    0.0000 C.3     1  LIG1        0.0001
     19 C           5.2000    1.9130    0.0000 C.3     1  LIG1        0.0000
     20 C           5.6960    2.7880    0.0000 C.3     1  LIG1        0.0000
     21 C          -2.0500    0.1040    0.0000 C.3     1  LIG1        0.1353
     22 C          -2.7170   -0.6380    0.0000 C.ar    1  LIG1        0.0007
     23 C          -3.6920   -0.4250    0.0000 C.ar    1  LIG1        0.0007
     24 C          -4.3670   -1.1670    0.0000 C.ar    1  LIG1        0.0366
     25 C          -4.0540   -2.1210    0.0000 C.ar    1  LIG1        0.1387
     26 C          -3.0710   -2.3170    0.0000 C.ar    1  LIG1        0.0366
     27 C          -2.4040   -1.5750    0.0000 C.ar    1  LIG1        0.0007
     28 O          -4.7210   -2.8630    0.0000 O.3     1  LIG1       -0.4714
     29 C          -5.7000   -2.6500    0.0000 C.3     1  LIG1        0.2525
@<TRIPOS>BOND
     1     1     2   ar
     2     1     5   ar
     3     1    21    1
     4     2     3   ar
     5     2    10    1
     6     3     4   ar
     7     4     5   ar
     8     4     9   ar
     9     5     6   ar
    10     6     7   ar
    11     7     8   ar
    12     8     9   ar
    13    10    11    1
    14    11    12    1
    15    12    13    2
    16    12    14   am
    17    14    15    1
    18    15    16    1
    19    16    17    1
    20    17    18    1
    21    18    19    1
    22    19    20    1
    23    21    22    1
    24    22    23   ar
    25    22    27   ar
    26    23    24   ar
    27    24    25   ar
    28    25    26   ar
    29    25    28    1
    30    26    27   ar
    31    28    29    1
