@<TRIPOS>MOLECULE
37863_ChemDiv_C614-0955
 28 30 0 0 0
SMALL
GASTEIGER
Energy = 0

@<TRIPOS>ATOM
      1 N          -2.1130    1.0580    0.0000 N.ar    1  LIG1       -0.2961
      2 C          -1.5210    1.8670    0.0000 C.ar    1  LIG1        0.1222
      3 N          -2.1130    2.6790    0.0000 N.ar    1  LIG1       -0.2293
      4 C          -3.0630    2.3670    0.0000 C.ar    1  LIG1        0.1167
      5 C          -3.0630    1.3670    0.0000 C.ar    1  LIG1        0.1627
      6 N          -3.9290    0.8630    0.0000 N.ar    1  LIG1       -0.2252
      7 C          -4.7920    1.3630    0.0000 C.ar    1  LIG1        0.1006
      8 C          -4.7920    2.3670    0.0000 C.ar    1  LIG1        0.0223
      9 C          -3.9290    2.8670    0.0000 C.ar    1  LIG1        0.0238
     10 C          -0.5210    1.8670    0.0000 C.3     1  LIG1        0.0736
     11 C          -0.0210    1.0040    0.0000 C.3     1  LIG1        0.0947
     12 C           0.9790    1.0040    0.0000 C.2     1  LIG1        0.2418
     13 O           1.4790    1.8790    0.0000 O.2     1  LIG1       -0.2733
     14 N           1.4830    0.1420    0.0000 N.am    1  LIG1       -0.2053
     15 C           2.4830    0.1500    0.0000 C.3     1  LIG1        0.1177
     16 C           2.9670    1.0130    0.0000 C.3     1  LIG1        0.0555
     17 C           3.9670    1.0290    0.0000 C.3     1  LIG1        0.1441
     18 O           4.4500    1.9080    0.0000 O.3     1  LIG1       -0.3510
     19 C           5.4500    1.9130    0.0000 C.3     1  LIG1        0.1741
     20 C          -1.8040    0.1040    0.0000 C.3     1  LIG1        0.1353
     21 C          -2.4710   -0.6380    0.0000 C.ar    1  LIG1        0.0007
     22 C          -3.4460   -0.4250    0.0000 C.ar    1  LIG1        0.0007
     23 C          -4.1210   -1.1670    0.0000 C.ar    1  LIG1        0.0366
     24 C          -3.8080   -2.1210    0.0000 C.ar    1  LIG1        0.1387
     25 C          -2.8250   -2.3170    0.0000 C.ar    1  LIG1        0.0366
     26 C          -2.1580   -1.5750    0.0000 C.ar    1  LIG1        0.0007
     27 O          -4.4750   -2.8630    0.0000 O.3     1  LIG1       -0.4714
     28 C          -5.4540   -2.6500    0.0000 C.3     1  LIG1        0.2525
@<TRIPOS>BOND
     1     1     2   ar
     2     1     5   ar
     3     1    20    1
     4     2     3   ar
     5     2    10    1
     6     3     4   ar
     7     4     5   ar
     8     4     9   ar
     9     5     6   ar
    10     6     7   ar
    11     7     8   ar
    12     8     9   ar
    13    10    11    1
    14    11    12    1
    15    12    13    2
    16    12    14   am
    17    14    15    1
    18    15    16    1
    19    16    17    1
    20    17    18    1
    21    18    19    1
    22    20    21    1
    23    21    22   ar
    24    21    26   ar
    25    22    23   ar
    26    23    24   ar
    27    24    25   ar
    28    24    27    1
    29    25    26   ar
    30    27    28    1
