@<TRIPOS>MOLECULE
37869_ChemDiv_C614-0939
 33 37 0 0 0
SMALL
GASTEIGER
Energy = 0

@<TRIPOS>ATOM
      1 N          -2.3750    1.0580    0.0000 N.ar    1  LIG1       -0.2961
      2 C          -1.7880    1.8710    0.0000 C.ar    1  LIG1        0.1222
      3 N          -2.3750    2.6750    0.0000 N.ar    1  LIG1       -0.2293
      4 C          -3.3250    2.3670    0.0000 C.ar    1  LIG1        0.1167
      5 C          -3.3250    1.3710    0.0000 C.ar    1  LIG1        0.1627
      6 N          -4.1920    0.8580    0.0000 N.ar    1  LIG1       -0.2252
      7 C          -5.0540    1.3580    0.0000 C.ar    1  LIG1        0.1006
      8 C          -5.0540    2.3580    0.0000 C.ar    1  LIG1        0.0223
      9 C          -4.1920    2.8670    0.0000 C.ar    1  LIG1        0.0238
     10 C          -0.7880    1.8710    0.0000 C.3     1  LIG1        0.0736
     11 C          -0.2880    1.0040    0.0000 C.3     1  LIG1        0.0951
     12 C           0.7130    1.0040    0.0000 C.2     1  LIG1        0.2460
     13 N           1.2170    0.1420    0.0000 N.am    1  LIG1       -0.1791
     14 C           2.2170    0.1420    0.0000 C.ar    1  LIG1        0.0766
     15 C           2.7170   -0.7210    0.0000 C.ar    1  LIG1        0.0566
     16 C           3.7130   -0.7040    0.0000 C.ar    1  LIG1        0.1737
     17 C           4.2130    0.1580    0.0000 C.ar    1  LIG1        0.1725
     18 O           5.2130    0.1750    0.0000 O.3     1  LIG1       -0.4684
     19 C           5.7130   -0.6880    0.0000 C.3     1  LIG1        0.2526
     20 C           5.2210   -1.5670    0.0000 C.3     1  LIG1        0.2526
     21 O           4.2130   -1.5670    0.0000 O.3     1  LIG1       -0.4683
     22 C           3.7000    1.0380    0.0000 C.ar    1  LIG1        0.0414
     23 C           2.7000    1.0130    0.0000 C.ar    1  LIG1        0.0199
     24 O           1.2130    1.8710    0.0000 O.2     1  LIG1       -0.2730
     25 C          -2.0670    0.1040    0.0000 C.3     1  LIG1        0.1353
     26 C          -2.7330   -0.6380    0.0000 C.ar    1  LIG1        0.0007
     27 C          -3.7080   -0.4250    0.0000 C.ar    1  LIG1        0.0007
     28 C          -4.3830   -1.1670    0.0000 C.ar    1  LIG1        0.0366
     29 C          -4.0790   -2.1210    0.0000 C.ar    1  LIG1        0.1387
     30 C          -3.0880   -2.3250    0.0000 C.ar    1  LIG1        0.0366
     31 C          -2.4210   -1.5830    0.0000 C.ar    1  LIG1        0.0007
     32 O          -4.7380   -2.8630    0.0000 O.3     1  LIG1       -0.4714
     33 C          -5.7170   -2.6580    0.0000 C.3     1  LIG1        0.2525
@<TRIPOS>BOND
     1     1     2   ar
     2     1     5   ar
     3     1    25    1
     4     2     3   ar
     5     2    10    1
     6     3     4   ar
     7     4     5   ar
     8     4     9   ar
     9     5     6   ar
    10     6     7   ar
    11     7     8   ar
    12     8     9   ar
    13    10    11    1
    14    11    12    1
    15    12    13   am
    16    12    24    2
    17    13    14    1
    18    14    15   ar
    19    14    23   ar
    20    15    16   ar
    21    16    17   ar
    22    16    21    1
    23    17    18    1
    24    17    22   ar
    25    18    19    1
    26    19    20    1
    27    20    21    1
    28    22    23   ar
    29    25    26    1
    30    26    27   ar
    31    26    31   ar
    32    27    28   ar
    33    28    29   ar
    34    29    30   ar
    35    29    32    1
    36    30    31   ar
    37    32    33    1
