@<TRIPOS>MOLECULE
37871_ChemDiv_C614-0940
 33 37 0 0 0
SMALL
GASTEIGER
Energy = 0

@<TRIPOS>ATOM
      1 N          -2.1500    0.7500    0.0000 N.ar    1  LIG1       -0.2961
      2 C          -1.5540    1.5630    0.0000 C.ar    1  LIG1        0.1222
      3 N          -2.1500    2.3750    0.0000 N.ar    1  LIG1       -0.2293
      4 C          -3.0960    2.0630    0.0000 C.ar    1  LIG1        0.1167
      5 C          -3.0960    1.0580    0.0000 C.ar    1  LIG1        0.1627
      6 N          -3.9710    0.5540    0.0000 N.ar    1  LIG1       -0.2252
      7 C          -4.8380    1.0540    0.0000 C.ar    1  LIG1        0.1006
      8 C          -4.8380    2.0630    0.0000 C.ar    1  LIG1        0.0223
      9 C          -3.9710    2.5630    0.0000 C.ar    1  LIG1        0.0238
     10 C          -0.5540    1.5630    0.0000 C.3     1  LIG1        0.0736
     11 C          -0.0540    0.6960    0.0000 C.3     1  LIG1        0.0947
     12 C           0.9500    0.6960    0.0000 C.2     1  LIG1        0.2421
     13 N           1.4630   -0.1710    0.0000 N.am    1  LIG1       -0.2005
     14 C           2.4630   -0.1580    0.0000 C.3     1  LIG1        0.1416
     15 C           2.9500    0.7040    0.0000 C.ar    1  LIG1        0.0027
     16 C           3.9420    0.7210    0.0000 C.ar    1  LIG1        0.0376
     17 C           4.4290    1.5880    0.0000 C.ar    1  LIG1        0.1762
     18 C           3.9250    2.4420    0.0000 C.ar    1  LIG1        0.1764
     19 O           4.5790    3.1880    0.0000 O.3     1  LIG1       -0.4346
     20 C           5.4920    2.7880    0.0000 C.3     1  LIG1        0.4294
     21 O           5.4000    1.8000    0.0000 O.3     1  LIG1       -0.4346
     22 C           2.9250    2.4210    0.0000 C.ar    1  LIG1        0.0399
     23 C           2.4380    1.5540    0.0000 C.ar    1  LIG1        0.0008
     24 O           1.4500    1.5710    0.0000 O.2     1  LIG1       -0.2733
     25 C          -1.8290   -0.2040    0.0000 C.3     1  LIG1        0.1353
     26 C          -2.5040   -0.9500    0.0000 C.ar    1  LIG1        0.0007
     27 C          -3.4830   -0.7380    0.0000 C.ar    1  LIG1        0.0007
     28 C          -4.1540   -1.4790    0.0000 C.ar    1  LIG1        0.0366
     29 C          -3.8500   -2.4380    0.0000 C.ar    1  LIG1        0.1387
     30 C          -2.8630   -2.6330    0.0000 C.ar    1  LIG1        0.0366
     31 C          -2.1920   -1.8920    0.0000 C.ar    1  LIG1        0.0007
     32 O          -4.5170   -3.1830    0.0000 O.3     1  LIG1       -0.4714
     33 C          -5.4960   -2.9710    0.0000 C.3     1  LIG1        0.2525
@<TRIPOS>BOND
     1     1     2   ar
     2     1     5   ar
     3     1    25    1
     4     2     3   ar
     5     2    10    1
     6     3     4   ar
     7     4     5   ar
     8     4     9   ar
     9     5     6   ar
    10     6     7   ar
    11     7     8   ar
    12     8     9   ar
    13    10    11    1
    14    11    12    1
    15    12    13   am
    16    12    24    2
    17    13    14    1
    18    14    15    1
    19    15    16   ar
    20    15    23   ar
    21    16    17   ar
    22    17    18   ar
    23    17    21    1
    24    18    19    1
    25    18    22   ar
    26    19    20    1
    27    20    21    1
    28    22    23   ar
    29    25    26    1
    30    26    27   ar
    31    26    31   ar
    32    27    28   ar
    33    28    29   ar
    34    29    30   ar
    35    29    32    1
    36    30    31   ar
    37    32    33    1
