@<TRIPOS>MOLECULE
37873_ChemDiv_C627-0004
 27 31 0 0 0
SMALL
GASTEIGER
Energy = 0

@<TRIPOS>ATOM
      1 C           2.5540   -1.1630    0.0000 C.ar    1  LIG1        0.1579
      2 N           2.1460   -0.2500    0.0000 N.ar    1  LIG1       -0.1604
      3 N           2.8880    0.4170    0.0000 N.ar    1  LIG1       -0.2281
      4 C           3.7500   -0.0830    0.0000 C.ar    1  LIG1        0.0846
      5 C           3.5460   -1.0630    0.0000 C.ar    1  LIG1        0.0447
      6 C           4.6210    0.4170    0.0000 C.ar    1  LIG1        0.0193
      7 C           4.6210    1.4210    0.0000 C.ar    1  LIG1        0.0031
      8 C           3.7500    1.9130    0.0000 C.ar    1  LIG1        0.0207
      9 C           2.8880    1.4210    0.0000 C.ar    1  LIG1        0.1004
     10 C           2.0500   -2.0330    0.0000 C.2     1  LIG1        0.2885
     11 N           1.0500   -2.0330    0.0000 N.am    1  LIG1       -0.1741
     12 C           0.5500   -1.1630    0.0000 C.ar    1  LIG1        0.0754
     13 C          -0.4500   -1.1630    0.0000 C.ar    1  LIG1        0.0389
     14 C          -0.9460   -0.3000    0.0000 C.ar    1  LIG1        0.1202
     15 N          -1.9250   -0.0920    0.0000 N.ar    1  LIG1       -0.2082
     16 C          -2.0290    0.9000    0.0000 C.ar    1  LIG1        0.2298
     17 O          -1.1210    1.3080    0.0000 O.2     1  LIG1       -0.4346
     18 C          -0.4500    0.5670    0.0000 C.ar    1  LIG1        0.1648
     19 C           0.5500    0.5670    0.0000 C.ar    1  LIG1        0.0405
     20 C           1.0500   -0.3000    0.0000 C.ar    1  LIG1        0.0198
     21 C          -2.8960    1.4040    0.0000 C.ar    1  LIG1        0.0567
     22 C          -2.8960    2.4000    0.0000 C.ar    1  LIG1        0.0253
     23 C          -3.7630    2.9040    0.0000 C.ar    1  LIG1        0.0990
     24 N          -4.6250    2.4000    0.0000 N.ar    1  LIG1       -0.2423
     25 C          -4.6250    1.4040    0.0000 C.ar    1  LIG1        0.0990
     26 C          -3.7630    0.9000    0.0000 C.ar    1  LIG1        0.0253
     27 O           2.5540   -2.9000    0.0000 O.2     1  LIG1       -0.2663
@<TRIPOS>BOND
     1     1     2   ar
     2     1     5   ar
     3     1    10    1
     4     2     3   ar
     5     3     4   ar
     6     3     9   ar
     7     4     5   ar
     8     4     6   ar
     9     6     7   ar
    10     7     8   ar
    11     8     9   ar
    12    10    11   am
    13    10    27    2
    14    11    12    1
    15    12    13   ar
    16    12    20   ar
    17    13    14   ar
    18    14    15   ar
    19    14    18   ar
    20    15    16   ar
    21    16    17   ar
    22    16    21    1
    23    17    18   ar
    24    18    19   ar
    25    19    20   ar
    26    21    22   ar
    27    21    26   ar
    28    22    23   ar
    29    23    24   ar
    30    24    25   ar
    31    25    26   ar
