@<TRIPOS>MOLECULE
37877_ChemDiv_C627-0118
 26 28 0 0 0
SMALL
GASTEIGER
Energy = 0

@<TRIPOS>ATOM
      1 S          -1.4880   -3.2710    0.0000 S.O2    1  LIG1        0.0633
      2 C          -0.9920   -2.4040    0.0000 C.ar    1  LIG1        0.1223
      3 C          -1.4880   -1.5420    0.0000 C.ar    1  LIG1        0.0212
      4 C          -0.9920   -0.6750    0.0000 C.ar    1  LIG1        0.0180
      5 C           0.0130   -0.6750    0.0000 C.ar    1  LIG1        0.0738
      6 N           0.5130    0.1920    0.0000 N.am    1  LIG1       -0.1741
      7 C           1.5130    0.1920    0.0000 C.2     1  LIG1        0.2885
      8 C           2.0130    1.0630    0.0000 C.ar    1  LIG1        0.1579
      9 N           1.6040    1.9750    0.0000 N.ar    1  LIG1       -0.1604
     10 N           2.3460    2.6420    0.0000 N.ar    1  LIG1       -0.2281
     11 C           3.2130    2.1420    0.0000 C.ar    1  LIG1        0.0846
     12 C           3.0040    1.1630    0.0000 C.ar    1  LIG1        0.0447
     13 C           4.0830    2.6420    0.0000 C.ar    1  LIG1        0.0193
     14 C           4.0830    3.6460    0.0000 C.ar    1  LIG1        0.0031
     15 C           3.2130    4.1330    0.0000 C.ar    1  LIG1        0.0207
     16 C           2.3460    3.6460    0.0000 C.ar    1  LIG1        0.1004
     17 O           2.0130   -0.6750    0.0000 O.2     1  LIG1       -0.2663
     18 C           0.5130   -1.5420    0.0000 C.ar    1  LIG1        0.0180
     19 C           0.0130   -2.4040    0.0000 C.ar    1  LIG1        0.0212
     20 N          -2.3580   -2.7710    0.0000 N.3     1  LIG1       -0.1555
     21 C          -2.3580   -1.7710    0.0000 C.3     1  LIG1        0.0958
     22 C          -3.2210   -1.2710    0.0000 C.3     1  LIG1        0.0206
     23 C          -3.2210   -3.2710    0.0000 C.3     1  LIG1        0.0958
     24 C          -4.0880   -2.7710    0.0000 C.3     1  LIG1        0.0206
     25 O          -0.6210   -3.7670    0.0000 O.2     1  LIG1       -0.1528
     26 O          -1.9880   -4.1330    0.0000 O.2     1  LIG1       -0.1528
@<TRIPOS>BOND
     1     1     2    1
     2     1    20    1
     3     1    25    2
     4     1    26    2
     5     2     3   ar
     6     2    19   ar
     7     3     4   ar
     8     4     5   ar
     9     5     6    1
    10     5    18   ar
    11     6     7   am
    12     7     8    1
    13     7    17    2
    14     8     9   ar
    15     8    12   ar
    16     9    10   ar
    17    10    11   ar
    18    10    16   ar
    19    11    12   ar
    20    11    13   ar
    21    13    14   ar
    22    14    15   ar
    23    15    16   ar
    24    18    19   ar
    25    20    21    1
    26    20    23    1
    27    21    22    1
    28    23    24    1
