@<TRIPOS>MOLECULE
37875_ChemDiv_C627-0084
 21 23 0 0 0
SMALL
GASTEIGER
Energy = 0

@<TRIPOS>ATOM
      1 C           1.9630    0.1960    0.0000 C.ar    1  LIG1        0.1575
      2 N           1.5540    1.1080    0.0000 N.ar    1  LIG1       -0.1604
      3 N           2.2960    1.7750    0.0000 N.ar    1  LIG1       -0.2281
      4 C           3.1630    1.2750    0.0000 C.ar    1  LIG1        0.0846
      5 C           2.9540    0.3000    0.0000 C.ar    1  LIG1        0.0447
      6 C           4.0330    1.7750    0.0000 C.ar    1  LIG1        0.0193
      7 C           4.0330    2.7790    0.0000 C.ar    1  LIG1        0.0031
      8 C           3.1630    3.2750    0.0000 C.ar    1  LIG1        0.0207
      9 C           2.2960    2.7790    0.0000 C.ar    1  LIG1        0.1004
     10 C           1.4630   -0.6750    0.0000 C.2     1  LIG1        0.2846
     11 N           0.4630   -0.6750    0.0000 N.am    1  LIG1       -0.1955
     12 C          -0.0380   -1.5380    0.0000 C.3     1  LIG1        0.1419
     13 C          -1.0420   -1.5380    0.0000 C.ar    1  LIG1        0.0025
     14 C          -1.5380   -2.4040    0.0000 C.ar    1  LIG1        0.0343
     15 C          -2.5420   -2.4040    0.0000 C.ar    1  LIG1        0.1385
     16 O          -3.0380   -3.2710    0.0000 O.3     1  LIG1       -0.4714
     17 C          -4.0370   -3.2710    0.0000 C.3     1  LIG1        0.2525
     18 C          -3.0380   -1.5380    0.0000 C.ar    1  LIG1        0.0369
     19 C          -2.5420   -0.6750    0.0000 C.ar    1  LIG1        0.0028
     20 C          -1.5380   -0.6750    0.0000 C.ar    1  LIG1       -0.0024
     21 O           1.9630   -1.5380    0.0000 O.2     1  LIG1       -0.2666
@<TRIPOS>BOND
     1     1     2   ar
     2     1     5   ar
     3     1    10    1
     4     2     3   ar
     5     3     4   ar
     6     3     9   ar
     7     4     5   ar
     8     4     6   ar
     9     6     7   ar
    10     7     8   ar
    11     8     9   ar
    12    10    11   am
    13    10    21    2
    14    11    12    1
    15    12    13    1
    16    13    14   ar
    17    13    20   ar
    18    14    15   ar
    19    15    16    1
    20    15    18   ar
    21    16    17    1
    22    18    19   ar
    23    19    20   ar
