@<TRIPOS>MOLECULE
37876_ChemDiv_C652-0001
 20 23 0 0 0
SMALL
GASTEIGER
Energy = 0

@<TRIPOS>ATOM
      1 C          -0.5460    0.1250    0.0000 C.ar    1  LIG1        0.1129
      2 C          -0.5330   -0.8750    0.0000 C.ar    1  LIG1        0.2514
      3 N           0.4210   -1.1790    0.0000 N.ar    1  LIG1       -0.1243
      4 N           0.9960   -0.3630    0.0000 N.ar    1  LIG1       -0.1915
      5 C           0.4080    0.4420    0.0000 C.ar    1  LIG1        0.2850
      6 O           0.7080    1.3960    0.0000 O.2     1  LIG1       -0.2650
      7 C           1.9960   -0.3460    0.0000 C.ar    1  LIG1        0.0861
      8 C           2.5040   -1.2080    0.0000 C.ar    1  LIG1        0.0193
      9 C           3.5040   -1.2040    0.0000 C.ar    1  LIG1        0.0015
     10 C           3.9960   -0.3290    0.0000 C.ar    1  LIG1        0.0001
     11 C           3.4790    0.5330    0.0000 C.ar    1  LIG1        0.0015
     12 C           2.4790    0.5170    0.0000 C.ar    1  LIG1        0.0193
     13 O          -1.4000   -1.3830    0.0000 O.2     1  LIG1       -0.4348
     14 C          -2.2710   -0.8880    0.0000 C.ar    1  LIG1        0.1471
     15 C          -2.2710    0.1130    0.0000 C.ar    1  LIG1        0.0349
     16 C          -1.4080    0.6210    0.0000 C.ar    1  LIG1        0.0126
     17 C          -3.1380    0.6130    0.0000 C.ar    1  LIG1        0.0030
     18 C          -4.0000    0.1130    0.0000 C.ar    1  LIG1        0.0002
     19 C          -4.0000   -0.8920    0.0000 C.ar    1  LIG1        0.0031
     20 C          -3.1380   -1.3920    0.0000 C.ar    1  LIG1        0.0376
@<TRIPOS>BOND
     1     1     2    1
     2     1     5   ar
     3     1    16   ar
     4     2     3   ar
     5     2    13   ar
     6     3     4   ar
     7     4     5   ar
     8     4     7    1
     9     5     6    2
    10     7     8   ar
    11     7    12   ar
    12     8     9   ar
    13     9    10   ar
    14    10    11   ar
    15    11    12   ar
    16    13    14   ar
    17    14    15   ar
    18    14    20   ar
    19    15    16   ar
    20    15    17   ar
    21    17    18   ar
    22    18    19   ar
    23    19    20   ar
