@<TRIPOS>MOLECULE
37874_ChemDiv_C651-0695
 34 37 0 0 0
SMALL
GASTEIGER
Energy = 0

@<TRIPOS>ATOM
      1 C           2.0040    0.7920    0.0000 C.ar    1  LIG1        0.1441
      2 C           2.9170    0.3830    0.0000 C.ar    1  LIG1        0.2953
      3 N           3.5880    1.1250    0.0000 N.ar    1  LIG1       -0.2134
      4 N           3.0790    1.9920    0.0000 N.ar    1  LIG1       -0.2646
      5 C           2.1040    1.7830    0.0000 C.ar    1  LIG1        0.0746
      6 C           1.3630    2.4580    0.0000 C.3     1  LIG1        0.0532
      7 C           3.4880    2.9000    0.0000 C.3     1  LIG1        0.1518
      8 C           4.5750    1.0250    0.0000 C.ar    1  LIG1        0.0841
      9 C           5.1670    1.8290    0.0000 C.ar    1  LIG1        0.0192
     10 C           6.1630    1.7290    0.0000 C.ar    1  LIG1        0.0015
     11 C           6.5710    0.8170    0.0000 C.ar    1  LIG1        0.0001
     12 C           5.9830    0.0000    0.0000 C.ar    1  LIG1        0.0015
     13 C           4.9830    0.1130    0.0000 C.ar    1  LIG1        0.0192
     14 O           3.1250   -0.5920    0.0000 O.2     1  LIG1       -0.2637
     15 N           1.1380    0.2880    0.0000 N.am    1  LIG1       -0.1700
     16 C           0.2670    0.7920    0.0000 C.2     1  LIG1        0.2892
     17 C          -0.5380    0.2000    0.0000 C.3     1  LIG1        0.2792
     18 O          -0.5380   -0.8000    0.0000 O.2     1  LIG1       -0.3716
     19 N          -1.4880   -1.1080    0.0000 N.2     1  LIG1       -0.0869
     20 C          -2.0790   -0.2960    0.0000 C.2     1  LIG1        0.1014
     21 C          -1.4880    0.5080    0.0000 C.3     1  LIG1        0.1052
     22 C          -3.0790   -0.2960    0.0000 C.ar    1  LIG1        0.0231
     23 C          -3.5790    0.5670    0.0000 C.ar    1  LIG1        0.0415
     24 C          -4.5750    0.5670    0.0000 C.ar    1  LIG1        0.1755
     25 C          -5.0790   -0.2960    0.0000 C.ar    1  LIG1        0.2061
     26 C          -4.5750   -1.1630    0.0000 C.ar    1  LIG1        0.1755
     27 C          -3.5790   -1.1630    0.0000 C.ar    1  LIG1        0.0415
     28 O          -5.0790   -2.0330    0.0000 O.3     1  LIG1       -0.4683
     29 C          -4.5750   -2.8960    0.0000 C.3     1  LIG1        0.2526
     30 O          -6.0750   -0.2960    0.0000 O.3     1  LIG1       -0.4654
     31 C          -6.5710    0.5670    0.0000 C.3     1  LIG1        0.2528
     32 O          -5.0790    1.4330    0.0000 O.3     1  LIG1       -0.4683
     33 C          -4.5750    2.2960    0.0000 C.3     1  LIG1        0.2526
     34 O           0.1670    1.7830    0.0000 O.2     1  LIG1       -0.2690
@<TRIPOS>BOND
     1     1     2   ar
     2     1     5   ar
     3     1    15    1
     4     2     3   ar
     5     2    14    2
     6     3     4   ar
     7     3     8    1
     8     4     5   ar
     9     4     7    1
    10     5     6    1
    11     8     9   ar
    12     8    13   ar
    13     9    10   ar
    14    10    11   ar
    15    11    12   ar
    16    12    13   ar
    17    15    16   am
    18    16    17    1
    19    16    34    2
    20    17    18    1
    21    17    21    1
    22    18    19    1
    23    19    20    2
    24    20    21    1
    25    20    22    1
    26    22    23   ar
    27    22    27   ar
    28    23    24   ar
    29    24    25   ar
    30    24    32    1
    31    25    26   ar
    32    25    30    1
    33    26    27   ar
    34    26    28    1
    35    28    29    1
    36    30    31    1
    37    32    33    1
