@<TRIPOS>MOLECULE
37879_ChemDiv_C627-0162
 25 28 0 0 0
SMALL
GASTEIGER
Energy = 0

@<TRIPOS>ATOM
      1 C           0.7130    1.9290    0.0000 C.ar    1  LIG1        0.1579
      2 N           0.3040    2.8420    0.0000 N.ar    1  LIG1       -0.1604
      3 N           1.0460    3.5080    0.0000 N.ar    1  LIG1       -0.2281
      4 C           1.9130    3.0080    0.0000 C.ar    1  LIG1        0.0846
      5 C           1.7040    2.0290    0.0000 C.ar    1  LIG1        0.0447
      6 C           2.7830    3.5080    0.0000 C.ar    1  LIG1        0.0193
      7 C           2.7830    4.5080    0.0000 C.ar    1  LIG1        0.0031
      8 C           1.9130    5.0040    0.0000 C.ar    1  LIG1        0.0207
      9 C           1.0460    4.5080    0.0000 C.ar    1  LIG1        0.1004
     10 C           0.2080    1.0580    0.0000 C.2     1  LIG1        0.2885
     11 N          -0.7880    1.0580    0.0000 N.am    1  LIG1       -0.1741
     12 C          -1.2920    0.1920    0.0000 C.ar    1  LIG1        0.0737
     13 C          -0.7880   -0.6750    0.0000 C.ar    1  LIG1        0.0165
     14 C          -1.2920   -1.5380    0.0000 C.ar    1  LIG1        0.0028
     15 C          -2.2920   -1.5380    0.0000 C.ar    1  LIG1        0.0345
     16 C          -2.7880   -2.4040    0.0000 C.3     1  LIG1        0.1664
     17 N          -2.2920   -3.2710    0.0000 N.4     1  LIG1        0.3847
     18 C          -2.7880   -4.1380    0.0000 C.3     1  LIG1        0.1718
     19 C          -2.2920   -5.0040    0.0000 C.3     1  LIG1        0.2048
     20 O          -1.2920   -5.0040    0.0000 O.3     1  LIG1       -0.3411
     21 C          -0.7880   -4.1380    0.0000 C.3     1  LIG1        0.2048
     22 C          -1.2920   -3.2710    0.0000 C.3     1  LIG1        0.1718
     23 C          -2.7880   -0.6750    0.0000 C.ar    1  LIG1        0.0028
     24 C          -2.2920    0.1920    0.0000 C.ar    1  LIG1        0.0165
     25 O           0.7130    0.1920    0.0000 O.2     1  LIG1       -0.2663
@<TRIPOS>BOND
     1     1     2   ar
     2     1     5   ar
     3     1    10    1
     4     2     3   ar
     5     3     4   ar
     6     3     9   ar
     7     4     5   ar
     8     4     6   ar
     9     6     7   ar
    10     7     8   ar
    11     8     9   ar
    12    10    11   am
    13    10    25    2
    14    11    12    1
    15    12    13   ar
    16    12    24   ar
    17    13    14   ar
    18    14    15   ar
    19    15    16    1
    20    15    23   ar
    21    16    17    1
    22    17    18    1
    23    17    22    1
    24    18    19    1
    25    19    20    1
    26    20    21    1
    27    21    22    1
    28    23    24   ar
