@<TRIPOS>MOLECULE
37878_ChemDiv_C652-0090
 26 30 0 0 0
SMALL
GASTEIGER
Energy = 0

@<TRIPOS>ATOM
      1 C          -0.6080   -0.2330    0.0000 C.ar    1  LIG1        0.1129
      2 C          -0.6040   -1.2210    0.0000 C.ar    1  LIG1        0.2514
      3 N           0.3500   -1.5250    0.0000 N.ar    1  LIG1       -0.1243
      4 N           0.9380   -0.7170    0.0000 N.ar    1  LIG1       -0.1915
      5 C           0.3380    0.0880    0.0000 C.ar    1  LIG1        0.2850
      6 O           0.6380    1.0380    0.0000 O.2     1  LIG1       -0.2650
      7 C           1.9380   -0.7080    0.0000 C.ar    1  LIG1        0.0858
      8 C           2.4210    0.1630    0.0000 C.ar    1  LIG1        0.0147
      9 C           3.4210    0.1750    0.0000 C.ar    1  LIG1       -0.0243
     10 C           3.9380   -0.6880    0.0000 C.ar    1  LIG1       -0.0257
     11 C           3.4420   -1.5540    0.0000 C.ar    1  LIG1       -0.0030
     12 C           2.4420   -1.5710    0.0000 C.ar    1  LIG1        0.0189
     13 C           4.9380   -0.6790    0.0000 C.3     1  LIG1        0.0307
     14 C           3.9130    1.0500    0.0000 C.3     1  LIG1        0.0307
     15 O          -1.4670   -1.7380    0.0000 O.2     1  LIG1       -0.4348
     16 C          -2.3330   -1.2380    0.0000 C.ar    1  LIG1        0.1471
     17 C          -2.3330   -0.2380    0.0000 C.ar    1  LIG1        0.0349
     18 C          -1.4830    0.2630    0.0000 C.ar    1  LIG1        0.0126
     19 C          -3.2080    0.2630    0.0000 C.ar    1  LIG1        0.0029
     20 C          -4.0710   -0.2380    0.0000 C.ar    1  LIG1        0.0002
     21 C          -4.0710   -1.2460    0.0000 C.ar    1  LIG1        0.0031
     22 C          -3.2080   -1.7460    0.0000 C.ar    1  LIG1        0.0376
     23 C          -4.9330    0.2460    0.0000 C.ar    1  LIG1        0.0000
     24 C          -4.9420    1.2460    0.0000 C.ar    1  LIG1        0.0000
     25 C          -4.0880    1.7500    0.0000 C.ar    1  LIG1        0.0000
     26 C          -3.2080    1.2630    0.0000 C.ar    1  LIG1        0.0001
@<TRIPOS>BOND
     1     1     2    1
     2     1     5   ar
     3     1    18   ar
     4     2     3   ar
     5     2    15   ar
     6     3     4   ar
     7     4     5   ar
     8     4     7    1
     9     5     6    2
    10     7     8   ar
    11     7    12   ar
    12     8     9   ar
    13     9    10   ar
    14     9    14    1
    15    10    11   ar
    16    10    13    1
    17    11    12   ar
    18    15    16   ar
    19    16    17   ar
    20    16    22   ar
    21    17    18   ar
    22    17    19   ar
    23    19    20   ar
    24    19    26   ar
    25    20    21   ar
    26    20    23   ar
    27    21    22   ar
    28    23    24   ar
    29    24    25   ar
    30    25    26   ar
