@<TRIPOS>MOLECULE
37885_ChemDiv_C629-0182
 28 32 0 0 0
SMALL
GASTEIGER
Energy = 0

@<TRIPOS>ATOM
      1 C           1.3460    0.6790    0.0000 C.ar    1  LIG1        0.1986
      2 O           2.3420    0.5750    0.0000 O.2     1  LIG1       -0.4488
      3 C           2.5500   -0.4040    0.0000 C.ar    1  LIG1        0.1480
      4 C           1.6790   -0.9080    0.0000 C.ar    1  LIG1        0.0513
      5 C           0.9380   -0.2330    0.0000 C.ar    1  LIG1        0.0464
      6 C           1.6790   -1.9040    0.0000 C.ar    1  LIG1        0.0623
      7 N           2.5500   -2.4040    0.0000 N.ar    1  LIG1       -0.2495
      8 C           3.4170   -1.9040    0.0000 C.ar    1  LIG1        0.0838
      9 C           3.4170   -0.9080    0.0000 C.ar    1  LIG1        0.0522
     10 C           4.2790   -0.4040    0.0000 C.ar    1  LIG1        0.0045
     11 C           5.1500   -0.9080    0.0000 C.ar    1  LIG1        0.0002
     12 C           5.1500   -1.9040    0.0000 C.ar    1  LIG1        0.0015
     13 C           4.2790   -2.4040    0.0000 C.ar    1  LIG1        0.0192
     14 C           0.8170   -2.4040    0.0000 C.3     1  LIG1        0.0522
     15 C           0.8460    1.5420    0.0000 C.2     1  LIG1        0.2838
     16 N          -0.1540    1.5420    0.0000 N.am    1  LIG1       -0.2732
     17 C          -0.6540    2.4080    0.0000 C.3     1  LIG1        0.0997
     18 C          -1.6540    2.4080    0.0000 C.3     1  LIG1        0.0782
     19 C          -2.1540    1.5420    0.0000 C.3     1  LIG1        0.0903
     20 N          -3.1580    1.5420    0.0000 N.4     1  LIG1        0.3730
     21 C          -3.6580    0.6790    0.0000 C.3     1  LIG1        0.1383
     22 C          -4.6540    0.6790    0.0000 C.3     1  LIG1        0.0629
     23 C          -5.1540    1.5420    0.0000 C.3     1  LIG1        0.0123
     24 C          -4.6540    2.4080    0.0000 C.3     1  LIG1        0.0629
     25 C          -3.6580    2.4080    0.0000 C.3     1  LIG1        0.1383
     26 C          -1.6540    0.6790    0.0000 C.3     1  LIG1        0.0782
     27 C          -0.6540    0.6790    0.0000 C.3     1  LIG1        0.0997
     28 O           1.3460    2.4080    0.0000 O.2     1  LIG1       -0.2666
@<TRIPOS>BOND
     1     1     2   ar
     2     1     5   ar
     3     1    15    1
     4     2     3   ar
     5     3     4   ar
     6     3     9   ar
     7     4     5   ar
     8     4     6   ar
     9     6     7   ar
    10     6    14    1
    11     7     8   ar
    12     8     9   ar
    13     8    13   ar
    14     9    10   ar
    15    10    11   ar
    16    11    12   ar
    17    12    13   ar
    18    15    16   am
    19    15    28    2
    20    16    17    1
    21    16    27    1
    22    17    18    1
    23    18    19    1
    24    19    20    1
    25    19    26    1
    26    20    21    1
    27    20    25    1
    28    21    22    1
    29    22    23    1
    30    23    24    1
    31    24    25    1
    32    26    27    1
