@<TRIPOS>MOLECULE
37881_ChemDiv_C629-0105
 29 32 0 0 0
SMALL
GASTEIGER
Energy = 0

@<TRIPOS>ATOM
      1 C           1.8000   -2.5710    0.0000 C.ar    1  LIG1        0.1480
      2 C           0.9290   -3.0750    0.0000 C.ar    1  LIG1        0.0513
      3 C           0.1880   -2.4000    0.0000 C.ar    1  LIG1        0.0465
      4 C           0.5960   -1.4880    0.0000 C.ar    1  LIG1        0.2001
      5 O           1.5920   -1.5920    0.0000 O.2     1  LIG1       -0.4488
      6 C           0.0960   -0.6250    0.0000 C.2     1  LIG1        0.2995
      7 O           0.5960    0.2420    0.0000 O.2     1  LIG1       -0.2650
      8 N          -0.9040   -0.6250    0.0000 N.am    1  LIG1       -0.1988
      9 C          -1.4040    0.2420    0.0000 C.3     1  LIG1        0.1217
     10 C          -2.4040    0.2420    0.0000 C.3     1  LIG1        0.0861
     11 C          -2.9040    1.1130    0.0000 C.3     1  LIG1        0.1412
     12 N          -3.9040    1.1130    0.0000 N.4     1  LIG1        0.3855
     13 C          -4.4040    1.9750    0.0000 C.3     1  LIG1        0.1665
     14 C          -3.9040    2.8420    0.0000 C.ar    1  LIG1        0.0344
     15 C          -4.4040    3.7080    0.0000 C.ar    1  LIG1        0.0014
     16 C          -3.9040    4.5710    0.0000 C.ar    1  LIG1       -0.0001
     17 C          -2.9040    4.5710    0.0000 C.ar    1  LIG1       -0.0000
     18 C          -2.4040    3.7080    0.0000 C.ar    1  LIG1       -0.0001
     19 C          -2.9040    2.8420    0.0000 C.ar    1  LIG1        0.0014
     20 C          -4.4040    0.2420    0.0000 C.3     1  LIG1        0.2027
     21 C           0.9290   -4.0710    0.0000 C.ar    1  LIG1        0.0623
     22 N           1.8000   -4.5710    0.0000 N.ar    1  LIG1       -0.2495
     23 C           2.6630   -4.0710    0.0000 C.ar    1  LIG1        0.0838
     24 C           2.6630   -3.0750    0.0000 C.ar    1  LIG1        0.0522
     25 C           3.5290   -2.5710    0.0000 C.ar    1  LIG1        0.0045
     26 C           4.4000   -3.0750    0.0000 C.ar    1  LIG1        0.0002
     27 C           4.4000   -4.0710    0.0000 C.ar    1  LIG1        0.0015
     28 C           3.5290   -4.5710    0.0000 C.ar    1  LIG1        0.0192
     29 C           0.0670   -4.5710    0.0000 C.3     1  LIG1        0.0522
@<TRIPOS>BOND
     1     1     2   ar
     2     1     5   ar
     3     1    24   ar
     4     2     3   ar
     5     2    21   ar
     6     3     4   ar
     7     4     5   ar
     8     4     6    1
     9     6     7    2
    10     6     8   am
    11     8     9    1
    12     9    10    1
    13    10    11    1
    14    11    12    1
    15    12    13    1
    16    12    20    1
    17    13    14    1
    18    14    15   ar
    19    14    19   ar
    20    15    16   ar
    21    16    17   ar
    22    17    18   ar
    23    18    19   ar
    24    21    22   ar
    25    21    29    1
    26    22    23   ar
    27    23    24   ar
    28    23    28   ar
    29    24    25   ar
    30    25    26   ar
    31    26    27   ar
    32    27    28   ar
