@<TRIPOS>MOLECULE
37889_ChemDiv_C614-0941
 29 32 0 0 0
SMALL
GASTEIGER
Energy = 0

@<TRIPOS>ATOM
      1 N          -1.4630    1.0580    0.0000 N.ar    1  LIG1       -0.2961
      2 C          -0.8710    1.8710    0.0000 C.ar    1  LIG1        0.1222
      3 N          -1.4630    2.6790    0.0000 N.ar    1  LIG1       -0.2293
      4 C          -2.4130    2.3710    0.0000 C.ar    1  LIG1        0.1167
      5 C          -2.4130    1.3710    0.0000 C.ar    1  LIG1        0.1627
      6 N          -3.2790    0.8630    0.0000 N.ar    1  LIG1       -0.2252
      7 C          -4.1460    1.3630    0.0000 C.ar    1  LIG1        0.1006
      8 C          -4.1460    2.3630    0.0000 C.ar    1  LIG1        0.0223
      9 C          -3.2790    2.8710    0.0000 C.ar    1  LIG1        0.0238
     10 C           0.1290    1.8710    0.0000 C.3     1  LIG1        0.0736
     11 C           0.6290    1.0080    0.0000 C.3     1  LIG1        0.0947
     12 C           1.6290    1.0080    0.0000 C.2     1  LIG1        0.2422
     13 N           2.1330    0.1420    0.0000 N.am    1  LIG1       -0.1972
     14 C           3.1330    0.1420    0.0000 C.3     1  LIG1        0.1791
     15 C           3.6210    1.0130    0.0000 C.ar    1  LIG1        0.1449
     16 O           4.6040    1.1290    0.0000 O.2     1  LIG1       -0.4529
     17 C           4.8040    2.1040    0.0000 C.ar    1  LIG1        0.1792
     18 C           3.9330    2.5880    0.0000 C.ar    1  LIG1        0.0435
     19 C           3.1960    1.9170    0.0000 C.ar    1  LIG1        0.0380
     20 O           2.1290    1.8710    0.0000 O.2     1  LIG1       -0.2733
     21 C          -1.1540    0.1040    0.0000 C.3     1  LIG1        0.1353
     22 C          -1.8210   -0.6380    0.0000 C.ar    1  LIG1        0.0007
     23 C          -2.7960   -0.4290    0.0000 C.ar    1  LIG1        0.0007
     24 C          -3.4750   -1.1710    0.0000 C.ar    1  LIG1        0.0366
     25 C          -3.1710   -2.1250    0.0000 C.ar    1  LIG1        0.1387
     26 C          -2.1750   -2.3290    0.0000 C.ar    1  LIG1        0.0366
     27 C          -1.5080   -1.5830    0.0000 C.ar    1  LIG1        0.0007
     28 O          -3.8250   -2.8670    0.0000 O.3     1  LIG1       -0.4714
     29 C          -4.8080   -2.6630    0.0000 C.3     1  LIG1        0.2525
@<TRIPOS>BOND
     1     1     2   ar
     2     1     5   ar
     3     1    21    1
     4     2     3   ar
     5     2    10    1
     6     3     4   ar
     7     4     5   ar
     8     4     9   ar
     9     5     6   ar
    10     6     7   ar
    11     7     8   ar
    12     8     9   ar
    13    10    11    1
    14    11    12    1
    15    12    13   am
    16    12    20    2
    17    13    14    1
    18    14    15    1
    19    15    16   ar
    20    15    19   ar
    21    16    17   ar
    22    17    18   ar
    23    18    19   ar
    24    21    22    1
    25    22    23   ar
    26    22    27   ar
    27    23    24   ar
    28    24    25   ar
    29    25    26   ar
    30    25    28    1
    31    26    27   ar
    32    28    29    1
