@<TRIPOS>MOLECULE
37884_ChemDiv_C655-0036
 33 37 0 0 0
SMALL
GASTEIGER
Energy = 0

@<TRIPOS>ATOM
      1 C           0.7630    1.7580    0.0000 C.ar    1  LIG1        0.1661
      2 S           1.6380    2.2540    0.0000 S.O2    1  LIG1        0.0319
      3 O           1.1420    3.1290    0.0000 O.2     1  LIG1       -0.1641
      4 O           2.1380    1.3920    0.0000 O.2     1  LIG1       -0.1641
      5 C           2.5000    2.7500    0.0000 C.ar    1  LIG1        0.1105
      6 C           3.3790    2.2540    0.0000 C.ar    1  LIG1        0.0187
      7 C           4.2420    2.7500    0.0000 C.ar    1  LIG1        0.0013
      8 C           4.2420    3.7500    0.0000 C.ar    1  LIG1        0.0001
      9 C           3.3790    4.2460    0.0000 C.ar    1  LIG1        0.0013
     10 C           2.5170    3.7500    0.0000 C.ar    1  LIG1        0.0187
     11 C          -0.1000    2.2540    0.0000 C.ar    1  LIG1        0.2159
     12 C          -0.9630    1.7580    0.0000 C.ar    1  LIG1        0.0593
     13 C          -0.9630    0.7540    0.0000 C.ar    1  LIG1        0.0667
     14 N          -0.1000    0.2580    0.0000 N.ar    1  LIG1       -0.3164
     15 C           0.7630    0.7540    0.0000 C.ar    1  LIG1        0.0985
     16 C          -0.1000   -0.7500    0.0000 C.3     1  LIG1        0.1939
     17 C           0.7670   -1.2500    0.0000 C.2     1  LIG1        0.2686
     18 N           0.7670   -2.2500    0.0000 N.am    1  LIG1       -0.1776
     19 C           1.6290   -2.7460    0.0000 C.ar    1  LIG1        0.0734
     20 C           1.6250   -3.7460    0.0000 C.ar    1  LIG1        0.0166
     21 C           2.4920   -4.2460    0.0000 C.ar    1  LIG1        0.0013
     22 C           3.3540   -3.7460    0.0000 C.ar    1  LIG1        0.0001
     23 C           3.3540   -2.7380    0.0000 C.ar    1  LIG1        0.0013
     24 C           2.4880   -2.2380    0.0000 C.ar    1  LIG1        0.0166
     25 O           1.6290   -0.7500    0.0000 O.2     1  LIG1       -0.2709
     26 C          -1.8250    0.2580    0.0000 C.ar    1  LIG1        0.0575
     27 C          -2.7130    0.7540    0.0000 C.ar    1  LIG1        0.1779
     28 C          -2.7000    1.7580    0.0000 C.ar    1  LIG1        0.1766
     29 C          -1.8250    2.2540    0.0000 C.ar    1  LIG1        0.0449
     30 O          -3.6500    2.0710    0.0000 O.3     1  LIG1       -0.4346
     31 C          -4.2460    1.2710    0.0000 C.3     1  LIG1        0.4294
     32 O          -3.6630    0.4540    0.0000 O.3     1  LIG1       -0.4346
     33 O          -0.1000    3.2500    0.0000 O.2     1  LIG1       -0.2851
@<TRIPOS>BOND
     1     1     2    1
     2     1    11   ar
     3     1    15   ar
     4     2     3    2
     5     2     4    2
     6     2     5    1
     7     5     6   ar
     8     5    10   ar
     9     6     7   ar
    10     7     8   ar
    11     8     9   ar
    12     9    10   ar
    13    11    12   ar
    14    11    33    2
    15    12    13   ar
    16    12    29   ar
    17    13    14   ar
    18    13    26   ar
    19    14    15   ar
    20    14    16    1
    21    16    17    1
    22    17    18   am
    23    17    25    2
    24    18    19    1
    25    19    20   ar
    26    19    24   ar
    27    20    21   ar
    28    21    22   ar
    29    22    23   ar
    30    23    24   ar
    31    26    27   ar
    32    27    28   ar
    33    27    32    1
    34    28    29   ar
    35    28    30    1
    36    30    31    1
    37    31    32    1
