@<TRIPOS>MOLECULE
37880_ChemDiv_C652-0093
 25 29 0 0 0
SMALL
GASTEIGER
Energy = 0

@<TRIPOS>ATOM
      1 C          -0.6040   -0.2330    0.0000 C.ar    1  LIG1        0.1129
      2 C          -0.5960   -1.2250    0.0000 C.ar    1  LIG1        0.2514
      3 N           0.3580   -1.5250    0.0000 N.ar    1  LIG1       -0.1243
      4 N           0.9420   -0.7170    0.0000 N.ar    1  LIG1       -0.1915
      5 C           0.3460    0.0880    0.0000 C.ar    1  LIG1        0.2850
      6 O           0.6460    1.0420    0.0000 O.2     1  LIG1       -0.2650
      7 C           1.9420   -0.7080    0.0000 C.ar    1  LIG1        0.0861
      8 C           2.4420   -1.5710    0.0000 C.ar    1  LIG1        0.0201
      9 C           3.4420   -1.5580    0.0000 C.ar    1  LIG1        0.0129
     10 C           3.9420   -0.6880    0.0000 C.ar    1  LIG1        0.0578
     11 C           3.4250    0.1750    0.0000 C.ar    1  LIG1        0.0129
     12 C           2.4250    0.1630    0.0000 C.ar    1  LIG1        0.0201
     13 CL          4.9380   -0.6790    0.0000 Cl      1  LIG1       -0.0822
     14 O          -1.4710   -1.7380    0.0000 O.2     1  LIG1       -0.4348
     15 C          -2.3330   -1.2380    0.0000 C.ar    1  LIG1        0.1471
     16 C          -2.3330   -0.2380    0.0000 C.ar    1  LIG1        0.0349
     17 C          -1.4750    0.2630    0.0000 C.ar    1  LIG1        0.0126
     18 C          -3.2040    0.2630    0.0000 C.ar    1  LIG1        0.0029
     19 C          -4.0670   -0.2380    0.0000 C.ar    1  LIG1        0.0002
     20 C          -4.0670   -1.2500    0.0000 C.ar    1  LIG1        0.0031
     21 C          -3.2040   -1.7500    0.0000 C.ar    1  LIG1        0.0376
     22 C          -4.9290    0.2460    0.0000 C.ar    1  LIG1        0.0000
     23 C          -4.9420    1.2460    0.0000 C.ar    1  LIG1        0.0000
     24 C          -4.0750    1.7540    0.0000 C.ar    1  LIG1        0.0000
     25 C          -3.2130    1.2630    0.0000 C.ar    1  LIG1        0.0001
@<TRIPOS>BOND
     1     1     2    1
     2     1     5   ar
     3     1    17   ar
     4     2     3   ar
     5     2    14   ar
     6     3     4   ar
     7     4     5   ar
     8     4     7    1
     9     5     6    2
    10     7     8   ar
    11     7    12   ar
    12     8     9   ar
    13     9    10   ar
    14    10    11   ar
    15    10    13    1
    16    11    12   ar
    17    14    15   ar
    18    15    16   ar
    19    15    21   ar
    20    16    17   ar
    21    16    18   ar
    22    18    19   ar
    23    18    25   ar
    24    19    20   ar
    25    19    22   ar
    26    20    21   ar
    27    22    23   ar
    28    23    24   ar
    29    24    25   ar
