@<TRIPOS>MOLECULE
37883_ChemDiv_C629-0109
 27 30 0 0 0
SMALL
GASTEIGER
Energy = 0

@<TRIPOS>ATOM
      1 C           2.6460   -1.4000    0.0000 C.ar    1  LIG1        0.1480
      2 C           1.7750   -1.9040    0.0000 C.ar    1  LIG1        0.0513
      3 C           1.0330   -1.2290    0.0000 C.ar    1  LIG1        0.0465
      4 C           1.4420   -0.3170    0.0000 C.ar    1  LIG1        0.2001
      5 O           2.4330   -0.4210    0.0000 O.2     1  LIG1       -0.4488
      6 C           0.9420    0.5460    0.0000 C.2     1  LIG1        0.2995
      7 O           1.4420    1.4130    0.0000 O.2     1  LIG1       -0.2650
      8 N          -0.0580    0.5460    0.0000 N.am    1  LIG1       -0.1988
      9 C          -0.5580    1.4130    0.0000 C.3     1  LIG1        0.1217
     10 C          -1.5580    1.4130    0.0000 C.3     1  LIG1        0.0861
     11 C          -2.0580    2.2830    0.0000 C.3     1  LIG1        0.1404
     12 N          -3.0580    2.2830    0.0000 N.4     1  LIG1        0.3773
     13 C          -3.4920    1.3830    0.0000 C.3     1  LIG1        0.1385
     14 C          -4.4670    1.1580    0.0000 C.3     1  LIG1        0.0627
     15 C          -5.2500    1.7790    0.0000 C.3     1  LIG1        0.0063
     16 C          -5.2500    2.7790    0.0000 C.3     1  LIG1        0.0063
     17 C          -4.4670    3.4040    0.0000 C.3     1  LIG1        0.0627
     18 C          -3.4920    3.1790    0.0000 C.3     1  LIG1        0.1385
     19 C           1.7750   -2.9000    0.0000 C.ar    1  LIG1        0.0623
     20 N           2.6460   -3.4000    0.0000 N.ar    1  LIG1       -0.2495
     21 C           3.5080   -2.9000    0.0000 C.ar    1  LIG1        0.0838
     22 C           3.5080   -1.9040    0.0000 C.ar    1  LIG1        0.0522
     23 C           4.3750   -1.4000    0.0000 C.ar    1  LIG1        0.0045
     24 C           5.2460   -1.9040    0.0000 C.ar    1  LIG1        0.0002
     25 C           5.2460   -2.9000    0.0000 C.ar    1  LIG1        0.0015
     26 C           4.3750   -3.4000    0.0000 C.ar    1  LIG1        0.0192
     27 C           0.9130   -3.4000    0.0000 C.3     1  LIG1        0.0522
@<TRIPOS>BOND
     1     1     2   ar
     2     1     5   ar
     3     1    22   ar
     4     2     3   ar
     5     2    19   ar
     6     3     4   ar
     7     4     5   ar
     8     4     6    1
     9     6     7    2
    10     6     8   am
    11     8     9    1
    12     9    10    1
    13    10    11    1
    14    11    12    1
    15    12    13    1
    16    12    18    1
    17    13    14    1
    18    14    15    1
    19    15    16    1
    20    16    17    1
    21    17    18    1
    22    19    20   ar
    23    19    27    1
    24    20    21   ar
    25    21    22   ar
    26    21    26   ar
    27    22    23   ar
    28    23    24   ar
    29    24    25   ar
    30    25    26   ar
