@<TRIPOS>MOLECULE
37887_ChemDiv_C634-0067
 23 26 0 0 0
SMALL
GASTEIGER
Energy = 0

@<TRIPOS>ATOM
      1 C           0.7630   -0.4830    0.0000 C.ar    1  LIG1        0.1680
      2 S           1.6380    0.0000    0.0000 S.O2    1  LIG1        0.0320
      3 O           1.1380    0.8790    0.0000 O.2     1  LIG1       -0.1641
      4 O           2.1380   -0.8580    0.0000 O.2     1  LIG1       -0.1641
      5 C           2.5000    0.5000    0.0000 C.ar    1  LIG1        0.1105
      6 C           2.5170    1.5000    0.0000 C.ar    1  LIG1        0.0187
      7 C           3.3750    1.9960    0.0000 C.ar    1  LIG1        0.0013
      8 C           4.2380    1.5000    0.0000 C.ar    1  LIG1        0.0001
      9 C           4.2380    0.5000    0.0000 C.ar    1  LIG1        0.0013
     10 C           3.3750    0.0000    0.0000 C.ar    1  LIG1        0.0187
     11 C          -0.1000    0.0000    0.0000 C.ar    1  LIG1        0.2160
     12 C          -0.9630   -0.4830    0.0000 C.ar    1  LIG1        0.0612
     13 C          -0.9630   -1.4960    0.0000 C.ar    1  LIG1        0.0877
     14 N          -0.1000   -1.9920    0.0000 N.ar    1  LIG1       -0.2422
     15 C           0.7630   -1.4960    0.0000 C.ar    1  LIG1        0.1208
     16 C          -1.8250   -1.9920    0.0000 C.ar    1  LIG1        0.0594
     17 C          -2.7040   -1.4960    0.0000 C.ar    1  LIG1        0.1779
     18 C          -2.7000   -0.4830    0.0000 C.ar    1  LIG1        0.1766
     19 C          -1.8250    0.0000    0.0000 C.ar    1  LIG1        0.0449
     20 O          -3.6540   -0.1750    0.0000 O.3     1  LIG1       -0.4346
     21 C          -4.2420   -0.9790    0.0000 C.3     1  LIG1        0.4294
     22 O          -3.6580   -1.7960    0.0000 O.3     1  LIG1       -0.4346
     23 O          -0.1000    1.0000    0.0000 O.2     1  LIG1       -0.2851
@<TRIPOS>BOND
     1     1     2    1
     2     1    11   ar
     3     1    15   ar
     4     2     3    2
     5     2     4    2
     6     2     5    1
     7     5     6   ar
     8     5    10   ar
     9     6     7   ar
    10     7     8   ar
    11     8     9   ar
    12     9    10   ar
    13    11    12   ar
    14    11    23    2
    15    12    13   ar
    16    12    19   ar
    17    13    14   ar
    18    13    16   ar
    19    14    15   ar
    20    16    17   ar
    21    17    18   ar
    22    17    22    1
    23    18    19   ar
    24    18    20    1
    25    20    21    1
    26    21    22    1
