@<TRIPOS>MOLECULE
37893_ChemDiv_C614-0945
 33 36 0 0 0
SMALL
GASTEIGER
Energy = 0

@<TRIPOS>ATOM
      1 N          -3.1330    1.0580    0.0000 N.ar    1  LIG1       -0.2961
      2 C          -2.5460    1.8670    0.0000 C.ar    1  LIG1        0.1222
      3 N          -3.1330    2.6790    0.0000 N.ar    1  LIG1       -0.2293
      4 C          -4.0790    2.3670    0.0000 C.ar    1  LIG1        0.1167
      5 C          -4.0790    1.3670    0.0000 C.ar    1  LIG1        0.1627
      6 N          -4.9540    0.8630    0.0000 N.ar    1  LIG1       -0.2252
      7 C          -5.8170    1.3630    0.0000 C.ar    1  LIG1        0.1006
      8 C          -5.8170    2.3670    0.0000 C.ar    1  LIG1        0.0223
      9 C          -4.9540    2.8670    0.0000 C.ar    1  LIG1        0.0238
     10 C          -1.5460    1.8670    0.0000 C.3     1  LIG1        0.0736
     11 C          -1.0460    1.0040    0.0000 C.3     1  LIG1        0.0947
     12 C          -0.0460    1.0040    0.0000 C.2     1  LIG1        0.2418
     13 O           0.4540    1.8790    0.0000 O.2     1  LIG1       -0.2733
     14 N           0.4670    0.1420    0.0000 N.am    1  LIG1       -0.2051
     15 C           1.4630    0.1500    0.0000 C.3     1  LIG1        0.1198
     16 C           1.9710   -0.7130    0.0000 C.3     1  LIG1        0.0498
     17 C           2.9710   -0.6960    0.0000 C.ar    1  LIG1       -0.0204
     18 C           3.4540    0.1670    0.0000 C.ar    1  LIG1       -0.0037
     19 C           4.4540    0.1830    0.0000 C.ar    1  LIG1        0.0058
     20 C           4.9670   -0.6830    0.0000 C.ar    1  LIG1        0.0252
     21 S           5.9670   -0.6670    0.0000 S.3     1  LIG1       -0.1127
     22 C           6.4670   -1.5290    0.0000 C.3     1  LIG1        0.0742
     23 C           4.4670   -1.5540    0.0000 C.ar    1  LIG1        0.0058
     24 C           3.4670   -1.5630    0.0000 C.ar    1  LIG1       -0.0037
     25 C          -2.8170    0.1040    0.0000 C.3     1  LIG1        0.1353
     26 C          -3.5000   -0.6380    0.0000 C.ar    1  LIG1        0.0007
     27 C          -3.1790   -1.5750    0.0000 C.ar    1  LIG1        0.0007
     28 C          -3.8460   -2.3170    0.0000 C.ar    1  LIG1        0.0366
     29 C          -4.8290   -2.1210    0.0000 C.ar    1  LIG1        0.1387
     30 C          -5.1330   -1.1670    0.0000 C.ar    1  LIG1        0.0366
     31 C          -4.4670   -0.4250    0.0000 C.ar    1  LIG1        0.0007
     32 O          -5.4960   -2.8630    0.0000 O.3     1  LIG1       -0.4714
     33 C          -6.4670   -2.6500    0.0000 C.3     1  LIG1        0.2525
@<TRIPOS>BOND
     1     1     2   ar
     2     1     5   ar
     3     1    25    1
     4     2     3   ar
     5     2    10    1
     6     3     4   ar
     7     4     5   ar
     8     4     9   ar
     9     5     6   ar
    10     6     7   ar
    11     7     8   ar
    12     8     9   ar
    13    10    11    1
    14    11    12    1
    15    12    13    2
    16    12    14   am
    17    14    15    1
    18    15    16    1
    19    16    17    1
    20    17    18   ar
    21    17    24   ar
    22    18    19   ar
    23    19    20   ar
    24    20    21    1
    25    20    23   ar
    26    21    22    1
    27    23    24   ar
    28    25    26    1
    29    26    27   ar
    30    26    31   ar
    31    27    28   ar
    32    28    29   ar
    33    29    30   ar
    34    29    32    1
    35    30    31   ar
    36    32    33    1
