@<TRIPOS>MOLECULE
37895_ChemDiv_C614-0975
 29 32 0 0 0
SMALL
GASTEIGER
Energy = 0

@<TRIPOS>ATOM
      1 N          -2.7080    0.7960    0.0000 N.ar    1  LIG1       -0.2961
      2 C          -2.1170    1.5960    0.0000 C.ar    1  LIG1        0.1222
      3 N          -2.7080    2.4170    0.0000 N.ar    1  LIG1       -0.2293
      4 C          -3.6580    2.0960    0.0000 C.ar    1  LIG1        0.1167
      5 C          -3.6580    1.0960    0.0000 C.ar    1  LIG1        0.1627
      6 N          -4.5250    0.5960    0.0000 N.ar    1  LIG1       -0.2252
      7 C          -5.3880    1.0960    0.0000 C.ar    1  LIG1        0.1006
      8 C          -5.3880    2.0960    0.0000 C.ar    1  LIG1        0.0223
      9 C          -4.5250    2.5960    0.0000 C.ar    1  LIG1        0.0238
     10 C          -1.1170    1.5960    0.0000 C.3     1  LIG1        0.0736
     11 C          -0.6170    0.7330    0.0000 C.3     1  LIG1        0.0947
     12 C           0.3830    0.7330    0.0000 C.2     1  LIG1        0.2418
     13 O           0.8790    1.6040    0.0000 O.2     1  LIG1       -0.2733
     14 N           0.8880   -0.1290    0.0000 N.am    1  LIG1       -0.2051
     15 C           1.8880   -0.1250    0.0000 C.3     1  LIG1        0.1198
     16 C           2.3880   -0.9790    0.0000 C.3     1  LIG1        0.0498
     17 C           3.3830   -0.9710    0.0000 C.ar    1  LIG1       -0.0204
     18 C           3.8960   -1.8330    0.0000 C.ar    1  LIG1       -0.0042
     19 C           4.8960   -1.8250    0.0000 C.ar    1  LIG1       -0.0003
     20 C           5.3830   -0.9460    0.0000 C.ar    1  LIG1       -0.0000
     21 C           4.8710   -0.0830    0.0000 C.ar    1  LIG1       -0.0003
     22 C           3.8790   -0.1000    0.0000 C.ar    1  LIG1       -0.0042
     23 C          -2.4000   -0.1580    0.0000 C.3     1  LIG1        0.1353
     24 C          -3.0670   -0.9000    0.0000 C.ar    1  LIG1        0.0005
     25 C          -2.7540   -1.8500    0.0000 C.ar    1  LIG1       -0.0024
     26 C          -3.4210   -2.5920    0.0000 C.ar    1  LIG1       -0.0003
     27 C          -4.4040   -2.3880    0.0000 C.ar    1  LIG1       -0.0000
     28 C          -4.7170   -1.4330    0.0000 C.ar    1  LIG1       -0.0003
     29 C          -4.0420   -0.6880    0.0000 C.ar    1  LIG1       -0.0024
@<TRIPOS>BOND
     1     1     2   ar
     2     1     5   ar
     3     1    23    1
     4     2     3   ar
     5     2    10    1
     6     3     4   ar
     7     4     5   ar
     8     4     9   ar
     9     5     6   ar
    10     6     7   ar
    11     7     8   ar
    12     8     9   ar
    13    10    11    1
    14    11    12    1
    15    12    13    2
    16    12    14   am
    17    14    15    1
    18    15    16    1
    19    16    17    1
    20    17    18   ar
    21    17    22   ar
    22    18    19   ar
    23    19    20   ar
    24    20    21   ar
    25    21    22   ar
    26    23    24    1
    27    24    25   ar
    28    24    29   ar
    29    25    26   ar
    30    26    27   ar
    31    27    28   ar
    32    28    29   ar
