@<TRIPOS>MOLECULE
37891_ChemDiv_C614-0944
 32 36 0 0 0
SMALL
GASTEIGER
Energy = 0

@<TRIPOS>ATOM
      1 N          -2.1790    1.0580    0.0000 N.ar    1  LIG1       -0.2961
      2 C          -1.5880    1.8670    0.0000 C.ar    1  LIG1        0.1222
      3 N          -2.1790    2.6790    0.0000 N.ar    1  LIG1       -0.2293
      4 C          -3.1250    2.3670    0.0000 C.ar    1  LIG1        0.1167
      5 C          -3.1250    1.3670    0.0000 C.ar    1  LIG1        0.1627
      6 N          -3.9960    0.8630    0.0000 N.ar    1  LIG1       -0.2252
      7 C          -4.8580    1.3630    0.0000 C.ar    1  LIG1        0.1006
      8 C          -4.8580    2.3670    0.0000 C.ar    1  LIG1        0.0223
      9 C          -3.9960    2.8670    0.0000 C.ar    1  LIG1        0.0238
     10 C          -0.5920    1.8670    0.0000 C.3     1  LIG1        0.0736
     11 C          -0.0920    1.0040    0.0000 C.3     1  LIG1        0.0951
     12 C           0.9080    1.0040    0.0000 C.2     1  LIG1        0.2460
     13 N           1.4170    0.1420    0.0000 N.am    1  LIG1       -0.1791
     14 C           2.4170    0.1500    0.0000 C.ar    1  LIG1        0.0766
     15 C           2.9210   -0.7130    0.0000 C.ar    1  LIG1        0.0568
     16 C           3.9170   -0.7080    0.0000 C.ar    1  LIG1        0.1777
     17 C           4.4080    0.1670    0.0000 C.ar    1  LIG1        0.1765
     18 O           5.3920   -0.0290    0.0000 O.3     1  LIG1       -0.4346
     19 C           5.5130   -1.0290    0.0000 C.3     1  LIG1        0.4294
     20 O           4.6000   -1.4500    0.0000 O.3     1  LIG1       -0.4346
     21 C           3.9000    1.0290    0.0000 C.ar    1  LIG1        0.0415
     22 C           2.9040    1.0130    0.0000 C.ar    1  LIG1        0.0199
     23 O           1.4080    1.8750    0.0000 O.2     1  LIG1       -0.2730
     24 C          -1.8630    0.1040    0.0000 C.3     1  LIG1        0.1353
     25 C          -2.5330   -0.6380    0.0000 C.ar    1  LIG1        0.0007
     26 C          -2.2250   -1.5750    0.0000 C.ar    1  LIG1        0.0007
     27 C          -2.8920   -2.3170    0.0000 C.ar    1  LIG1        0.0366
     28 C          -3.8750   -2.1210    0.0000 C.ar    1  LIG1        0.1387
     29 C          -4.1790   -1.1670    0.0000 C.ar    1  LIG1        0.0366
     30 C          -3.5130   -0.4250    0.0000 C.ar    1  LIG1        0.0007
     31 O          -4.5420   -2.8630    0.0000 O.3     1  LIG1       -0.4714
     32 C          -5.5170   -2.6500    0.0000 C.3     1  LIG1        0.2525
@<TRIPOS>BOND
     1     1     2   ar
     2     1     5   ar
     3     1    24    1
     4     2     3   ar
     5     2    10    1
     6     3     4   ar
     7     4     5   ar
     8     4     9   ar
     9     5     6   ar
    10     6     7   ar
    11     7     8   ar
    12     8     9   ar
    13    10    11    1
    14    11    12    1
    15    12    13   am
    16    12    23    2
    17    13    14    1
    18    14    15   ar
    19    14    22   ar
    20    15    16   ar
    21    16    17   ar
    22    16    20    1
    23    17    18    1
    24    17    21   ar
    25    18    19    1
    26    19    20    1
    27    21    22   ar
    28    24    25    1
    29    25    26   ar
    30    25    30   ar
    31    26    27   ar
    32    27    28   ar
    33    28    29   ar
    34    28    31    1
    35    29    30   ar
    36    31    32    1
