@<TRIPOS>MOLECULE
37897_ChemDiv_C614-0977
 31 34 0 0 0
SMALL
GASTEIGER
Energy = 0

@<TRIPOS>ATOM
      1 N          -3.4630    0.7960    0.0000 N.ar    1  LIG1       -0.2961
      2 C          -2.8710    1.5960    0.0000 C.ar    1  LIG1        0.1222
      3 N          -3.4630    2.4130    0.0000 N.ar    1  LIG1       -0.2293
      4 C          -4.4040    2.0960    0.0000 C.ar    1  LIG1        0.1167
      5 C          -4.4040    1.0960    0.0000 C.ar    1  LIG1        0.1627
      6 N          -5.2790    0.5960    0.0000 N.ar    1  LIG1       -0.2252
      7 C          -6.1380    1.0960    0.0000 C.ar    1  LIG1        0.1006
      8 C          -6.1380    2.0960    0.0000 C.ar    1  LIG1        0.0223
      9 C          -5.2790    2.5960    0.0000 C.ar    1  LIG1        0.0238
     10 C          -1.8710    1.5960    0.0000 C.3     1  LIG1        0.0736
     11 C          -1.3710    0.7330    0.0000 C.3     1  LIG1        0.0947
     12 C          -0.3750    0.7330    0.0000 C.2     1  LIG1        0.2418
     13 O           0.1250    1.6000    0.0000 O.2     1  LIG1       -0.2733
     14 N           0.1380   -0.1290    0.0000 N.am    1  LIG1       -0.2051
     15 C           1.1380   -0.1250    0.0000 C.3     1  LIG1        0.1198
     16 C           1.6420   -0.9750    0.0000 C.3     1  LIG1        0.0498
     17 C           2.6380   -0.9710    0.0000 C.ar    1  LIG1       -0.0204
     18 C           3.1250   -0.1000    0.0000 C.ar    1  LIG1       -0.0037
     19 C           4.1210   -0.0830    0.0000 C.ar    1  LIG1        0.0058
     20 C           4.6380   -0.9460    0.0000 C.ar    1  LIG1        0.0252
     21 S           5.6380   -0.9330    0.0000 S.3     1  LIG1       -0.1127
     22 C           6.1380   -1.8040    0.0000 C.3     1  LIG1        0.0742
     23 C           4.1380   -1.8250    0.0000 C.ar    1  LIG1        0.0058
     24 C           3.1380   -1.8330    0.0000 C.ar    1  LIG1       -0.0037
     25 C          -3.1420   -0.1580    0.0000 C.3     1  LIG1        0.1353
     26 C          -3.8130   -0.9000    0.0000 C.ar    1  LIG1        0.0005
     27 C          -4.7920   -0.6880    0.0000 C.ar    1  LIG1       -0.0024
     28 C          -5.4580   -1.4290    0.0000 C.ar    1  LIG1       -0.0003
     29 C          -5.1580   -2.3830    0.0000 C.ar    1  LIG1       -0.0000
     30 C          -4.1710   -2.5920    0.0000 C.ar    1  LIG1       -0.0003
     31 C          -3.5080   -1.8500    0.0000 C.ar    1  LIG1       -0.0024
@<TRIPOS>BOND
     1     1     2   ar
     2     1     5   ar
     3     1    25    1
     4     2     3   ar
     5     2    10    1
     6     3     4   ar
     7     4     5   ar
     8     4     9   ar
     9     5     6   ar
    10     6     7   ar
    11     7     8   ar
    12     8     9   ar
    13    10    11    1
    14    11    12    1
    15    12    13    2
    16    12    14   am
    17    14    15    1
    18    15    16    1
    19    16    17    1
    20    17    18   ar
    21    17    24   ar
    22    18    19   ar
    23    19    20   ar
    24    20    21    1
    25    20    23   ar
    26    21    22    1
    27    23    24   ar
    28    25    26    1
    29    26    27   ar
    30    26    31   ar
    31    27    28   ar
    32    28    29   ar
    33    29    30   ar
    34    30    31   ar
