@<TRIPOS>MOLECULE
37899_ChemDiv_C614-0980
 30 33 0 0 0
SMALL
GASTEIGER
Energy = 0

@<TRIPOS>ATOM
      1 N          -3.2080    0.7960    0.0000 N.ar    1  LIG1       -0.2961
      2 C          -2.6170    1.5960    0.0000 C.ar    1  LIG1        0.1222
      3 N          -3.2080    2.4170    0.0000 N.ar    1  LIG1       -0.2293
      4 C          -4.1580    2.0960    0.0000 C.ar    1  LIG1        0.1167
      5 C          -4.1580    1.0960    0.0000 C.ar    1  LIG1        0.1627
      6 N          -5.0250    0.5960    0.0000 N.ar    1  LIG1       -0.2252
      7 C          -5.8880    1.0960    0.0000 C.ar    1  LIG1        0.1006
      8 C          -5.8880    2.0960    0.0000 C.ar    1  LIG1        0.0223
      9 C          -5.0250    2.5960    0.0000 C.ar    1  LIG1        0.0238
     10 C          -1.6170    1.5960    0.0000 C.3     1  LIG1        0.0736
     11 C          -1.1170    0.7330    0.0000 C.3     1  LIG1        0.0947
     12 C          -0.1170    0.7330    0.0000 C.2     1  LIG1        0.2418
     13 O           0.3830    1.6040    0.0000 O.2     1  LIG1       -0.2733
     14 N           0.3880   -0.1290    0.0000 N.am    1  LIG1       -0.2051
     15 C           1.3880   -0.1250    0.0000 C.3     1  LIG1        0.1198
     16 C           1.8880   -0.9790    0.0000 C.3     1  LIG1        0.0498
     17 C           2.8880   -0.9710    0.0000 C.ar    1  LIG1       -0.0204
     18 C           3.3790   -0.1000    0.0000 C.ar    1  LIG1       -0.0033
     19 C           4.3710   -0.0830    0.0000 C.ar    1  LIG1        0.0111
     20 C           4.8830   -0.9460    0.0000 C.ar    1  LIG1        0.0577
     21 CL          5.8830   -0.9330    0.0000 Cl      1  LIG1       -0.0822
     22 C           4.3960   -1.8250    0.0000 C.ar    1  LIG1        0.0111
     23 C           3.3960   -1.8380    0.0000 C.ar    1  LIG1       -0.0033
     24 C          -2.9000   -0.1580    0.0000 C.3     1  LIG1        0.1353
     25 C          -3.5670   -0.9000    0.0000 C.ar    1  LIG1        0.0005
     26 C          -3.2540   -1.8500    0.0000 C.ar    1  LIG1       -0.0024
     27 C          -3.9210   -2.5920    0.0000 C.ar    1  LIG1       -0.0003
     28 C          -4.9040   -2.3880    0.0000 C.ar    1  LIG1       -0.0000
     29 C          -5.2170   -1.4330    0.0000 C.ar    1  LIG1       -0.0003
     30 C          -4.5420   -0.6920    0.0000 C.ar    1  LIG1       -0.0024
@<TRIPOS>BOND
     1     1     2   ar
     2     1     5   ar
     3     1    24    1
     4     2     3   ar
     5     2    10    1
     6     3     4   ar
     7     4     5   ar
     8     4     9   ar
     9     5     6   ar
    10     6     7   ar
    11     7     8   ar
    12     8     9   ar
    13    10    11    1
    14    11    12    1
    15    12    13    2
    16    12    14   am
    17    14    15    1
    18    15    16    1
    19    16    17    1
    20    17    18   ar
    21    17    23   ar
    22    18    19   ar
    23    19    20   ar
    24    20    21    1
    25    20    22   ar
    26    22    23   ar
    27    24    25    1
    28    25    26   ar
    29    25    30   ar
    30    26    27   ar
    31    27    28   ar
    32    28    29   ar
    33    29    30   ar
