@<TRIPOS>MOLECULE
37903_ChemDiv_C614-0950
 29 32 0 0 0
SMALL
GASTEIGER
Energy = 0

@<TRIPOS>ATOM
      1 N          -1.8000    1.0580    0.0000 N.ar    1  LIG1       -0.2961
      2 C          -1.2130    1.8670    0.0000 C.ar    1  LIG1        0.1222
      3 N          -1.8000    2.6790    0.0000 N.ar    1  LIG1       -0.2293
      4 C          -2.7460    2.3670    0.0000 C.ar    1  LIG1        0.1167
      5 C          -2.7460    1.3670    0.0000 C.ar    1  LIG1        0.1627
      6 N          -3.6170    0.8630    0.0000 N.ar    1  LIG1       -0.2252
      7 C          -4.4830    1.3630    0.0000 C.ar    1  LIG1        0.1006
      8 C          -4.4830    2.3670    0.0000 C.ar    1  LIG1        0.0223
      9 C          -3.6170    2.8670    0.0000 C.ar    1  LIG1        0.0238
     10 C          -0.2130    1.8670    0.0000 C.3     1  LIG1        0.0736
     11 C           0.2880    1.0040    0.0000 C.3     1  LIG1        0.0951
     12 C           1.2880    1.0040    0.0000 C.2     1  LIG1        0.2477
     13 N           1.7960    0.1420    0.0000 N.am    1  LIG1       -0.1543
     14 C           2.7960    0.1500    0.0000 C.ar    1  LIG1        0.1855
     15 N           3.3750    0.9670    0.0000 N.ar    1  LIG1       -0.2269
     16 C           4.3290    0.6670    0.0000 C.ar    1  LIG1        0.0679
     17 C           4.3420   -0.3330    0.0000 C.ar    1  LIG1        0.0529
     18 S           3.3920   -0.6500    0.0000 S.2     1  LIG1       -0.0495
     19 C           5.1330    1.2630    0.0000 C.3     1  LIG1        0.0527
     20 O           1.7880    1.8790    0.0000 O.2     1  LIG1       -0.2729
     21 C          -1.4830    0.1040    0.0000 C.3     1  LIG1        0.1353
     22 C          -2.1670   -0.6380    0.0000 C.ar    1  LIG1        0.0007
     23 C          -1.8460   -1.5750    0.0000 C.ar    1  LIG1        0.0007
     24 C          -2.5130   -2.3170    0.0000 C.ar    1  LIG1        0.0366
     25 C          -3.4960   -2.1210    0.0000 C.ar    1  LIG1        0.1387
     26 C          -3.8000   -1.1670    0.0000 C.ar    1  LIG1        0.0366
     27 C          -3.1330   -0.4250    0.0000 C.ar    1  LIG1        0.0007
     28 O          -4.1630   -2.8630    0.0000 O.3     1  LIG1       -0.4714
     29 C          -5.1380   -2.6500    0.0000 C.3     1  LIG1        0.2525
@<TRIPOS>BOND
     1     1     2   ar
     2     1     5   ar
     3     1    21    1
     4     2     3   ar
     5     2    10    1
     6     3     4   ar
     7     4     5   ar
     8     4     9   ar
     9     5     6   ar
    10     6     7   ar
    11     7     8   ar
    12     8     9   ar
    13    10    11    1
    14    11    12    1
    15    12    13   am
    16    12    20    2
    17    13    14    1
    18    14    15   ar
    19    14    18   ar
    20    15    16   ar
    21    16    17   ar
    22    16    19    1
    23    17    18   ar
    24    21    22    1
    25    22    23   ar
    26    22    27   ar
    27    23    24   ar
    28    24    25   ar
    29    25    26   ar
    30    25    28    1
    31    26    27   ar
    32    28    29    1
