@<TRIPOS>MOLECULE
37906_ChemDiv_C655-0040
 34 38 0 0 0
SMALL
GASTEIGER
Energy = 0

@<TRIPOS>ATOM
      1 C           0.3290    1.7500    0.0000 C.ar    1  LIG1        0.1661
      2 S           1.2040    2.2500    0.0000 S.O2    1  LIG1        0.0319
      3 C           2.0670    2.7460    0.0000 C.ar    1  LIG1        0.1105
      4 C           2.0790    3.7460    0.0000 C.ar    1  LIG1        0.0196
      5 C           2.9420    4.2380    0.0000 C.ar    1  LIG1        0.0127
      6 C           3.8040    3.7460    0.0000 C.ar    1  LIG1        0.0578
      7 C           3.8040    2.7460    0.0000 C.ar    1  LIG1        0.0127
      8 C           2.9290    2.2500    0.0000 C.ar    1  LIG1        0.0196
      9 CL          4.6790    4.2380    0.0000 Cl      1  LIG1       -0.0822
     10 O           1.7040    1.3880    0.0000 O.2     1  LIG1       -0.1641
     11 O           0.7040    3.1250    0.0000 O.2     1  LIG1       -0.1641
     12 C          -0.5330    2.2500    0.0000 C.ar    1  LIG1        0.2159
     13 C          -1.3960    1.7500    0.0000 C.ar    1  LIG1        0.0593
     14 C          -1.3960    0.7540    0.0000 C.ar    1  LIG1        0.0667
     15 N          -0.5330    0.2540    0.0000 N.ar    1  LIG1       -0.3164
     16 C           0.3290    0.7540    0.0000 C.ar    1  LIG1        0.0985
     17 C          -0.5330   -0.7500    0.0000 C.3     1  LIG1        0.1939
     18 C           0.3330   -1.2460    0.0000 C.2     1  LIG1        0.2686
     19 N           0.3330   -2.2460    0.0000 N.am    1  LIG1       -0.1776
     20 C           1.1960   -2.7420    0.0000 C.ar    1  LIG1        0.0734
     21 C           1.1880   -3.7420    0.0000 C.ar    1  LIG1        0.0166
     22 C           2.0540   -4.2380    0.0000 C.ar    1  LIG1        0.0013
     23 C           2.9170   -3.7420    0.0000 C.ar    1  LIG1        0.0001
     24 C           2.9170   -2.7290    0.0000 C.ar    1  LIG1        0.0013
     25 C           2.0500   -2.2380    0.0000 C.ar    1  LIG1        0.0166
     26 O           1.1960   -0.7500    0.0000 O.2     1  LIG1       -0.2709
     27 C          -2.2580    0.2540    0.0000 C.ar    1  LIG1        0.0575
     28 C          -3.1420    0.7540    0.0000 C.ar    1  LIG1        0.1779
     29 C          -3.1330    1.7500    0.0000 C.ar    1  LIG1        0.1766
     30 C          -2.2580    2.2500    0.0000 C.ar    1  LIG1        0.0449
     31 O          -4.0830    2.0670    0.0000 O.3     1  LIG1       -0.4346
     32 C          -4.6830    1.2630    0.0000 C.3     1  LIG1        0.4294
     33 O          -4.0960    0.4460    0.0000 O.3     1  LIG1       -0.4346
     34 O          -0.5330    3.2540    0.0000 O.2     1  LIG1       -0.2851
@<TRIPOS>BOND
     1     1     2    1
     2     1    12   ar
     3     1    16   ar
     4     2     3    1
     5     2    10    2
     6     2    11    2
     7     3     4   ar
     8     3     8   ar
     9     4     5   ar
    10     5     6   ar
    11     6     7   ar
    12     6     9    1
    13     7     8   ar
    14    12    13   ar
    15    12    34    2
    16    13    14   ar
    17    13    30   ar
    18    14    15   ar
    19    14    27   ar
    20    15    16   ar
    21    15    17    1
    22    17    18    1
    23    18    19   am
    24    18    26    2
    25    19    20    1
    26    20    21   ar
    27    20    25   ar
    28    21    22   ar
    29    22    23   ar
    30    23    24   ar
    31    24    25   ar
    32    27    28   ar
    33    28    29   ar
    34    28    33    1
    35    29    30   ar
    36    29    31    1
    37    31    32    1
    38    32    33    1
