@<TRIPOS>MOLECULE
37902_ChemDiv_C700-1560
 37 41 0 0 0
SMALL
GASTEIGER
Energy = 0

@<TRIPOS>ATOM
      1 C           1.2460    2.8500    0.0000 C.ar    1  LIG1        0.1388
      2 N           0.6540    2.0420    0.0000 N.ar    1  LIG1       -0.3065
      3 C           1.0580    1.1330    0.0000 C.3     1  LIG1        0.1722
      4 C           2.0500    1.0170    0.0000 C.2     1  LIG1        0.2474
      5 N           2.6500    1.8290    0.0000 N.am    1  LIG1       -0.2687
      6 C           2.2460    2.7540    0.0000 C.3     1  LIG1        0.1325
      7 C           2.8380    3.5580    0.0000 C.3     1  LIG1        0.0297
      8 C           3.6420    1.7130    0.0000 C.3     1  LIG1        0.1205
      9 C           4.0460    0.8000    0.0000 C.ar    1  LIG1       -0.0023
     10 C           5.0330    0.6960    0.0000 C.ar    1  LIG1       -0.0026
     11 C           5.4380   -0.2170    0.0000 C.ar    1  LIG1       -0.0003
     12 C           4.8380   -1.0290    0.0000 C.ar    1  LIG1       -0.0000
     13 C           3.8460   -0.9130    0.0000 C.ar    1  LIG1       -0.0003
     14 C           3.4420   -0.0040    0.0000 C.ar    1  LIG1       -0.0026
     15 O           2.4580    0.1040    0.0000 O.2     1  LIG1       -0.2728
     16 C           0.4670    0.3290    0.0000 C.3     1  LIG1        0.1187
     17 C          -0.5290    0.4380    0.0000 C.2     1  LIG1        0.2439
     18 O          -0.9380    1.3500    0.0000 O.2     1  LIG1       -0.2733
     19 N          -1.1250   -0.3670    0.0000 N.am    1  LIG1       -0.2035
     20 C          -1.9880   -0.8630    0.0000 C.3     1  LIG1        0.1365
     21 C          -1.9880   -1.8500    0.0000 C.3     1  LIG1        0.1142
     22 N          -2.8500   -2.3500    0.0000 N.pl3   1  LIG1       -0.3057
     23 C          -3.7250   -1.8460    0.0000 C.ar    1  LIG1        0.0479
     24 C          -3.7130   -0.8460    0.0000 C.ar    1  LIG1        0.0145
     25 C          -4.5750   -0.3460    0.0000 C.ar    1  LIG1        0.0013
     26 C          -5.4420   -0.8380    0.0000 C.ar    1  LIG1        0.0001
     27 C          -5.4420   -1.8460    0.0000 C.ar    1  LIG1        0.0013
     28 C          -4.5790   -2.3460    0.0000 C.ar    1  LIG1        0.0145
     29 C          -2.8630   -3.3500    0.0000 C.3     1  LIG1        0.0909
     30 C          -3.7250   -3.8460    0.0000 C.3     1  LIG1        0.0232
     31 C          -0.2920    2.3500    0.0000 C.ar    1  LIG1        0.0790
     32 C          -0.2920    3.3500    0.0000 C.ar    1  LIG1        0.0984
     33 N           0.6540    3.6630    0.0000 N.ar    1  LIG1       -0.2293
     34 C          -1.1630    3.8500    0.0000 C.ar    1  LIG1        0.0206
     35 C          -2.0290    3.3500    0.0000 C.ar    1  LIG1        0.0016
     36 C          -2.0290    2.3460    0.0000 C.ar    1  LIG1        0.0016
     37 C          -1.1630    1.8460    0.0000 C.ar    1  LIG1        0.0188
@<TRIPOS>BOND
     1     1     2   ar
     2     1     6    1
     3     1    33   ar
     4     2     3    1
     5     2    31   ar
     6     3     4    1
     7     3    16    1
     8     4     5   am
     9     4    15    2
    10     5     6    1
    11     5     8    1
    12     6     7    1
    13     8     9    1
    14     9    10   ar
    15     9    14   ar
    16    10    11   ar
    17    11    12   ar
    18    12    13   ar
    19    13    14   ar
    20    16    17    1
    21    17    18    2
    22    17    19   am
    23    19    20    1
    24    20    21    1
    25    21    22    1
    26    22    23    1
    27    22    29    1
    28    23    24   ar
    29    23    28   ar
    30    24    25   ar
    31    25    26   ar
    32    26    27   ar
    33    27    28   ar
    34    29    30    1
    35    31    32   ar
    36    31    37   ar
    37    32    33   ar
    38    32    34   ar
    39    34    35   ar
    40    35    36   ar
    41    36    37   ar
