@<TRIPOS>MOLECULE
37907_ChemDiv_C634-0069
 24 27 0 0 0
SMALL
GASTEIGER
Energy = 0

@<TRIPOS>ATOM
      1 C           0.3290   -0.4960    0.0000 C.ar    1  LIG1        0.1680
      2 S           1.1960    0.0000    0.0000 S.O2    1  LIG1        0.0320
      3 C           2.0670    0.5000    0.0000 C.ar    1  LIG1        0.1106
      4 C           2.0710    1.5000    0.0000 C.ar    1  LIG1        0.0211
      5 C           2.9330    2.0000    0.0000 C.ar    1  LIG1        0.0310
      6 C           3.8080    1.5000    0.0000 C.ar    1  LIG1        0.1402
      7 C           3.7960    0.5000    0.0000 C.ar    1  LIG1        0.0310
      8 C           2.9330    0.0000    0.0000 C.ar    1  LIG1        0.0211
      9 F           4.6750    2.0000    0.0000 F       1  LIG1       -0.2042
     10 O           1.6960   -0.8580    0.0000 O.2     1  LIG1       -0.1641
     11 O           0.6960    0.8790    0.0000 O.2     1  LIG1       -0.1641
     12 C          -0.5460    0.0000    0.0000 C.ar    1  LIG1        0.2160
     13 C          -1.4040   -0.4960    0.0000 C.ar    1  LIG1        0.0612
     14 C          -1.4040   -1.4960    0.0000 C.ar    1  LIG1        0.0877
     15 N          -0.5460   -1.9960    0.0000 N.ar    1  LIG1       -0.2422
     16 C           0.3290   -1.4960    0.0000 C.ar    1  LIG1        0.1208
     17 C          -2.2670   -1.9960    0.0000 C.ar    1  LIG1        0.0594
     18 C          -3.1460   -1.4960    0.0000 C.ar    1  LIG1        0.1779
     19 C          -3.1330   -0.4960    0.0000 C.ar    1  LIG1        0.1766
     20 C          -2.2670    0.0000    0.0000 C.ar    1  LIG1        0.0449
     21 O          -4.0830   -0.1790    0.0000 O.3     1  LIG1       -0.4346
     22 C          -4.6790   -0.9790    0.0000 C.3     1  LIG1        0.4294
     23 O          -4.1000   -1.7960    0.0000 O.3     1  LIG1       -0.4346
     24 O          -0.5460    1.0000    0.0000 O.2     1  LIG1       -0.2851
@<TRIPOS>BOND
     1     1     2    1
     2     1    12   ar
     3     1    16   ar
     4     2     3    1
     5     2    10    2
     6     2    11    2
     7     3     4   ar
     8     3     8   ar
     9     4     5   ar
    10     5     6   ar
    11     6     7   ar
    12     6     9    1
    13     7     8   ar
    14    12    13   ar
    15    12    24    2
    16    13    14   ar
    17    13    20   ar
    18    14    15   ar
    19    14    17   ar
    20    15    16   ar
    21    17    18   ar
    22    18    19   ar
    23    18    23    1
    24    19    20   ar
    25    19    21    1
    26    21    22    1
    27    22    23    1
