@<TRIPOS>MOLECULE
37900_ChemDiv_C700-1026
 35 39 0 0 0
SMALL
GASTEIGER
Energy = 0

@<TRIPOS>ATOM
      1 C           0.9250    2.2830    0.0000 C.ar    1  LIG1        0.1388
      2 N           0.3380    1.4750    0.0000 N.ar    1  LIG1       -0.3065
      3 C           0.7420    0.5630    0.0000 C.3     1  LIG1        0.1722
      4 C           1.7500    0.4580    0.0000 C.2     1  LIG1        0.2474
      5 N           2.3330    1.2710    0.0000 N.am    1  LIG1       -0.2687
      6 C           1.9170    2.1830    0.0000 C.3     1  LIG1        0.1325
      7 C           2.5000    3.0000    0.0000 C.3     1  LIG1        0.0297
      8 C           3.3380    1.1670    0.0000 C.3     1  LIG1        0.1205
      9 C           3.9080    1.9830    0.0000 C.ar    1  LIG1       -0.0023
     10 C           4.9040    1.8790    0.0000 C.ar    1  LIG1       -0.0026
     11 C           5.4920    2.6880    0.0000 C.ar    1  LIG1       -0.0003
     12 C           5.0830    3.6000    0.0000 C.ar    1  LIG1       -0.0000
     13 C           4.0830    3.7040    0.0000 C.ar    1  LIG1       -0.0003
     14 C           3.4960    2.8880    0.0000 C.ar    1  LIG1       -0.0026
     15 O           2.2460   -0.4040    0.0000 O.2     1  LIG1       -0.2728
     16 C           0.1710   -0.2500    0.0000 C.3     1  LIG1        0.1187
     17 C           0.5750   -1.1710    0.0000 C.2     1  LIG1        0.2438
     18 O           1.5750   -1.2670    0.0000 O.2     1  LIG1       -0.2733
     19 N          -0.0130   -1.9790    0.0000 N.am    1  LIG1       -0.2050
     20 C          -1.0080   -1.9790    0.0000 C.3     1  LIG1        0.1198
     21 C          -1.5170   -2.8460    0.0000 C.3     1  LIG1        0.0498
     22 C          -2.5040   -2.8460    0.0000 C.ar    1  LIG1       -0.0204
     23 C          -3.0000   -3.7000    0.0000 C.ar    1  LIG1       -0.0033
     24 C          -3.9920   -3.7000    0.0000 C.ar    1  LIG1        0.0111
     25 C          -4.5000   -2.8420    0.0000 C.ar    1  LIG1        0.0577
     26 CL         -5.4960   -2.8290    0.0000 Cl      1  LIG1       -0.0822
     27 C          -3.9920   -1.9790    0.0000 C.ar    1  LIG1        0.0111
     28 C          -3.0000   -1.9790    0.0000 C.ar    1  LIG1       -0.0033
     29 C          -0.6130    1.7750    0.0000 C.ar    1  LIG1        0.0790
     30 C          -0.6130    2.7670    0.0000 C.ar    1  LIG1        0.0984
     31 N           0.3330    3.0920    0.0000 N.ar    1  LIG1       -0.2293
     32 C          -1.4880    3.2750    0.0000 C.ar    1  LIG1        0.0206
     33 C          -2.3540    2.7670    0.0000 C.ar    1  LIG1        0.0016
     34 C          -2.3540    1.7630    0.0000 C.ar    1  LIG1        0.0016
     35 C          -1.4880    1.2670    0.0000 C.ar    1  LIG1        0.0188
@<TRIPOS>BOND
     1     1     2   ar
     2     1     6    1
     3     1    31   ar
     4     2     3    1
     5     2    29   ar
     6     3     4    1
     7     3    16    1
     8     4     5   am
     9     4    15    2
    10     5     6    1
    11     5     8    1
    12     6     7    1
    13     8     9    1
    14     9    10   ar
    15     9    14   ar
    16    10    11   ar
    17    11    12   ar
    18    12    13   ar
    19    13    14   ar
    20    16    17    1
    21    17    18    2
    22    17    19   am
    23    19    20    1
    24    20    21    1
    25    21    22    1
    26    22    23   ar
    27    22    28   ar
    28    23    24   ar
    29    24    25   ar
    30    25    26    1
    31    25    27   ar
    32    27    28   ar
    33    29    30   ar
    34    29    35   ar
    35    30    31   ar
    36    30    32   ar
    37    32    33   ar
    38    33    34   ar
    39    34    35   ar
