@<TRIPOS>MOLECULE
37904_ChemDiv_C700-1072
 29 32 0 0 0
SMALL
GASTEIGER
Energy = 0

@<TRIPOS>ATOM
      1 N          -0.5250    3.2250    0.0000 N.ar    1  LIG1       -0.2066
      2 C          -1.3880    2.7330    0.0000 C.ar    1  LIG1        0.2828
      3 C          -2.2540    3.2250    0.0000 C.ar    1  LIG1        0.0885
      4 C          -2.2540    4.2290    0.0000 C.ar    1  LIG1        0.0321
      5 C          -1.3880    4.7330    0.0000 C.ar    1  LIG1        0.1209
      6 N          -0.5250    4.2210    0.0000 N.ar    1  LIG1       -0.1647
      7 C          -3.2080    4.5380    0.0000 C.ar    1  LIG1        0.0092
      8 C          -3.8000    3.7330    0.0000 C.ar    1  LIG1        0.0356
      9 S          -3.2080    2.9130    0.0000 S.2     1  LIG1       -0.0816
     10 O          -1.3920    1.7330    0.0000 O.2     1  LIG1       -0.2649
     11 C           0.3420    2.7210    0.0000 C.3     1  LIG1        0.2168
     12 C           1.2080    3.2250    0.0000 C.2     1  LIG1        0.2665
     13 O           1.2000    4.2290    0.0000 O.2     1  LIG1       -0.2712
     14 N           2.0710    2.7330    0.0000 N.am    1  LIG1       -0.1973
     15 C           2.0710    1.7380    0.0000 C.3     1  LIG1        0.1775
     16 C           2.9380    1.2460    0.0000 C.3     1  LIG1        0.1624
     17 N           2.9380    0.2460    0.0000 N.4     1  LIG1        0.3786
     18 C           2.0670   -0.2500    0.0000 C.3     1  LIG1        0.1386
     19 C           2.0670   -1.2420    0.0000 C.3     1  LIG1        0.0632
     20 C           2.9210   -1.7420    0.0000 C.3     1  LIG1        0.0162
     21 C           2.9210   -2.7460    0.0000 C.3     1  LIG1        0.0268
     22 C           2.0540   -3.2460    0.0000 C.ar    1  LIG1       -0.0222
     23 C           1.1920   -2.7290    0.0000 C.ar    1  LIG1       -0.0043
     24 C           0.3210   -3.2290    0.0000 C.ar    1  LIG1       -0.0003
     25 C           0.3130   -4.2290    0.0000 C.ar    1  LIG1       -0.0000
     26 C           1.1880   -4.7330    0.0000 C.ar    1  LIG1       -0.0003
     27 C           2.0500   -4.2290    0.0000 C.ar    1  LIG1       -0.0043
     28 C           3.7880   -1.2420    0.0000 C.3     1  LIG1        0.0632
     29 C           3.7960   -0.2420    0.0000 C.3     1  LIG1        0.1386
@<TRIPOS>BOND
     1     1     2   ar
     2     1     6   ar
     3     1    11    1
     4     2     3   ar
     5     2    10    2
     6     3     4   ar
     7     3     9   ar
     8     4     5   ar
     9     4     7   ar
    10     5     6   ar
    11     7     8   ar
    12     8     9   ar
    13    11    12    1
    14    12    13    2
    15    12    14   am
    16    14    15    1
    17    15    16    1
    18    16    17    1
    19    17    18    1
    20    17    29    1
    21    18    19    1
    22    19    20    1
    23    20    21    1
    24    20    28    1
    25    21    22    1
    26    22    23   ar
    27    22    27   ar
    28    23    24   ar
    29    24    25   ar
    30    25    26   ar
    31    26    27   ar
    32    28    29    1
