@<TRIPOS>MOLECULE
37908_ChemDiv_C655-0108
 35 39 0 0 0
SMALL
GASTEIGER
Energy = 0

@<TRIPOS>ATOM
      1 C           0.3330    1.7580    0.0000 C.ar    1  LIG1        0.1661
      2 S           1.2080    2.2630    0.0000 S.O2    1  LIG1        0.0319
      3 C           2.0750    2.7500    0.0000 C.ar    1  LIG1        0.1104
      4 C           2.0880    3.7500    0.0000 C.ar    1  LIG1        0.0184
      5 C           2.9500    4.2380    0.0000 C.ar    1  LIG1       -0.0029
      6 C           3.8170    3.7500    0.0000 C.ar    1  LIG1       -0.0218
      7 C           3.8170    2.7500    0.0000 C.ar    1  LIG1       -0.0029
      8 C           2.9500    2.2630    0.0000 C.ar    1  LIG1        0.0184
      9 C           4.6960    4.2380    0.0000 C.3     1  LIG1        0.0310
     10 O           1.6960    1.4000    0.0000 O.2     1  LIG1       -0.1641
     11 O           0.7040    3.1290    0.0000 O.2     1  LIG1       -0.1641
     12 C          -0.5460    2.2630    0.0000 C.ar    1  LIG1        0.2159
     13 C          -1.4080    1.7580    0.0000 C.ar    1  LIG1        0.0593
     14 C          -1.4080    0.7580    0.0000 C.ar    1  LIG1        0.0667
     15 N          -0.5460    0.2670    0.0000 N.ar    1  LIG1       -0.3164
     16 C           0.3330    0.7580    0.0000 C.ar    1  LIG1        0.0985
     17 C          -0.5460   -0.7380    0.0000 C.3     1  LIG1        0.1939
     18 C           0.3250   -1.2380    0.0000 C.2     1  LIG1        0.2686
     19 N           0.3130   -2.2290    0.0000 N.am    1  LIG1       -0.1776
     20 C           1.1880   -2.7330    0.0000 C.ar    1  LIG1        0.0736
     21 C           1.1710   -3.7170    0.0000 C.ar    1  LIG1        0.0189
     22 C           2.0460   -4.2210    0.0000 C.ar    1  LIG1        0.0310
     23 C           2.9130   -3.7330    0.0000 C.ar    1  LIG1        0.1402
     24 F           3.7750   -4.2380    0.0000 F       1  LIG1       -0.2042
     25 C           2.9130   -2.7330    0.0000 C.ar    1  LIG1        0.0310
     26 C           2.0540   -2.2420    0.0000 C.ar    1  LIG1        0.0189
     27 O           1.1960   -0.7380    0.0000 O.2     1  LIG1       -0.2709
     28 C          -2.2750    0.2670    0.0000 C.ar    1  LIG1        0.0575
     29 C          -3.1500    0.7580    0.0000 C.ar    1  LIG1        0.1779
     30 C          -3.1500    1.7580    0.0000 C.ar    1  LIG1        0.1766
     31 C          -2.2750    2.2630    0.0000 C.ar    1  LIG1        0.0449
     32 O          -4.1000    2.0710    0.0000 O.3     1  LIG1       -0.4346
     33 C          -4.7000    1.2750    0.0000 C.3     1  LIG1        0.4294
     34 O          -4.1130    0.4580    0.0000 O.3     1  LIG1       -0.4346
     35 O          -0.5460    3.2460    0.0000 O.2     1  LIG1       -0.2851
@<TRIPOS>BOND
     1     1     2    1
     2     1    12   ar
     3     1    16   ar
     4     2     3    1
     5     2    10    2
     6     2    11    2
     7     3     4   ar
     8     3     8   ar
     9     4     5   ar
    10     5     6   ar
    11     6     7   ar
    12     6     9    1
    13     7     8   ar
    14    12    13   ar
    15    12    35    2
    16    13    14   ar
    17    13    31   ar
    18    14    15   ar
    19    14    28   ar
    20    15    16   ar
    21    15    17    1
    22    17    18    1
    23    18    19   am
    24    18    27    2
    25    19    20    1
    26    20    21   ar
    27    20    26   ar
    28    21    22   ar
    29    22    23   ar
    30    23    24    1
    31    23    25   ar
    32    25    26   ar
    33    28    29   ar
    34    29    30   ar
    35    29    34    1
    36    30    31   ar
    37    30    32    1
    38    32    33    1
    39    33    34    1
