@<TRIPOS>MOLECULE
37912_ChemDiv_C655-0200
 35 39 0 0 0
SMALL
GASTEIGER
Energy = 0

@<TRIPOS>ATOM
      1 C           0.3250    1.7540    0.0000 C.ar    1  LIG1        0.1661
      2 S           1.1960    2.2500    0.0000 S.O2    1  LIG1        0.0319
      3 O           0.7000    3.1330    0.0000 O.2     1  LIG1       -0.1641
      4 O           1.6920    1.3880    0.0000 O.2     1  LIG1       -0.1641
      5 C           2.0630    2.7500    0.0000 C.ar    1  LIG1        0.1105
      6 C           2.9420    2.2500    0.0000 C.ar    1  LIG1        0.0187
      7 C           3.7920    2.7500    0.0000 C.ar    1  LIG1        0.0013
      8 C           3.7920    3.7460    0.0000 C.ar    1  LIG1        0.0001
      9 C           2.9420    4.2540    0.0000 C.ar    1  LIG1        0.0013
     10 C           2.0790    3.7460    0.0000 C.ar    1  LIG1        0.0187
     11 C          -0.5380    2.2500    0.0000 C.ar    1  LIG1        0.2159
     12 C          -1.3960    1.7540    0.0000 C.ar    1  LIG1        0.0593
     13 C          -1.3960    0.7500    0.0000 C.ar    1  LIG1        0.0667
     14 N          -0.5380    0.2540    0.0000 N.ar    1  LIG1       -0.3164
     15 C           0.3250    0.7500    0.0000 C.ar    1  LIG1        0.0985
     16 C          -0.5380   -0.7460    0.0000 C.3     1  LIG1        0.1939
     17 C           0.3330   -1.2420    0.0000 C.2     1  LIG1        0.2686
     18 N           0.3330   -2.2540    0.0000 N.am    1  LIG1       -0.1776
     19 C           1.1920   -2.7500    0.0000 C.ar    1  LIG1        0.0736
     20 C           2.0420   -2.2460    0.0000 C.ar    1  LIG1        0.0197
     21 C           2.9210   -2.7330    0.0000 C.ar    1  LIG1        0.0382
     22 C           2.9210   -3.7420    0.0000 C.ar    1  LIG1        0.1388
     23 C           2.0540   -4.2420    0.0000 C.ar    1  LIG1        0.0382
     24 C           1.1920   -3.7420    0.0000 C.ar    1  LIG1        0.0197
     25 O           3.7920   -4.2540    0.0000 O.3     1  LIG1       -0.4714
     26 C           4.6710   -3.7420    0.0000 C.3     1  LIG1        0.2525
     27 O           1.1920   -0.7460    0.0000 O.2     1  LIG1       -0.2709
     28 C          -2.2630    0.2540    0.0000 C.ar    1  LIG1        0.0575
     29 C          -3.1460    0.7500    0.0000 C.ar    1  LIG1        0.1779
     30 C          -3.1460    1.7540    0.0000 C.ar    1  LIG1        0.1766
     31 C          -2.2630    2.2500    0.0000 C.ar    1  LIG1        0.0449
     32 O          -4.0830    2.0670    0.0000 O.3     1  LIG1       -0.4346
     33 C          -4.6750    1.2670    0.0000 C.3     1  LIG1        0.4294
     34 O          -4.1000    0.4500    0.0000 O.3     1  LIG1       -0.4346
     35 O          -0.5380    3.2460    0.0000 O.2     1  LIG1       -0.2851
@<TRIPOS>BOND
     1     1     2    1
     2     1    11   ar
     3     1    15   ar
     4     2     3    2
     5     2     4    2
     6     2     5    1
     7     5     6   ar
     8     5    10   ar
     9     6     7   ar
    10     7     8   ar
    11     8     9   ar
    12     9    10   ar
    13    11    12   ar
    14    11    35    2
    15    12    13   ar
    16    12    31   ar
    17    13    14   ar
    18    13    28   ar
    19    14    15   ar
    20    14    16    1
    21    16    17    1
    22    17    18   am
    23    17    27    2
    24    18    19    1
    25    19    20   ar
    26    19    24   ar
    27    20    21   ar
    28    21    22   ar
    29    22    23   ar
    30    22    25    1
    31    23    24   ar
    32    25    26    1
    33    28    29   ar
    34    29    30   ar
    35    29    34    1
    36    30    31   ar
    37    30    32    1
    38    32    33    1
    39    33    34    1
