@<TRIPOS>MOLECULE
37913_ChemDiv_C682-0139
 32 36 0 0 0
SMALL
GASTEIGER
Energy = 0

@<TRIPOS>ATOM
      1 C           0.3250    1.0000    0.0000 C.ar    1  LIG1        0.1661
      2 S           1.2000    1.5000    0.0000 S.O2    1  LIG1        0.0319
      3 C           2.0630    2.0000    0.0000 C.ar    1  LIG1        0.1106
      4 C           2.9420    1.5000    0.0000 C.ar    1  LIG1        0.0211
      5 C           3.8040    2.0000    0.0000 C.ar    1  LIG1        0.0310
      6 C           3.8040    2.9960    0.0000 C.ar    1  LIG1        0.1402
      7 C           2.9420    3.4960    0.0000 C.ar    1  LIG1        0.0310
      8 C           2.0790    2.9960    0.0000 C.ar    1  LIG1        0.0211
      9 F           4.6790    3.4960    0.0000 F       1  LIG1       -0.2042
     10 O           0.7000    2.3790    0.0000 O.2     1  LIG1       -0.1641
     11 O           1.7000    0.6380    0.0000 O.2     1  LIG1       -0.1641
     12 C          -0.5380    1.5000    0.0000 C.ar    1  LIG1        0.2159
     13 C          -1.4000    1.0000    0.0000 C.ar    1  LIG1        0.0593
     14 C          -1.4000    0.0000    0.0000 C.ar    1  LIG1        0.0666
     15 N          -0.5380   -0.4960    0.0000 N.ar    1  LIG1       -0.3205
     16 C           0.3250    0.0000    0.0000 C.ar    1  LIG1        0.0984
     17 C          -0.5540   -1.4880    0.0000 C.3     1  LIG1        0.1325
     18 C           0.3170   -1.9830    0.0000 C.ar    1  LIG1       -0.0036
     19 C           0.3080   -2.9830    0.0000 C.ar    1  LIG1       -0.0240
     20 C          -0.5710   -3.4790    0.0000 C.3     1  LIG1        0.0308
     21 C           1.1710   -3.4920    0.0000 C.ar    1  LIG1       -0.0045
     22 C           2.0330   -2.9920    0.0000 C.ar    1  LIG1       -0.0003
     23 C           2.0330   -1.9830    0.0000 C.ar    1  LIG1       -0.0003
     24 C           1.1710   -1.4880    0.0000 C.ar    1  LIG1       -0.0027
     25 C          -2.2630   -0.4960    0.0000 C.ar    1  LIG1        0.0575
     26 C          -3.1420    0.0000    0.0000 C.ar    1  LIG1        0.1779
     27 C          -3.1420    1.0000    0.0000 C.ar    1  LIG1        0.1766
     28 C          -2.2630    1.5000    0.0000 C.ar    1  LIG1        0.0449
     29 O          -4.0790    1.3170    0.0000 O.3     1  LIG1       -0.4346
     30 C          -4.6830    0.5170    0.0000 C.3     1  LIG1        0.4294
     31 O          -4.0960   -0.3000    0.0000 O.3     1  LIG1       -0.4346
     32 O          -0.5380    2.5000    0.0000 O.2     1  LIG1       -0.2851
@<TRIPOS>BOND
     1     1     2    1
     2     1    12   ar
     3     1    16   ar
     4     2     3    1
     5     2    10    2
     6     2    11    2
     7     3     4   ar
     8     3     8   ar
     9     4     5   ar
    10     5     6   ar
    11     6     7   ar
    12     6     9    1
    13     7     8   ar
    14    12    13   ar
    15    12    32    2
    16    13    14   ar
    17    13    28   ar
    18    14    15   ar
    19    14    25   ar
    20    15    16   ar
    21    15    17    1
    22    17    18    1
    23    18    19   ar
    24    18    24   ar
    25    19    20    1
    26    19    21   ar
    27    21    22   ar
    28    22    23   ar
    29    23    24   ar
    30    25    26   ar
    31    26    27   ar
    32    26    31    1
    33    27    28   ar
    34    27    29    1
    35    29    30    1
    36    30    31    1
