@<TRIPOS>MOLECULE
37911_ChemDiv_C682-0062
 31 35 0 0 0
SMALL
GASTEIGER
Energy = 0

@<TRIPOS>ATOM
      1 C           0.3290    1.0000    0.0000 C.ar    1  LIG1        0.1661
      2 S           1.2040    1.5000    0.0000 S.O2    1  LIG1        0.0319
      3 C           2.0670    2.0000    0.0000 C.ar    1  LIG1        0.1105
      4 C           2.9290    1.5000    0.0000 C.ar    1  LIG1        0.0196
      5 C           3.8080    2.0000    0.0000 C.ar    1  LIG1        0.0127
      6 C           3.8080    2.9960    0.0000 C.ar    1  LIG1        0.0578
      7 C           2.9460    3.4960    0.0000 C.ar    1  LIG1        0.0127
      8 C           2.0830    2.9960    0.0000 C.ar    1  LIG1        0.0196
      9 CL          4.6830    3.4960    0.0000 Cl      1  LIG1       -0.0822
     10 O           1.7040    0.6380    0.0000 O.2     1  LIG1       -0.1641
     11 O           0.7080    2.3750    0.0000 O.2     1  LIG1       -0.1641
     12 C          -0.5330    1.5000    0.0000 C.ar    1  LIG1        0.2159
     13 C          -1.3960    1.0000    0.0000 C.ar    1  LIG1        0.0593
     14 C          -1.3960    0.0000    0.0000 C.ar    1  LIG1        0.0666
     15 N          -0.5330   -0.4960    0.0000 N.ar    1  LIG1       -0.3205
     16 C           0.3290    0.0000    0.0000 C.ar    1  LIG1        0.0984
     17 C          -0.5330   -1.4960    0.0000 C.3     1  LIG1        0.1328
     18 C           0.3290   -1.9960    0.0000 C.ar    1  LIG1        0.0004
     19 C           0.3170   -2.9920    0.0000 C.ar    1  LIG1       -0.0024
     20 C           1.1790   -3.4920    0.0000 C.ar    1  LIG1       -0.0003
     21 C           2.0540   -2.9920    0.0000 C.ar    1  LIG1       -0.0000
     22 C           2.0420   -1.9880    0.0000 C.ar    1  LIG1       -0.0003
     23 C           1.1790   -1.4960    0.0000 C.ar    1  LIG1       -0.0024
     24 C          -2.2580   -0.4960    0.0000 C.ar    1  LIG1        0.0575
     25 C          -3.1500    0.0000    0.0000 C.ar    1  LIG1        0.1779
     26 C          -3.1330    1.0000    0.0000 C.ar    1  LIG1        0.1766
     27 C          -2.2580    1.5000    0.0000 C.ar    1  LIG1        0.0449
     28 O          -4.0880    1.3170    0.0000 O.3     1  LIG1       -0.4346
     29 C          -4.6880    0.5170    0.0000 C.3     1  LIG1        0.4294
     30 O          -4.1040   -0.3000    0.0000 O.3     1  LIG1       -0.4346
     31 O          -0.5330    2.4960    0.0000 O.2     1  LIG1       -0.2851
@<TRIPOS>BOND
     1     1     2    1
     2     1    12   ar
     3     1    16   ar
     4     2     3    1
     5     2    10    2
     6     2    11    2
     7     3     4   ar
     8     3     8   ar
     9     4     5   ar
    10     5     6   ar
    11     6     7   ar
    12     6     9    1
    13     7     8   ar
    14    12    13   ar
    15    12    31    2
    16    13    14   ar
    17    13    27   ar
    18    14    15   ar
    19    14    24   ar
    20    15    16   ar
    21    15    17    1
    22    17    18    1
    23    18    19   ar
    24    18    23   ar
    25    19    20   ar
    26    20    21   ar
    27    21    22   ar
    28    22    23   ar
    29    24    25   ar
    30    25    26   ar
    31    25    30    1
    32    26    27   ar
    33    26    28    1
    34    28    29    1
    35    29    30    1
