@<TRIPOS>MOLECULE
37928_ChemDiv_E019-0306
 28 31 0 0 0
SMALL
GASTEIGER
Energy = 0

@<TRIPOS>ATOM
      1 C          -1.3330   -2.4420    0.0000 C.ar    1  LIG1        0.0652
      2 C          -0.9250   -1.5210    0.0000 C.ar    1  LIG1        0.2772
      3 N           0.0750   -1.4170    0.0000 N.ar    1  LIG1       -0.2099
      4 N           0.6630   -2.2290    0.0000 N.ar    1  LIG1       -0.1703
      5 C           0.2540   -3.1420    0.0000 C.ar    1  LIG1        0.0851
      6 C          -0.7330   -3.2460    0.0000 C.ar    1  LIG1        0.0493
      7 S          -1.3170   -4.0630    0.0000 S.2     1  LIG1       -0.0855
      8 C          -2.2750   -3.7630    0.0000 C.ar    1  LIG1        0.0296
      9 C          -2.2830   -2.7580    0.0000 C.ar    1  LIG1        0.0112
     10 C          -3.1460   -2.2580    0.0000 C.ar    1  LIG1        0.0007
     11 C          -4.0080   -2.7580    0.0000 C.ar    1  LIG1        0.0000
     12 C          -4.0080   -3.7630    0.0000 C.ar    1  LIG1        0.0005
     13 C          -3.1460   -4.2580    0.0000 C.ar    1  LIG1        0.0065
     14 C           0.8460   -3.9540    0.0000 C.3     1  LIG1        0.0545
     15 C           0.4830   -0.5040    0.0000 C.3     1  LIG1        0.1842
     16 C           0.2210    0.4630    0.0000 C.2     1  LIG1        0.2481
     17 N           0.9210    1.1750    0.0000 N.am    1  LIG1       -0.2780
     18 C           1.8670    0.9250    0.0000 C.3     1  LIG1        0.0939
     19 C           2.5830    1.6170    0.0000 C.3     1  LIG1        0.0307
     20 C           2.3420    2.5830    0.0000 C.3     1  LIG1        0.0833
     21 C           3.0540    3.2790    0.0000 C.2     1  LIG1        0.2604
     22 O           2.7960    4.2580    0.0000 O.2     1  LIG1       -0.2717
     23 N           4.0040    3.0380    0.0000 N.am    1  LIG1       -0.0878
     24 C           1.3710    2.8420    0.0000 C.3     1  LIG1        0.0307
     25 C           0.6500    2.1330    0.0000 C.3     1  LIG1        0.0939
     26 O          -0.7500    0.7210    0.0000 O.2     1  LIG1       -0.2728
     27 C           1.4750   -0.5790    0.0000 C.3     1  LIG1        0.0364
     28 O          -1.5130   -0.7170    0.0000 O.2     1  LIG1       -0.2655
@<TRIPOS>BOND
     1     1     2   ar
     2     1     6   ar
     3     1     9   ar
     4     2     3   ar
     5     2    28    2
     6     3     4   ar
     7     3    15    1
     8     4     5   ar
     9     5     6   ar
    10     5    14    1
    11     6     7   ar
    12     7     8   ar
    13     8     9   ar
    14     8    13   ar
    15     9    10   ar
    16    10    11   ar
    17    11    12   ar
    18    12    13   ar
    19    15    16    1
    20    15    27    1
    21    16    17   am
    22    16    26    2
    23    17    18    1
    24    17    25    1
    25    18    19    1
    26    19    20    1
    27    20    21    1
    28    20    24    1
    29    21    22    2
    30    21    23   am
    31    24    25    1
