@<TRIPOS>MOLECULE
37923_ChemDiv_C614-0961
 23 25 0 0 0
SMALL
GASTEIGER
Energy = 0

@<TRIPOS>ATOM
      1 N           0.5830    0.3000    0.0000 N.ar    1  LIG1       -0.1758
      2 C          -0.0040    1.1130    0.0000 C.ar    1  LIG1        0.1769
      3 C          -0.9630    0.8040    0.0000 C.ar    1  LIG1        0.0685
      4 C          -0.9630   -0.2000    0.0000 C.ar    1  LIG1        0.1844
      5 N          -0.0040   -0.5040    0.0000 N.ar    1  LIG1       -0.1417
      6 N          -1.8250   -0.7000    0.0000 N.ar    1  LIG1       -0.2295
      7 C          -2.7000   -0.2000    0.0000 C.ar    1  LIG1        0.0608
      8 C          -2.7000    0.8040    0.0000 C.ar    1  LIG1        0.0107
      9 C          -1.8250    1.3080    0.0000 C.ar    1  LIG1       -0.0149
     10 C          -1.8250    2.3040    0.0000 C.3     1  LIG1        0.0313
     11 C          -3.5710   -0.7130    0.0000 C.3     1  LIG1        0.0521
     12 N           0.3040    2.0630    0.0000 N.pl3   1  LIG1       -0.1069
     13 C           1.5790    0.3000    0.0000 C.2     1  LIG1        0.2845
     14 C           2.0710   -0.5630    0.0000 C.ar    1  LIG1        0.0918
     15 C           3.0580   -0.5750    0.0000 C.ar    1  LIG1        0.1431
     16 O           3.5580    0.2880    0.0000 O.3     1  LIG1       -0.4753
     17 C           3.0710    1.1540    0.0000 C.3     1  LIG1        0.2055
     18 C           3.5670    2.0170    0.0000 C.3     1  LIG1        0.0512
     19 C           3.5580   -1.4380    0.0000 C.ar    1  LIG1        0.0371
     20 C           3.0580   -2.3000    0.0000 C.ar    1  LIG1        0.0031
     21 C           2.0630   -2.3000    0.0000 C.ar    1  LIG1        0.0004
     22 C           1.5630   -1.4250    0.0000 C.ar    1  LIG1        0.0078
     23 O           2.0920    1.1540    0.0000 O.2     1  LIG1       -0.2650
@<TRIPOS>BOND
     1     1     2   ar
     2     1     5   ar
     3     1    13   am
     4     2     3   ar
     5     2    12    1
     6     3     4   ar
     7     3     9   ar
     8     4     5   ar
     9     4     6   ar
    10     6     7   ar
    11     7     8   ar
    12     7    11    1
    13     8     9   ar
    14     9    10    1
    15    13    14    1
    16    13    23    2
    17    14    15   ar
    18    14    22   ar
    19    15    16    1
    20    15    19   ar
    21    16    17    1
    22    17    18    1
    23    19    20   ar
    24    20    21   ar
    25    21    22   ar
