@<TRIPOS>MOLECULE
37927_ChemDiv_C614-0966
 27 29 0 0 0
SMALL
GASTEIGER
Energy = 0

@<TRIPOS>ATOM
      1 N          -2.6920    0.7880    0.0000 N.ar    1  LIG1       -0.2961
      2 C          -2.1000    1.6000    0.0000 C.ar    1  LIG1        0.1222
      3 N          -2.6920    2.4080    0.0000 N.ar    1  LIG1       -0.2293
      4 C          -3.6420    2.1000    0.0000 C.ar    1  LIG1        0.1167
      5 C          -3.6420    1.1000    0.0000 C.ar    1  LIG1        0.1627
      6 N          -4.5080    0.5920    0.0000 N.ar    1  LIG1       -0.2252
      7 C          -5.3710    1.0920    0.0000 C.ar    1  LIG1        0.1006
      8 C          -5.3710    2.0920    0.0000 C.ar    1  LIG1        0.0223
      9 C          -4.5080    2.6000    0.0000 C.ar    1  LIG1        0.0238
     10 C          -1.1000    1.6000    0.0000 C.3     1  LIG1        0.0736
     11 C          -0.6000    0.7380    0.0000 C.3     1  LIG1        0.0947
     12 C           0.4000    0.7380    0.0000 C.2     1  LIG1        0.2418
     13 O           0.9000    1.6000    0.0000 O.2     1  LIG1       -0.2733
     14 N           0.9040   -0.1250    0.0000 N.am    1  LIG1       -0.2054
     15 C           1.9040   -0.1250    0.0000 C.3     1  LIG1        0.1151
     16 C           2.3880    0.7420    0.0000 C.3     1  LIG1        0.0234
     17 C           3.3880    0.7670    0.0000 C.3     1  LIG1        0.0018
     18 C           3.8750    1.6290    0.0000 C.3     1  LIG1        0.0001
     19 C           4.8750    1.6460    0.0000 C.3     1  LIG1        0.0000
     20 C           5.3670    2.5170    0.0000 C.3     1  LIG1        0.0000
     21 C          -2.3830   -0.1670    0.0000 C.3     1  LIG1        0.1353
     22 C          -3.0500   -0.9080    0.0000 C.ar    1  LIG1        0.0005
     23 C          -2.7380   -1.8540    0.0000 C.ar    1  LIG1       -0.0024
     24 C          -3.4040   -2.5960    0.0000 C.ar    1  LIG1       -0.0003
     25 C          -4.3880   -2.3960    0.0000 C.ar    1  LIG1       -0.0000
     26 C          -4.7000   -1.4420    0.0000 C.ar    1  LIG1       -0.0003
     27 C          -4.0250   -0.6960    0.0000 C.ar    1  LIG1       -0.0024
@<TRIPOS>BOND
     1     1     2   ar
     2     1     5   ar
     3     1    21    1
     4     2     3   ar
     5     2    10    1
     6     3     4   ar
     7     4     5   ar
     8     4     9   ar
     9     5     6   ar
    10     6     7   ar
    11     7     8   ar
    12     8     9   ar
    13    10    11    1
    14    11    12    1
    15    12    13    2
    16    12    14   am
    17    14    15    1
    18    15    16    1
    19    16    17    1
    20    17    18    1
    21    18    19    1
    22    19    20    1
    23    21    22    1
    24    22    23   ar
    25    22    27   ar
    26    23    24   ar
    27    24    25   ar
    28    25    26   ar
    29    26    27   ar
