@<TRIPOS>MOLECULE
37924_ChemDiv_E019-0117
 29 33 0 0 0
SMALL
GASTEIGER
Energy = 0

@<TRIPOS>ATOM
      1 C          -0.9170   -3.2000    0.0000 C.ar    1  LIG1        0.0652
      2 C          -0.3170   -4.0040    0.0000 C.ar    1  LIG1        0.0493
      3 S          -0.9000   -4.8210    0.0000 S.2     1  LIG1       -0.0855
      4 C          -1.8580   -4.5210    0.0000 C.ar    1  LIG1        0.0296
      5 C          -1.8670   -3.5170    0.0000 C.ar    1  LIG1        0.0112
      6 C          -2.7290   -3.0170    0.0000 C.ar    1  LIG1        0.0007
      7 C          -3.5920   -3.5170    0.0000 C.ar    1  LIG1        0.0000
      8 C          -3.5920   -4.5210    0.0000 C.ar    1  LIG1        0.0005
      9 C          -2.7290   -5.0170    0.0000 C.ar    1  LIG1        0.0065
     10 C           0.6710   -3.9000    0.0000 C.ar    1  LIG1        0.0851
     11 N           1.0790   -2.9880    0.0000 N.ar    1  LIG1       -0.1702
     12 N           0.4880   -2.1750    0.0000 N.ar    1  LIG1       -0.2074
     13 C          -0.5080   -2.2830    0.0000 C.ar    1  LIG1        0.2773
     14 O          -1.0960   -1.4750    0.0000 O.2     1  LIG1       -0.2655
     15 C           0.8960   -1.2670    0.0000 C.3     1  LIG1        0.2168
     16 C           0.6330   -0.2960    0.0000 C.2     1  LIG1        0.2667
     17 N           1.3330    0.4130    0.0000 N.am    1  LIG1       -0.1989
     18 C           1.0920    1.2880    0.0000 C.3     1  LIG1        0.1416
     19 C           1.7250    1.8830    0.0000 C.ar    1  LIG1        0.0027
     20 C           1.5000    2.7920    0.0000 C.ar    1  LIG1        0.0376
     21 C           2.1920    3.4710    0.0000 C.ar    1  LIG1        0.1762
     22 C           3.1330    3.2000    0.0000 C.ar    1  LIG1        0.1764
     23 O           3.5880    4.7380    0.0000 O.3     1  LIG1       -0.4346
     24 C           2.6500    5.0170    0.0000 C.3     1  LIG1        0.4294
     25 O           1.9710    4.3880    0.0000 O.3     1  LIG1       -0.4346
     26 C           3.3290    2.2580    0.0000 C.ar    1  LIG1        0.0399
     27 C           2.6670    1.6130    0.0000 C.ar    1  LIG1        0.0008
     28 O          -0.3330   -0.0420    0.0000 O.2     1  LIG1       -0.2711
     29 C           1.2580   -4.7130    0.0000 C.3     1  LIG1        0.0545
@<TRIPOS>BOND
     1     1     2   ar
     2     1     5   ar
     3     1    13   ar
     4     2     3   ar
     5     2    10   ar
     6     3     4   ar
     7     4     5   ar
     8     4     9   ar
     9     5     6   ar
    10     6     7   ar
    11     7     8   ar
    12     8     9   ar
    13    10    11   ar
    14    10    29    1
    15    11    12   ar
    16    12    13   ar
    17    12    15    1
    18    13    14    2
    19    15    16    1
    20    16    17   am
    21    16    28    2
    22    17    18    1
    23    18    19    1
    24    19    20   ar
    25    19    27   ar
    26    20    21   ar
    27    21    22   ar
    28    21    25    1
    29    22    23    1
    30    22    26   ar
    31    23    24    1
    32    24    25    1
    33    26    27   ar
