@<TRIPOS>MOLECULE
37921_ChemDiv_C614-0958
 21 23 0 0 0
SMALL
GASTEIGER
Energy = 0

@<TRIPOS>ATOM
      1 N          -0.4580    0.7880    0.0000 N.ar    1  LIG1       -0.2961
      2 C           0.1330    1.5960    0.0000 C.ar    1  LIG1        0.1220
      3 N          -0.4580    2.4080    0.0000 N.ar    1  LIG1       -0.2293
      4 C          -1.4040    2.0960    0.0000 C.ar    1  LIG1        0.1167
      5 C          -1.4040    1.0960    0.0000 C.ar    1  LIG1        0.1627
      6 N          -2.2710    0.5920    0.0000 N.ar    1  LIG1       -0.2252
      7 C          -3.1380    1.0880    0.0000 C.ar    1  LIG1        0.1006
      8 C          -3.1380    2.0960    0.0000 C.ar    1  LIG1        0.0223
      9 C          -2.2710    2.5920    0.0000 C.ar    1  LIG1        0.0238
     10 C           1.1330    1.5960    0.0000 C.3     1  LIG1        0.0699
     11 C           1.6330    0.7330    0.0000 C.3     1  LIG1        0.0496
     12 C           2.6330    0.7330    0.0000 C.2     1  LIG1        0.0508
     13 O           3.1330    1.6040    0.0000 O.co2   1  LIG1       -0.5492
     14 O           3.1330   -0.1380    0.0000 O.co2   1  LIG1       -0.5492
     15 C          -0.1500   -0.1670    0.0000 C.3     1  LIG1        0.1353
     16 C          -0.8130   -0.9080    0.0000 C.ar    1  LIG1        0.0005
     17 C          -0.5000   -1.8460    0.0000 C.ar    1  LIG1       -0.0024
     18 C          -1.1670   -2.5880    0.0000 C.ar    1  LIG1       -0.0003
     19 C          -2.1500   -2.3920    0.0000 C.ar    1  LIG1       -0.0000
     20 C          -2.4630   -1.4380    0.0000 C.ar    1  LIG1       -0.0003
     21 C          -1.7880   -0.6960    0.0000 C.ar    1  LIG1       -0.0024
@<TRIPOS>BOND
     1     1     2   ar
     2     1     5   ar
     3     1    15    1
     4     2     3   ar
     5     2    10    1
     6     3     4   ar
     7     4     5   ar
     8     4     9   ar
     9     5     6   ar
    10     6     7   ar
    11     7     8   ar
    12     8     9   ar
    13    10    11    1
    14    11    12    1
    15    12    13   ar
    16    12    14   ar
    17    15    16    1
    18    16    17   ar
    19    16    21   ar
    20    17    18   ar
    21    18    19   ar
    22    19    20   ar
    23    20    21   ar
