@<TRIPOS>MOLECULE
37925_ChemDiv_C614-0964
 26 28 0 0 0
SMALL
GASTEIGER
Energy = 0

@<TRIPOS>ATOM
      1 N          -2.4460    0.7880    0.0000 N.ar    1  LIG1       -0.2961
      2 C          -1.8540    1.6000    0.0000 C.ar    1  LIG1        0.1222
      3 N          -2.4460    2.4080    0.0000 N.ar    1  LIG1       -0.2293
      4 C          -3.3920    2.1000    0.0000 C.ar    1  LIG1        0.1167
      5 C          -3.3920    1.1000    0.0000 C.ar    1  LIG1        0.1627
      6 N          -4.2630    0.5920    0.0000 N.ar    1  LIG1       -0.2252
      7 C          -5.1250    1.0920    0.0000 C.ar    1  LIG1        0.1006
      8 C          -5.1250    2.0920    0.0000 C.ar    1  LIG1        0.0223
      9 C          -4.2630    2.6000    0.0000 C.ar    1  LIG1        0.0238
     10 C          -0.8540    1.6000    0.0000 C.3     1  LIG1        0.0736
     11 C          -0.3540    0.7380    0.0000 C.3     1  LIG1        0.0947
     12 C           0.6460    0.7380    0.0000 C.2     1  LIG1        0.2418
     13 O           1.1460    1.6000    0.0000 O.2     1  LIG1       -0.2733
     14 N           1.1500   -0.1250    0.0000 N.am    1  LIG1       -0.2053
     15 C           2.1500   -0.1250    0.0000 C.3     1  LIG1        0.1177
     16 C           2.6380    0.7420    0.0000 C.3     1  LIG1        0.0555
     17 C           3.6380    0.7670    0.0000 C.3     1  LIG1        0.1441
     18 O           4.1210    1.6290    0.0000 O.3     1  LIG1       -0.3510
     19 C           5.1210    1.6460    0.0000 C.3     1  LIG1        0.1741
     20 C          -2.1380   -0.1670    0.0000 C.3     1  LIG1        0.1353
     21 C          -2.8040   -0.9080    0.0000 C.ar    1  LIG1        0.0005
     22 C          -3.7750   -0.6960    0.0000 C.ar    1  LIG1       -0.0024
     23 C          -4.4540   -1.4420    0.0000 C.ar    1  LIG1       -0.0003
     24 C          -4.1420   -2.3960    0.0000 C.ar    1  LIG1       -0.0000
     25 C          -3.1540   -2.5960    0.0000 C.ar    1  LIG1       -0.0003
     26 C          -2.4880   -1.8540    0.0000 C.ar    1  LIG1       -0.0024
@<TRIPOS>BOND
     1     1     2   ar
     2     1     5   ar
     3     1    20    1
     4     2     3   ar
     5     2    10    1
     6     3     4   ar
     7     4     5   ar
     8     4     9   ar
     9     5     6   ar
    10     6     7   ar
    11     7     8   ar
    12     8     9   ar
    13    10    11    1
    14    11    12    1
    15    12    13    2
    16    12    14   am
    17    14    15    1
    18    15    16    1
    19    16    17    1
    20    17    18    1
    21    18    19    1
    22    20    21    1
    23    21    22   ar
    24    21    26   ar
    25    22    23   ar
    26    23    24   ar
    27    24    25   ar
    28    25    26   ar
