@<TRIPOS>MOLECULE
37926_ChemDiv_E019-0171
 25 27 0 0 0
SMALL
GASTEIGER
Energy = 0

@<TRIPOS>ATOM
      1 C          -0.4460   -3.4380    0.0000 C.ar    1  LIG1        0.0652
      2 C           0.1540   -4.2420    0.0000 C.ar    1  LIG1        0.0493
      3 S          -0.4290   -5.0580    0.0000 S.2     1  LIG1       -0.0855
      4 C          -1.3880   -4.7540    0.0000 C.ar    1  LIG1        0.0296
      5 C          -1.3960   -3.7540    0.0000 C.ar    1  LIG1        0.0112
      6 C          -2.2580   -3.2540    0.0000 C.ar    1  LIG1        0.0007
      7 C          -3.1210   -3.7540    0.0000 C.ar    1  LIG1        0.0000
      8 C          -3.1210   -4.7540    0.0000 C.ar    1  LIG1        0.0005
      9 C          -2.2580   -5.2540    0.0000 C.ar    1  LIG1        0.0065
     10 C           1.1420   -4.1380    0.0000 C.ar    1  LIG1        0.0851
     11 N           1.5500   -3.2250    0.0000 N.ar    1  LIG1       -0.1702
     12 N           0.9580   -2.4130    0.0000 N.ar    1  LIG1       -0.2074
     13 C          -0.0380   -2.5210    0.0000 C.ar    1  LIG1        0.2773
     14 O          -0.6250   -1.7130    0.0000 O.2     1  LIG1       -0.2655
     15 C           1.3670   -1.5000    0.0000 C.3     1  LIG1        0.2168
     16 C           1.1040   -0.5330    0.0000 C.2     1  LIG1        0.2664
     17 O           0.1380   -0.2790    0.0000 O.2     1  LIG1       -0.2712
     18 N           1.8040    0.1750    0.0000 N.am    1  LIG1       -0.2036
     19 C           1.5210    1.2250    0.0000 C.3     1  LIG1        0.1178
     20 C           2.0330    1.7830    0.0000 C.3     1  LIG1        0.0555
     21 C           1.8630    2.5670    0.0000 C.3     1  LIG1        0.1440
     22 O           2.6210    3.3500    0.0000 O.3     1  LIG1       -0.3537
     23 C           2.3330    4.4080    0.0000 C.3     1  LIG1        0.1422
     24 C           3.1170    5.2540    0.0000 C.3     1  LIG1        0.0346
     25 C           1.7290   -4.9460    0.0000 C.3     1  LIG1        0.0545
@<TRIPOS>BOND
     1     1     2   ar
     2     1     5   ar
     3     1    13   ar
     4     2     3   ar
     5     2    10   ar
     6     3     4   ar
     7     4     5   ar
     8     4     9   ar
     9     5     6   ar
    10     6     7   ar
    11     7     8   ar
    12     8     9   ar
    13    10    11   ar
    14    10    25    1
    15    11    12   ar
    16    12    13   ar
    17    12    15    1
    18    13    14    2
    19    15    16    1
    20    16    17    2
    21    16    18   am
    22    18    19    1
    23    19    20    1
    24    20    21    1
    25    21    22    1
    26    22    23    1
    27    23    24    1
