@<TRIPOS>MOLECULE
37930_ChemDiv_E019-0528
 35 39 0 0 0
SMALL
GASTEIGER
Energy = 0

@<TRIPOS>ATOM
      1 C           1.1250   -3.0710    0.0000 C.ar    1  LIG1        0.0652
      2 C           1.5330   -2.1500    0.0000 C.ar    1  LIG1        0.2772
      3 N           2.5330   -2.0460    0.0000 N.ar    1  LIG1       -0.2099
      4 N           3.1210   -2.8580    0.0000 N.ar    1  LIG1       -0.1703
      5 C           2.7130   -3.7710    0.0000 C.ar    1  LIG1        0.0851
      6 C           1.7250   -3.8750    0.0000 C.ar    1  LIG1        0.0493
      7 S           1.1420   -4.6920    0.0000 S.2     1  LIG1       -0.0855
      8 C           0.1830   -4.3920    0.0000 C.ar    1  LIG1        0.0296
      9 C           0.1710   -3.3880    0.0000 C.ar    1  LIG1        0.0112
     10 C          -0.6920   -2.8880    0.0000 C.ar    1  LIG1        0.0007
     11 C          -1.5540   -3.3880    0.0000 C.ar    1  LIG1        0.0000
     12 C          -1.5540   -4.3920    0.0000 C.ar    1  LIG1        0.0005
     13 C          -0.6920   -4.8880    0.0000 C.ar    1  LIG1        0.0065
     14 C           3.3040   -4.5830    0.0000 C.3     1  LIG1        0.0545
     15 C           2.9420   -1.1330    0.0000 C.3     1  LIG1        0.1857
     16 C           2.6790   -0.1630    0.0000 C.2     1  LIG1        0.2638
     17 O           1.7080    0.0920    0.0000 O.2     1  LIG1       -0.2712
     18 N           3.3790    0.5460    0.0000 N.am    1  LIG1       -0.2036
     19 C           3.1080    1.5210    0.0000 C.3     1  LIG1        0.1214
     20 C           2.1500    1.7460    0.0000 C.3     1  LIG1        0.0861
     21 C           1.8750    2.7170    0.0000 C.3     1  LIG1        0.1404
     22 N           0.9000    2.9710    0.0000 N.4     1  LIG1        0.3776
     23 C           0.6250    3.9250    0.0000 C.3     1  LIG1        0.1446
     24 C          -0.3420    4.1790    0.0000 C.3     1  LIG1        0.1194
     25 C          -1.0380    3.4670    0.0000 C.3     1  LIG1        0.0990
     26 N          -2.0080    3.7130    0.0000 N.4     1  LIG1        0.3733
     27 C          -2.7040    2.9880    0.0000 C.3     1  LIG1        0.1383
     28 C          -3.6670    3.2290    0.0000 C.3     1  LIG1        0.0629
     29 C          -3.9380    4.1880    0.0000 C.3     1  LIG1        0.0123
     30 C          -3.2460    4.8880    0.0000 C.3     1  LIG1        0.0629
     31 C          -2.2790    4.6630    0.0000 C.3     1  LIG1        0.1383
     32 C          -0.7670    2.5040    0.0000 C.3     1  LIG1        0.1194
     33 C           0.2000    2.2540    0.0000 C.3     1  LIG1        0.1446
     34 C           3.9330   -1.2080    0.0000 C.3     1  LIG1        0.0364
     35 O           0.9420   -1.3460    0.0000 O.2     1  LIG1       -0.2655
@<TRIPOS>BOND
     1     1     2   ar
     2     1     6   ar
     3     1     9   ar
     4     2     3   ar
     5     2    35    2
     6     3     4   ar
     7     3    15    1
     8     4     5   ar
     9     5     6   ar
    10     5    14    1
    11     6     7   ar
    12     7     8   ar
    13     8     9   ar
    14     8    13   ar
    15     9    10   ar
    16    10    11   ar
    17    11    12   ar
    18    12    13   ar
    19    15    16    1
    20    15    34    1
    21    16    17    2
    22    16    18   am
    23    18    19    1
    24    19    20    1
    25    20    21    1
    26    21    22    1
    27    22    23    1
    28    22    33    1
    29    23    24    1
    30    24    25    1
    31    25    26    1
    32    25    32    1
    33    26    27    1
    34    26    31    1
    35    27    28    1
    36    28    29    1
    37    29    30    1
    38    30    31    1
    39    32    33    1
