@<TRIPOS>MOLECULE
37932_ChemDiv_E019-0629
 28 31 0 0 0
SMALL
GASTEIGER
Energy = 0

@<TRIPOS>ATOM
      1 C          -1.3420   -1.9540    0.0000 C.ar    1  LIG1        0.0652
      2 C          -0.9330   -1.0380    0.0000 C.ar    1  LIG1        0.2772
      3 N           0.0670   -0.9330    0.0000 N.ar    1  LIG1       -0.2099
      4 N           0.6540   -1.7460    0.0000 N.ar    1  LIG1       -0.1703
      5 C           0.2460   -2.6580    0.0000 C.ar    1  LIG1        0.0851
      6 C          -0.7420   -2.7630    0.0000 C.ar    1  LIG1        0.0493
      7 S          -1.3250   -3.5790    0.0000 S.2     1  LIG1       -0.0855
      8 C          -2.2830   -3.2750    0.0000 C.ar    1  LIG1        0.0296
      9 C          -2.2920   -2.2750    0.0000 C.ar    1  LIG1        0.0112
     10 C          -3.1540   -1.7750    0.0000 C.ar    1  LIG1        0.0007
     11 C          -4.0170   -2.2750    0.0000 C.ar    1  LIG1        0.0000
     12 C          -4.0170   -3.2750    0.0000 C.ar    1  LIG1        0.0005
     13 C          -3.1540   -3.7750    0.0000 C.ar    1  LIG1        0.0065
     14 C           0.8380   -3.4670    0.0000 C.3     1  LIG1        0.0545
     15 C           0.4750   -0.0210    0.0000 C.3     1  LIG1        0.1841
     16 C           0.2130    0.9460    0.0000 C.2     1  LIG1        0.2485
     17 N           0.9130    1.6580    0.0000 N.am    1  LIG1       -0.2665
     18 C           1.8790    1.4130    0.0000 C.3     1  LIG1        0.1565
     19 C           2.5880    2.1000    0.0000 C.3     1  LIG1        0.1605
     20 N           2.3290    3.0710    0.0000 N.4     1  LIG1        0.3799
     21 C           1.3630    3.3250    0.0000 C.3     1  LIG1        0.1605
     22 C           0.6540    2.6170    0.0000 C.3     1  LIG1        0.1565
     23 C           3.0380    3.7790    0.0000 C.3     1  LIG1        0.1389
     24 C           4.0130    3.5210    0.0000 C.3     1  LIG1        0.0688
     25 O          -0.7540    1.2040    0.0000 O.2     1  LIG1       -0.2728
     26 C           1.4670   -0.0960    0.0000 C.3     1  LIG1        0.0339
     27 C           1.9540   -0.9580    0.0000 C.3     1  LIG1        0.0026
     28 O          -1.5210   -0.2330    0.0000 O.2     1  LIG1       -0.2655
@<TRIPOS>BOND
     1     1     2   ar
     2     1     6   ar
     3     1     9   ar
     4     2     3   ar
     5     2    28    2
     6     3     4   ar
     7     3    15    1
     8     4     5   ar
     9     5     6   ar
    10     5    14    1
    11     6     7   ar
    12     7     8   ar
    13     8     9   ar
    14     8    13   ar
    15     9    10   ar
    16    10    11   ar
    17    11    12   ar
    18    12    13   ar
    19    15    16    1
    20    15    26    1
    21    16    17   am
    22    16    25    2
    23    17    18    1
    24    17    22    1
    25    18    19    1
    26    19    20    1
    27    20    21    1
    28    20    23    1
    29    21    22    1
    30    23    24    1
    31    26    27    1
