@<TRIPOS>MOLECULE
37937_ChemDiv_C682-0874
 33 37 0 0 0
SMALL
GASTEIGER
Energy = 0

@<TRIPOS>ATOM
      1 C           0.3380    1.7670    0.0000 C.ar    1  LIG1        0.1661
      2 S           1.2000    2.2500    0.0000 S.O2    1  LIG1        0.0319
      3 C           2.0750    2.7500    0.0000 C.ar    1  LIG1        0.1104
      4 C           2.0750    3.7460    0.0000 C.ar    1  LIG1        0.0184
      5 C           2.9380    4.2420    0.0000 C.ar    1  LIG1       -0.0029
      6 C           3.8170    3.7460    0.0000 C.ar    1  LIG1       -0.0218
      7 C           3.8000    2.7500    0.0000 C.ar    1  LIG1       -0.0029
      8 C           2.9380    2.2500    0.0000 C.ar    1  LIG1        0.0184
      9 C           4.6750    4.2420    0.0000 C.3     1  LIG1        0.0310
     10 O           0.7000    3.1250    0.0000 O.2     1  LIG1       -0.1641
     11 O           1.7000    1.3880    0.0000 O.2     1  LIG1       -0.1641
     12 C          -0.5380    2.2500    0.0000 C.ar    1  LIG1        0.2159
     13 C          -1.4000    1.7670    0.0000 C.ar    1  LIG1        0.0593
     14 C          -1.4000    0.7540    0.0000 C.ar    1  LIG1        0.0666
     15 N          -0.5380    0.2540    0.0000 N.ar    1  LIG1       -0.3205
     16 C           0.3380    0.7540    0.0000 C.ar    1  LIG1        0.0984
     17 C          -0.5380   -0.7330    0.0000 C.3     1  LIG1        0.1329
     18 C           0.3210   -1.2330    0.0000 C.ar    1  LIG1        0.0034
     19 C           0.3080   -2.2290    0.0000 C.ar    1  LIG1        0.0345
     20 C           1.1710   -2.7380    0.0000 C.ar    1  LIG1        0.1385
     21 O           1.1710   -3.7420    0.0000 O.3     1  LIG1       -0.4714
     22 C           2.0290   -4.2420    0.0000 C.3     1  LIG1        0.2525
     23 C           2.0420   -2.2420    0.0000 C.ar    1  LIG1        0.0369
     24 C           2.0420   -1.2330    0.0000 C.ar    1  LIG1        0.0029
     25 C           1.1790   -0.7330    0.0000 C.ar    1  LIG1       -0.0022
     26 C          -2.2630    0.2540    0.0000 C.ar    1  LIG1        0.0575
     27 C          -3.1380    0.7540    0.0000 C.ar    1  LIG1        0.1779
     28 C          -3.1250    1.7670    0.0000 C.ar    1  LIG1        0.1766
     29 C          -2.2630    2.2500    0.0000 C.ar    1  LIG1        0.0449
     30 O          -4.0750    2.0790    0.0000 O.3     1  LIG1       -0.4346
     31 C          -4.6790    1.2670    0.0000 C.3     1  LIG1        0.4294
     32 O          -4.0920    0.4500    0.0000 O.3     1  LIG1       -0.4346
     33 O          -0.5380    3.2460    0.0000 O.2     1  LIG1       -0.2851
@<TRIPOS>BOND
     1     1     2    1
     2     1    12   ar
     3     1    16   ar
     4     2     3    1
     5     2    10    2
     6     2    11    2
     7     3     4   ar
     8     3     8   ar
     9     4     5   ar
    10     5     6   ar
    11     6     7   ar
    12     6     9    1
    13     7     8   ar
    14    12    13   ar
    15    12    33    2
    16    13    14   ar
    17    13    29   ar
    18    14    15   ar
    19    14    26   ar
    20    15    16   ar
    21    15    17    1
    22    17    18    1
    23    18    19   ar
    24    18    25   ar
    25    19    20   ar
    26    20    21    1
    27    20    23   ar
    28    21    22    1
    29    23    24   ar
    30    24    25   ar
    31    26    27   ar
    32    27    28   ar
    33    27    32    1
    34    28    29   ar
    35    28    30    1
    36    30    31    1
    37    31    32    1
