@<TRIPOS>MOLECULE
37936_ChemDiv_E019-1064
 33 38 0 0 0
SMALL
GASTEIGER
Energy = 0

@<TRIPOS>ATOM
      1 C          -1.8000   -3.0580    0.0000 C.ar    1  LIG1        0.0652
      2 C          -1.2000   -3.8750    0.0000 C.ar    1  LIG1        0.0493
      3 S          -1.7830   -4.6920    0.0000 S.2     1  LIG1       -0.0855
      4 C          -2.7420   -4.3880    0.0000 C.ar    1  LIG1        0.0296
      5 C          -2.7500   -3.3790    0.0000 C.ar    1  LIG1        0.0112
      6 C          -3.6130   -2.8790    0.0000 C.ar    1  LIG1        0.0007
      7 C          -4.4750   -3.3880    0.0000 C.ar    1  LIG1        0.0000
      8 C          -4.4750   -4.3880    0.0000 C.ar    1  LIG1        0.0005
      9 C          -3.6130   -4.8830    0.0000 C.ar    1  LIG1        0.0065
     10 C          -0.2130   -3.7710    0.0000 C.ar    1  LIG1        0.0851
     11 N           0.1960   -2.8500    0.0000 N.ar    1  LIG1       -0.1707
     12 N          -0.3920   -2.0420    0.0000 N.ar    1  LIG1       -0.2169
     13 C          -1.3920   -2.1460    0.0000 C.ar    1  LIG1        0.2768
     14 O          -1.9790   -1.3380    0.0000 O.2     1  LIG1       -0.2655
     15 C           0.0170   -1.1250    0.0000 C.3     1  LIG1        0.1312
     16 C           1.0080   -1.2000    0.0000 C.3     1  LIG1        0.0361
     17 C           1.4960   -0.3380    0.0000 C.3     1  LIG1        0.0889
     18 C           2.4960   -0.3380    0.0000 C.2     1  LIG1        0.2414
     19 N           2.9960    0.5290    0.0000 N.am    1  LIG1       -0.2072
     20 C           2.4960    1.3960    0.0000 C.3     1  LIG1        0.0953
     21 C           2.9750    2.2580    0.0000 C.3     1  LIG1        0.0185
     22 C           3.9630    2.0880    0.0000 C.3     1  LIG1        0.0017
     23 C           4.4710    2.9170    0.0000 C.3     1  LIG1        0.0001
     24 C           3.7960    3.7250    0.0000 C.3     1  LIG1        0.0000
     25 C           2.7830    3.8920    0.0000 C.3     1  LIG1        0.0001
     26 C           2.2670    3.0540    0.0000 C.3     1  LIG1        0.0017
     27 C           2.6880    4.8830    0.0000 C.3     1  LIG1        0.0000
     28 C           3.3580    3.9830    0.0000 C.3     1  LIG1        0.0001
     29 C           2.9130    3.2040    0.0000 C.3     1  LIG1        0.0017
     30 C           4.3250    3.8290    0.0000 C.3     1  LIG1        0.0000
     31 C           1.4830    1.3790    0.0000 C.3     1  LIG1        0.0234
     32 O           2.9960   -1.2000    0.0000 O.2     1  LIG1       -0.2733
     33 C           0.3790   -4.5710    0.0000 C.3     1  LIG1        0.0545
@<TRIPOS>BOND
     1     1     2   ar
     2     1     5   ar
     3     1    13   ar
     4     2     3   ar
     5     2    10   ar
     6     3     4   ar
     7     4     5   ar
     8     4     9   ar
     9     5     6   ar
    10     6     7   ar
    11     7     8   ar
    12     8     9   ar
    13    10    11   ar
    14    10    33    1
    15    11    12   ar
    16    12    13   ar
    17    12    15    1
    18    13    14    2
    19    15    16    1
    20    16    17    1
    21    17    18    1
    22    18    19   am
    23    18    32    2
    24    19    20    1
    25    20    21    1
    26    20    31    1
    27    21    22    1
    28    21    26    1
    29    21    29    1
    30    22    23    1
    31    23    24    1
    32    23    30    1
    33    24    25    1
    34    25    26    1
    35    25    27    1
    36    27    28    1
    37    28    29    1
    38    28    30    1
