@<TRIPOS>MOLECULE
37933_ChemDiv_C614-0969
 26 29 0 0 0
SMALL
GASTEIGER
Energy = 0

@<TRIPOS>ATOM
      1 N          -1.2080    0.7960    0.0000 N.ar    1  LIG1       -0.2961
      2 C          -0.6170    1.5960    0.0000 C.ar    1  LIG1        0.1222
      3 N          -1.2080    2.4170    0.0000 N.ar    1  LIG1       -0.2293
      4 C          -2.1580    2.0960    0.0000 C.ar    1  LIG1        0.1167
      5 C          -2.1580    1.0960    0.0000 C.ar    1  LIG1        0.1627
      6 N          -3.0250    0.5960    0.0000 N.ar    1  LIG1       -0.2252
      7 C          -3.8880    1.0960    0.0000 C.ar    1  LIG1        0.1006
      8 C          -3.8880    2.0960    0.0000 C.ar    1  LIG1        0.0223
      9 C          -3.0250    2.5960    0.0000 C.ar    1  LIG1        0.0238
     10 C           0.3830    1.5960    0.0000 C.3     1  LIG1        0.0735
     11 C           0.8790    0.7330    0.0000 C.3     1  LIG1        0.0932
     12 C           1.8790    0.7330    0.0000 C.2     1  LIG1        0.2262
     13 N           2.3880   -0.1290    0.0000 N.am    1  LIG1       -0.2744
     14 C           1.8880   -0.9920    0.0000 C.3     1  LIG1        0.1255
     15 C           2.3790   -1.8540    0.0000 C.3     1  LIG1        0.1636
     16 O           3.3830   -1.8540    0.0000 O.3     1  LIG1       -0.3501
     17 C           3.8830   -0.9920    0.0000 C.3     1  LIG1        0.1636
     18 C           3.3830   -0.1250    0.0000 C.3     1  LIG1        0.1255
     19 O           2.3790    1.6000    0.0000 O.2     1  LIG1       -0.2749
     20 C          -0.9000   -0.1580    0.0000 C.3     1  LIG1        0.1353
     21 C          -1.5670   -0.9000    0.0000 C.ar    1  LIG1        0.0005
     22 C          -1.2540   -1.8500    0.0000 C.ar    1  LIG1       -0.0024
     23 C          -1.9210   -2.5920    0.0000 C.ar    1  LIG1       -0.0003
     24 C          -2.9040   -2.3880    0.0000 C.ar    1  LIG1       -0.0000
     25 C          -3.2170   -1.4330    0.0000 C.ar    1  LIG1       -0.0003
     26 C          -2.5420   -0.6920    0.0000 C.ar    1  LIG1       -0.0024
@<TRIPOS>BOND
     1     1     2   ar
     2     1     5   ar
     3     1    20    1
     4     2     3   ar
     5     2    10    1
     6     3     4   ar
     7     4     5   ar
     8     4     9   ar
     9     5     6   ar
    10     6     7   ar
    11     7     8   ar
    12     8     9   ar
    13    10    11    1
    14    11    12    1
    15    12    13   am
    16    12    19    2
    17    13    14    1
    18    13    18    1
    19    14    15    1
    20    15    16    1
    21    16    17    1
    22    17    18    1
    23    20    21    1
    24    21    22   ar
    25    21    26   ar
    26    22    23   ar
    27    23    24   ar
    28    24    25   ar
    29    25    26   ar
