@<TRIPOS>MOLECULE
37935_ChemDiv_C614-0971
 30 33 0 0 0
SMALL
GASTEIGER
Energy = 0

@<TRIPOS>ATOM
      1 N          -2.7080    1.2880    0.0000 N.ar    1  LIG1       -0.2961
      2 C          -2.1170    2.0880    0.0000 C.ar    1  LIG1        0.1222
      3 N          -2.7080    2.9080    0.0000 N.ar    1  LIG1       -0.2293
      4 C          -3.6540    2.5880    0.0000 C.ar    1  LIG1        0.1167
      5 C          -3.6540    1.5880    0.0000 C.ar    1  LIG1        0.1627
      6 N          -4.5250    1.0880    0.0000 N.ar    1  LIG1       -0.2252
      7 C          -5.3880    1.5880    0.0000 C.ar    1  LIG1        0.1006
      8 C          -5.3880    2.5880    0.0000 C.ar    1  LIG1        0.0223
      9 C          -4.5250    3.0880    0.0000 C.ar    1  LIG1        0.0238
     10 C          -1.1170    2.0880    0.0000 C.3     1  LIG1        0.0736
     11 C          -0.6170    1.2250    0.0000 C.3     1  LIG1        0.0947
     12 C           0.3830    1.2250    0.0000 C.2     1  LIG1        0.2418
     13 O           0.8790    2.0960    0.0000 O.2     1  LIG1       -0.2733
     14 N           0.8880    0.3630    0.0000 N.am    1  LIG1       -0.2054
     15 C           1.8830    0.3670    0.0000 C.3     1  LIG1        0.1155
     16 C           2.3830   -0.5000    0.0000 C.3     1  LIG1        0.0281
     17 C           3.3830   -0.4960    0.0000 C.3     1  LIG1        0.0282
     18 C           3.8830   -1.3580    0.0000 C.ar    1  LIG1       -0.0221
     19 C           3.3830   -2.2250    0.0000 C.ar    1  LIG1       -0.0043
     20 C           3.8830   -3.0830    0.0000 C.ar    1  LIG1       -0.0003
     21 C           4.8920   -3.0830    0.0000 C.ar    1  LIG1       -0.0000
     22 C           5.3830   -2.2130    0.0000 C.ar    1  LIG1       -0.0003
     23 C           4.8830   -1.3460    0.0000 C.ar    1  LIG1       -0.0043
     24 C          -2.4000    0.3330    0.0000 C.3     1  LIG1        0.1353
     25 C          -3.0670   -0.4080    0.0000 C.ar    1  LIG1        0.0005
     26 C          -2.7540   -1.3580    0.0000 C.ar    1  LIG1       -0.0024
     27 C          -3.4170   -2.1000    0.0000 C.ar    1  LIG1       -0.0003
     28 C          -4.4040   -1.8920    0.0000 C.ar    1  LIG1       -0.0000
     29 C          -4.7170   -0.9380    0.0000 C.ar    1  LIG1       -0.0003
     30 C          -4.0420   -0.1960    0.0000 C.ar    1  LIG1       -0.0024
@<TRIPOS>BOND
     1     1     2   ar
     2     1     5   ar
     3     1    24    1
     4     2     3   ar
     5     2    10    1
     6     3     4   ar
     7     4     5   ar
     8     4     9   ar
     9     5     6   ar
    10     6     7   ar
    11     7     8   ar
    12     8     9   ar
    13    10    11    1
    14    11    12    1
    15    12    13    2
    16    12    14   am
    17    14    15    1
    18    15    16    1
    19    16    17    1
    20    17    18    1
    21    18    19   ar
    22    18    23   ar
    23    19    20   ar
    24    20    21   ar
    25    21    22   ar
    26    22    23   ar
    27    24    25    1
    28    25    26   ar
    29    25    30   ar
    30    26    27   ar
    31    27    28   ar
    32    28    29   ar
    33    29    30   ar
