@<TRIPOS>MOLECULE
37934_ChemDiv_E019-0800
 31 34 0 0 0
SMALL
GASTEIGER
Energy = 0

@<TRIPOS>ATOM
      1 C          -0.3130   -2.7210    0.0000 C.ar    1  LIG1        0.0652
      2 C           0.0960   -1.8000    0.0000 C.ar    1  LIG1        0.2772
      3 N           1.0960   -1.6960    0.0000 N.ar    1  LIG1       -0.2099
      4 N           1.6830   -2.5080    0.0000 N.ar    1  LIG1       -0.1703
      5 C           1.2750   -3.4210    0.0000 C.ar    1  LIG1        0.0851
      6 C           0.2880   -3.5250    0.0000 C.ar    1  LIG1        0.0493
      7 S          -0.2960   -4.3420    0.0000 S.2     1  LIG1       -0.0855
      8 C          -1.2540   -4.0370    0.0000 C.ar    1  LIG1        0.0296
      9 C          -1.2630   -3.0380    0.0000 C.ar    1  LIG1        0.0112
     10 C          -2.1250   -2.5380    0.0000 C.ar    1  LIG1        0.0007
     11 C          -2.9880   -3.0380    0.0000 C.ar    1  LIG1        0.0000
     12 C          -2.9880   -4.0370    0.0000 C.ar    1  LIG1        0.0005
     13 C          -2.1250   -4.5380    0.0000 C.ar    1  LIG1        0.0065
     14 C           1.8670   -4.2290    0.0000 C.3     1  LIG1        0.0545
     15 C           1.5000   -0.7830    0.0000 C.3     1  LIG1        0.1856
     16 C           1.2420    0.1830    0.0000 C.2     1  LIG1        0.2638
     17 O           0.2710    0.4420    0.0000 O.2     1  LIG1       -0.2712
     18 N           1.9420    0.8960    0.0000 N.am    1  LIG1       -0.2036
     19 C           1.6790    1.8500    0.0000 C.3     1  LIG1        0.1214
     20 C           0.7170    2.1080    0.0000 C.3     1  LIG1        0.0861
     21 C           0.4580    3.0750    0.0000 C.3     1  LIG1        0.1401
     22 N          -0.5080    3.3290    0.0000 N.4     1  LIG1        0.3730
     23 C          -1.2080    2.6080    0.0000 C.3     1  LIG1        0.0871
     24 C          -0.9460    1.6420    0.0000 C.3     1  LIG1        0.0626
     25 C          -2.1880    2.8630    0.0000 C.3     1  LIG1        0.0569
     26 C          -2.4420    3.8330    0.0000 C.3     1  LIG1        0.0120
     27 C          -1.7380    4.5380    0.0000 C.3     1  LIG1        0.0629
     28 C          -0.7790    4.2790    0.0000 C.3     1  LIG1        0.1383
     29 C           2.4960   -0.8580    0.0000 C.3     1  LIG1        0.0339
     30 C           2.9830   -1.7210    0.0000 C.3     1  LIG1        0.0026
     31 O          -0.4920   -0.9960    0.0000 O.2     1  LIG1       -0.2655
@<TRIPOS>BOND
     1     1     2   ar
     2     1     6   ar
     3     1     9   ar
     4     2     3   ar
     5     2    31    2
     6     3     4   ar
     7     3    15    1
     8     4     5   ar
     9     5     6   ar
    10     5    14    1
    11     6     7   ar
    12     7     8   ar
    13     8     9   ar
    14     8    13   ar
    15     9    10   ar
    16    10    11   ar
    17    11    12   ar
    18    12    13   ar
    19    15    16    1
    20    15    29    1
    21    16    17    2
    22    16    18   am
    23    18    19    1
    24    19    20    1
    25    20    21    1
    26    21    22    1
    27    22    23    1
    28    22    28    1
    29    23    24    1
    30    23    25    1
    31    25    26    1
    32    26    27    1
    33    27    28    1
    34    29    30    1
