@<TRIPOS>MOLECULE
37931_ChemDiv_C614-0968
 25 27 0 0 0
SMALL
GASTEIGER
Energy = 0

@<TRIPOS>ATOM
      1 N          -1.9420    0.7960    0.0000 N.ar    1  LIG1       -0.2961
      2 C          -1.3540    1.5960    0.0000 C.ar    1  LIG1        0.1222
      3 N          -1.9420    2.4130    0.0000 N.ar    1  LIG1       -0.2293
      4 C          -2.8920    2.0960    0.0000 C.ar    1  LIG1        0.1167
      5 C          -2.8920    1.0960    0.0000 C.ar    1  LIG1        0.1627
      6 N          -3.7580    0.5960    0.0000 N.ar    1  LIG1       -0.2252
      7 C          -4.6210    1.0960    0.0000 C.ar    1  LIG1        0.1006
      8 C          -4.6210    2.0960    0.0000 C.ar    1  LIG1        0.0223
      9 C          -3.7580    2.5960    0.0000 C.ar    1  LIG1        0.0238
     10 C          -0.3540    1.5960    0.0000 C.3     1  LIG1        0.0736
     11 C           0.1460    0.7330    0.0000 C.3     1  LIG1        0.0947
     12 C           1.1460    0.7330    0.0000 C.2     1  LIG1        0.2418
     13 O           1.6460    1.6000    0.0000 O.2     1  LIG1       -0.2733
     14 N           1.6500   -0.1290    0.0000 N.am    1  LIG1       -0.2054
     15 C           2.6500   -0.1250    0.0000 C.3     1  LIG1        0.1151
     16 C           3.1330    0.7500    0.0000 C.3     1  LIG1        0.0234
     17 C           4.1330    0.7630    0.0000 C.3     1  LIG1        0.0018
     18 C           4.6170    1.6330    0.0000 C.3     1  LIG1        0.0001
     19 C          -1.6330   -0.1580    0.0000 C.3     1  LIG1        0.1353
     20 C          -2.3000   -0.9000    0.0000 C.ar    1  LIG1        0.0005
     21 C          -1.9880   -1.8500    0.0000 C.ar    1  LIG1       -0.0024
     22 C          -2.6540   -2.5920    0.0000 C.ar    1  LIG1       -0.0003
     23 C          -3.6500   -2.3830    0.0000 C.ar    1  LIG1       -0.0000
     24 C          -3.9500   -1.4290    0.0000 C.ar    1  LIG1       -0.0003
     25 C          -3.2750   -0.6880    0.0000 C.ar    1  LIG1       -0.0024
@<TRIPOS>BOND
     1     1     2   ar
     2     1     5   ar
     3     1    19    1
     4     2     3   ar
     5     2    10    1
     6     3     4   ar
     7     4     5   ar
     8     4     9   ar
     9     5     6   ar
    10     6     7   ar
    11     7     8   ar
    12     8     9   ar
    13    10    11    1
    14    11    12    1
    15    12    13    2
    16    12    14   am
    17    14    15    1
    18    15    16    1
    19    16    17    1
    20    17    18    1
    21    19    20    1
    22    20    21   ar
    23    20    25   ar
    24    21    22   ar
    25    22    23   ar
    26    23    24   ar
    27    24    25   ar
