@<TRIPOS>MOLECULE
37941_ChemDiv_C682-1514
 25 27 0 0 0
SMALL
GASTEIGER
Energy = 0

@<TRIPOS>ATOM
      1 C           0.4210    0.2500    0.0000 C.ar    1  LIG1        0.1661
      2 S           1.3000    0.7500    0.0000 S.O2    1  LIG1        0.0319
      3 C           2.1580    1.2500    0.0000 C.ar    1  LIG1        0.1105
      4 C           2.1750    2.2460    0.0000 C.ar    1  LIG1        0.0196
      5 C           3.0380    2.7460    0.0000 C.ar    1  LIG1        0.0127
      6 C           3.9000    2.2460    0.0000 C.ar    1  LIG1        0.0578
      7 C           3.9000    1.2500    0.0000 C.ar    1  LIG1        0.0127
      8 C           3.0210    0.7500    0.0000 C.ar    1  LIG1        0.0196
      9 CL          4.7750    2.7460    0.0000 Cl      1  LIG1       -0.0822
     10 O           1.7960   -0.1130    0.0000 O.2     1  LIG1       -0.1641
     11 O           0.8000    1.6290    0.0000 O.2     1  LIG1       -0.1641
     12 C          -0.4420    0.7500    0.0000 C.ar    1  LIG1        0.2158
     13 C          -1.3040    0.2500    0.0000 C.ar    1  LIG1        0.0558
     14 C          -1.3040   -0.7460    0.0000 C.ar    1  LIG1        0.0630
     15 N          -0.4420   -1.2460    0.0000 N.ar    1  LIG1       -0.3248
     16 C           0.4210   -0.7460    0.0000 C.ar    1  LIG1        0.0981
     17 C          -0.4420   -2.2420    0.0000 C.3     1  LIG1        0.1062
     18 C           0.4210   -2.7420    0.0000 C.3     1  LIG1        0.0265
     19 C          -2.1630   -1.2460    0.0000 C.ar    1  LIG1        0.0170
     20 C          -3.0420   -0.7460    0.0000 C.ar    1  LIG1       -0.0028
     21 C          -3.0420    0.2500    0.0000 C.ar    1  LIG1       -0.0220
     22 C          -2.1630    0.7500    0.0000 C.ar    1  LIG1        0.0004
     23 C          -3.9130    0.7670    0.0000 C.3     1  LIG1        0.0264
     24 C          -4.7790    0.2670    0.0000 C.3     1  LIG1        0.0050
     25 O          -0.4420    1.7500    0.0000 O.2     1  LIG1       -0.2851
@<TRIPOS>BOND
     1     1     2    1
     2     1    12   ar
     3     1    16   ar
     4     2     3    1
     5     2    10    2
     6     2    11    2
     7     3     4   ar
     8     3     8   ar
     9     4     5   ar
    10     5     6   ar
    11     6     7   ar
    12     6     9    1
    13     7     8   ar
    14    12    13   ar
    15    12    25    2
    16    13    14   ar
    17    13    22   ar
    18    14    15   ar
    19    14    19   ar
    20    15    16   ar
    21    15    17    1
    22    17    18    1
    23    19    20   ar
    24    20    21   ar
    25    21    22   ar
    26    21    23    1
    27    23    24    1
