@<TRIPOS>MOLECULE
37948_ChemDiv_C660-0295
 37 41 0 0 0
SMALL
GASTEIGER
Energy = 0

@<TRIPOS>ATOM
      1 N          -2.5960   -0.9960    0.0000 N.ar    1  LIG1       -0.2074
      2 N          -2.5960   -1.9920    0.0000 N.ar    1  LIG1       -0.1704
      3 C          -3.4670   -2.4920    0.0000 C.ar    1  LIG1        0.0832
      4 C          -4.3290   -1.9920    0.0000 C.ar    1  LIG1        0.0202
      5 C          -4.3290   -0.9960    0.0000 C.ar    1  LIG1        0.0588
      6 C          -3.4670   -0.4960    0.0000 C.ar    1  LIG1        0.2768
      7 O          -3.4670    0.5040    0.0000 O.2     1  LIG1       -0.2655
      8 C          -5.1920   -0.4960    0.0000 C.ar    1  LIG1        0.0048
      9 C          -6.0500   -0.9960    0.0000 C.ar    1  LIG1        0.0002
     10 C          -6.0500   -1.9920    0.0000 C.ar    1  LIG1        0.0000
     11 C          -5.1920   -2.4920    0.0000 C.ar    1  LIG1        0.0014
     12 C          -3.4670   -3.4920    0.0000 C.3     1  LIG1        0.0739
     13 C          -2.6040   -3.9880    0.0000 C.ar    1  LIG1       -0.0131
     14 C          -2.5960   -4.9960    0.0000 C.ar    1  LIG1        0.0168
     15 C          -1.7420   -5.4960    0.0000 C.ar    1  LIG1        0.0986
     16 N          -0.8630   -4.9960    0.0000 N.ar    1  LIG1       -0.2423
     17 C          -0.8630   -3.9880    0.0000 C.ar    1  LIG1        0.0986
     18 C          -1.7330   -3.4920    0.0000 C.ar    1  LIG1        0.0168
     19 C          -1.7250   -0.4960    0.0000 C.3     1  LIG1        0.2168
     20 C          -0.8630   -1.0040    0.0000 C.2     1  LIG1        0.2664
     21 O          -0.8630   -2.0040    0.0000 O.2     1  LIG1       -0.2712
     22 N           0.0080   -0.4960    0.0000 N.am    1  LIG1       -0.2035
     23 C           0.0000    0.5040    0.0000 C.3     1  LIG1        0.1214
     24 C           0.8580    1.0040    0.0000 C.3     1  LIG1        0.0861
     25 C           0.8580    2.0000    0.0000 C.3     1  LIG1        0.1406
     26 N           1.7210    2.5000    0.0000 N.4     1  LIG1        0.3800
     27 C           1.7210    3.5040    0.0000 C.3     1  LIG1        0.1605
     28 C           2.5830    4.0000    0.0000 C.3     1  LIG1        0.1544
     29 N           3.4580    3.5040    0.0000 N.pl3   1  LIG1       -0.2972
     30 C           3.4580    2.5000    0.0000 C.3     1  LIG1        0.1544
     31 C           2.5830    2.0000    0.0000 C.3     1  LIG1        0.1605
     32 C           4.3210    4.0080    0.0000 C.ar    1  LIG1        0.0481
     33 C           5.1710    3.5040    0.0000 C.ar    1  LIG1        0.0145
     34 C           6.0500    4.0080    0.0000 C.ar    1  LIG1        0.0013
     35 C           6.0460    5.0080    0.0000 C.ar    1  LIG1        0.0001
     36 C           5.1710    5.4960    0.0000 C.ar    1  LIG1        0.0013
     37 C           4.3080    4.9960    0.0000 C.ar    1  LIG1        0.0145
@<TRIPOS>BOND
     1     1     2   ar
     2     1     6   ar
     3     1    19    1
     4     2     3   ar
     5     3     4   ar
     6     3    12    1
     7     4     5   ar
     8     4    11   ar
     9     5     6   ar
    10     5     8   ar
    11     6     7    2
    12     8     9   ar
    13     9    10   ar
    14    10    11   ar
    15    12    13    1
    16    13    14   ar
    17    13    18   ar
    18    14    15   ar
    19    15    16   ar
    20    16    17   ar
    21    17    18   ar
    22    19    20    1
    23    20    21    2
    24    20    22   am
    25    22    23    1
    26    23    24    1
    27    24    25    1
    28    25    26    1
    29    26    27    1
    30    26    31    1
    31    27    28    1
    32    28    29    1
    33    29    30    1
    34    29    32    1
    35    30    31    1
    36    32    33   ar
    37    32    37   ar
    38    33    34   ar
    39    34    35   ar
    40    35    36   ar
    41    36    37   ar
