@<TRIPOS>MOLECULE
37946_ChemDiv_C660-0066
 28 30 0 0 0
SMALL
GASTEIGER
Energy = 0

@<TRIPOS>ATOM
      1 C          -1.0040   -1.8080    0.0000 C.ar    1  LIG1        0.0435
      2 C          -0.2000   -2.4000    0.0000 C.ar    1  LIG1        0.1089
      3 N          -0.5040   -3.3500    0.0000 N.ar    1  LIG1       -0.2428
      4 N          -1.4960   -3.3630    0.0000 N.ar    1  LIG1       -0.1687
      5 C          -1.8210   -2.4000    0.0000 C.ar    1  LIG1        0.1050
      6 C          -2.7960   -2.1420    0.0000 C.ar    1  LIG1        0.0469
      7 C          -3.5040   -2.8460    0.0000 C.ar    1  LIG1        0.1416
      8 F          -3.2710   -3.8170    0.0000 F       1  LIG1       -0.2041
      9 C          -4.4580   -2.5920    0.0000 C.ar    1  LIG1        0.0297
     10 C          -4.7130   -1.6130    0.0000 C.ar    1  LIG1        0.0023
     11 C          -4.0080   -0.9210    0.0000 C.ar    1  LIG1        0.0002
     12 C          -3.0420   -1.1880    0.0000 C.ar    1  LIG1        0.0038
     13 C           0.0750   -4.1790    0.0000 C.3     1  LIG1        0.1543
     14 S           0.6130   -1.8040    0.0000 S.2     1  LIG1       -0.0637
     15 C           0.3000   -0.8500    0.0000 C.ar    1  LIG1        0.0859
     16 C          -0.6960   -0.8500    0.0000 C.ar    1  LIG1        0.0147
     17 C           0.9040   -0.0380    0.0000 C.2     1  LIG1        0.2713
     18 N           0.4960    0.8670    0.0000 N.am    1  LIG1       -0.1915
     19 C           1.0830    1.6630    0.0000 C.3     1  LIG1        0.1946
     20 C           0.6920    2.5830    0.0000 C.2     1  LIG1        0.3371
     21 O          -0.2750    2.8420    0.0000 O.2     1  LIG1       -0.2482
     22 O           1.2830    3.3830    0.0000 O.3     1  LIG1       -0.4432
     23 C           1.8710    4.1790    0.0000 C.3     1  LIG1        0.2557
     24 C           2.0830    1.5580    0.0000 C.3     1  LIG1        0.0448
     25 C           2.7880    2.2670    0.0000 C.3     1  LIG1        0.0599
     26 S           3.7420    2.0170    0.0000 S.3     1  LIG1       -0.1393
     27 C           4.7080    1.7710    0.0000 C.3     1  LIG1        0.0692
     28 O           1.9000   -0.1580    0.0000 O.2     1  LIG1       -0.2678
@<TRIPOS>BOND
     1     1     2   ar
     2     1     5   ar
     3     1    16   ar
     4     2     3   ar
     5     2    14   ar
     6     3     4   ar
     7     3    13    1
     8     4     5   ar
     9     5     6    1
    10     6     7   ar
    11     6    12   ar
    12     7     8    1
    13     7     9   ar
    14     9    10   ar
    15    10    11   ar
    16    11    12   ar
    17    14    15   ar
    18    15    16   ar
    19    15    17    1
    20    17    18   am
    21    17    28    2
    22    18    19    1
    23    19    20    1
    24    19    24    1
    25    20    21    2
    26    20    22    1
    27    22    23    1
    28    24    25    1
    29    25    26    1
    30    26    27    1
