@<TRIPOS>MOLECULE
37942_ChemDiv_C660-0112
 27 30 0 0 0
SMALL
GASTEIGER
Energy = 0

@<TRIPOS>ATOM
      1 C           0.6960   -2.0130    0.0000 C.ar    1  LIG1        0.0727
      2 C           1.6500   -1.7080    0.0000 C.ar    1  LIG1        0.1789
      3 N           2.2380   -2.5250    0.0000 N.ar    1  LIG1       -0.1295
      4 N           1.6500   -3.3290    0.0000 N.ar    1  LIG1       -0.1271
      5 C           0.6960   -3.0210    0.0000 C.ar    1  LIG1        0.1865
      6 N          -0.1750   -3.5250    0.0000 N.ar    1  LIG1       -0.2249
      7 C          -1.0380   -3.0210    0.0000 C.ar    1  LIG1        0.0860
      8 C          -1.0380   -2.0130    0.0000 C.ar    1  LIG1        0.0181
      9 C          -0.1750   -1.5130    0.0000 C.ar    1  LIG1        0.0075
     10 C          -1.9040   -1.5130    0.0000 C.ar    1  LIG1        0.0046
     11 C          -2.7790   -2.0130    0.0000 C.ar    1  LIG1        0.0370
     12 C          -2.7790   -3.0210    0.0000 C.ar    1  LIG1        0.1402
     13 C          -1.9040   -3.5250    0.0000 C.ar    1  LIG1        0.0560
     14 O          -3.6420   -3.5210    0.0000 O.3     1  LIG1       -0.4714
     15 C          -3.6420   -4.5170    0.0000 C.3     1  LIG1        0.2525
     16 N           1.9580   -0.7500    0.0000 N.am    1  LIG1       -0.1553
     17 C           2.9330   -0.5420    0.0000 C.2     1  LIG1        0.2914
     18 O           3.6380   -1.2420    0.0000 O.2     1  LIG1       -0.2689
     19 C           3.2420    0.4130    0.0000 C.3     1  LIG1        0.2915
     20 O           2.5710    1.1540    0.0000 O.3     1  LIG1       -0.4656
     21 C           1.9130    1.8960    0.0000 C.ar    1  LIG1        0.1390
     22 C           2.2250    2.8380    0.0000 C.ar    1  LIG1        0.0327
     23 C           1.5630    3.5750    0.0000 C.ar    1  LIG1       -0.0188
     24 C           0.5920    3.3750    0.0000 C.ar    1  LIG1       -0.0041
     25 C           0.2790    2.4210    0.0000 C.ar    1  LIG1        0.0028
     26 C           0.9420    1.6830    0.0000 C.ar    1  LIG1        0.0369
     27 C           1.8670    4.5170    0.0000 C.3     1  LIG1        0.0311
@<TRIPOS>BOND
     1     1     2   ar
     2     1     5   ar
     3     1     9   ar
     4     2     3   ar
     5     2    16    1
     6     3     4   ar
     7     4     5   ar
     8     5     6   ar
     9     6     7   ar
    10     7     8   ar
    11     7    13   ar
    12     8     9   ar
    13     8    10   ar
    14    10    11   ar
    15    11    12   ar
    16    12    13   ar
    17    12    14    1
    18    14    15    1
    19    16    17   am
    20    17    18    2
    21    17    19    1
    22    19    20    1
    23    20    21    1
    24    21    22   ar
    25    21    26   ar
    26    22    23   ar
    27    23    24   ar
    28    23    27    1
    29    24    25   ar
    30    25    26   ar
