@<TRIPOS>MOLECULE
37940_ChemDiv_C660-0045
 28 31 0 0 0
SMALL
GASTEIGER
Energy = 0

@<TRIPOS>ATOM
      1 C          -0.8040   -1.9460    0.0000 C.ar    1  LIG1        0.0727
      2 C           0.1500   -1.6380    0.0000 C.ar    1  LIG1        0.1788
      3 N           0.7420   -2.4500    0.0000 N.ar    1  LIG1       -0.1295
      4 N           0.1500   -3.2580    0.0000 N.ar    1  LIG1       -0.1271
      5 C          -0.8040   -2.9500    0.0000 C.ar    1  LIG1        0.1865
      6 N          -1.6710   -3.4540    0.0000 N.ar    1  LIG1       -0.2249
      7 C          -2.5330   -2.9540    0.0000 C.ar    1  LIG1        0.0860
      8 C          -2.5330   -1.9540    0.0000 C.ar    1  LIG1        0.0181
      9 C          -1.6710   -1.4540    0.0000 C.ar    1  LIG1        0.0075
     10 C          -3.3880   -1.4540    0.0000 C.ar    1  LIG1        0.0046
     11 C          -4.2630   -1.9540    0.0000 C.ar    1  LIG1        0.0370
     12 C          -4.2630   -2.9540    0.0000 C.ar    1  LIG1        0.1402
     13 C          -3.3880   -3.4540    0.0000 C.ar    1  LIG1        0.0560
     14 O          -5.1290   -3.4540    0.0000 O.3     1  LIG1       -0.4714
     15 C          -5.1290   -4.4580    0.0000 C.3     1  LIG1        0.2525
     16 N           0.6460   -0.7710    0.0000 N.am    1  LIG1       -0.1585
     17 C           1.6380   -0.7580    0.0000 C.2     1  LIG1        0.2473
     18 O           2.1380   -1.6210    0.0000 O.2     1  LIG1       -0.2729
     19 C           2.1380    0.1080    0.0000 C.3     1  LIG1        0.0919
     20 C           3.1380    0.1250    0.0000 C.3     1  LIG1        0.0360
     21 C           3.6330    0.9880    0.0000 C.ar    1  LIG1       -0.0215
     22 C           4.6330    0.9920    0.0000 C.ar    1  LIG1       -0.0011
     23 C           5.1250    1.8670    0.0000 C.ar    1  LIG1        0.0366
     24 C           4.6170    2.7330    0.0000 C.ar    1  LIG1        0.1387
     25 C           3.6080    2.7170    0.0000 C.ar    1  LIG1        0.0366
     26 C           3.1210    1.8500    0.0000 C.ar    1  LIG1       -0.0011
     27 O           5.1080    3.5960    0.0000 O.3     1  LIG1       -0.4714
     28 C           4.6040    4.4580    0.0000 C.3     1  LIG1        0.2525
@<TRIPOS>BOND
     1     1     2   ar
     2     1     5   ar
     3     1     9   ar
     4     2     3   ar
     5     2    16    1
     6     3     4   ar
     7     4     5   ar
     8     5     6   ar
     9     6     7   ar
    10     7     8   ar
    11     7    13   ar
    12     8     9   ar
    13     8    10   ar
    14    10    11   ar
    15    11    12   ar
    16    12    13   ar
    17    12    14    1
    18    14    15    1
    19    16    17   am
    20    17    18    2
    21    17    19    1
    22    19    20    1
    23    20    21    1
    24    21    22   ar
    25    21    26   ar
    26    22    23   ar
    27    23    24   ar
    28    24    25   ar
    29    24    27    1
    30    25    26   ar
    31    27    28    1
