@<TRIPOS>MOLECULE
37944_ChemDiv_C660-0131
 27 30 0 0 0
SMALL
GASTEIGER
Energy = 0

@<TRIPOS>ATOM
      1 C           1.1460   -2.0000    0.0000 C.ar    1  LIG1        0.0727
      2 C           2.1000   -1.6920    0.0000 C.ar    1  LIG1        0.1788
      3 N           2.6830   -2.5080    0.0000 N.ar    1  LIG1       -0.1295
      4 N           2.1000   -3.3130    0.0000 N.ar    1  LIG1       -0.1271
      5 C           1.1460   -2.9960    0.0000 C.ar    1  LIG1        0.1865
      6 N           0.2710   -3.5040    0.0000 N.ar    1  LIG1       -0.2250
      7 C          -0.5880   -2.9960    0.0000 C.ar    1  LIG1        0.0832
      8 C          -0.5880   -2.0000    0.0000 C.ar    1  LIG1        0.0209
      9 C           0.2710   -1.5000    0.0000 C.ar    1  LIG1        0.0076
     10 C          -1.4540   -1.5000    0.0000 C.ar    1  LIG1        0.0384
     11 C          -2.3250   -2.0000    0.0000 C.ar    1  LIG1        0.1388
     12 C          -2.3250   -2.9960    0.0000 C.ar    1  LIG1        0.0384
     13 C          -1.4540   -3.5040    0.0000 C.ar    1  LIG1        0.0223
     14 O          -3.1880   -1.5000    0.0000 O.3     1  LIG1       -0.4714
     15 C          -4.0500   -2.0000    0.0000 C.3     1  LIG1        0.2525
     16 N           2.5920   -0.8250    0.0000 N.am    1  LIG1       -0.1582
     17 C           2.0830    0.0420    0.0000 C.2     1  LIG1        0.2515
     18 C           2.5670    0.9130    0.0000 C.3     1  LIG1        0.1165
     19 C           2.0670    1.7710    0.0000 C.ar    1  LIG1        0.0210
     20 C           2.5630    2.6500    0.0000 C.ar    1  LIG1        0.1352
     21 O           3.5580    2.6500    0.0000 O.3     1  LIG1       -0.4717
     22 C           4.0460    3.5080    0.0000 C.3     1  LIG1        0.2525
     23 C           2.0630    3.5080    0.0000 C.ar    1  LIG1        0.0366
     24 C           1.0580    3.5080    0.0000 C.ar    1  LIG1        0.0031
     25 C           0.5580    2.6210    0.0000 C.ar    1  LIG1       -0.0001
     26 C           1.0710    1.7630    0.0000 C.ar    1  LIG1       -0.0008
     27 O           1.0830    0.0540    0.0000 O.2     1  LIG1       -0.2726
@<TRIPOS>BOND
     1     1     2   ar
     2     1     5   ar
     3     1     9   ar
     4     2     3   ar
     5     2    16    1
     6     3     4   ar
     7     4     5   ar
     8     5     6   ar
     9     6     7   ar
    10     7     8   ar
    11     7    13   ar
    12     8     9   ar
    13     8    10   ar
    14    10    11   ar
    15    11    12   ar
    16    11    14    1
    17    12    13   ar
    18    14    15    1
    19    16    17   am
    20    17    18    1
    21    17    27    2
    22    18    19    1
    23    19    20   ar
    24    19    26   ar
    25    20    21    1
    26    20    23   ar
    27    21    22    1
    28    23    24   ar
    29    24    25   ar
    30    25    26   ar
