@<TRIPOS>MOLECULE
37957_ChemDiv_K780-1094
 20 22 0 0 0
SMALL
GASTEIGER
Energy = 0

@<TRIPOS>ATOM
      1 C          -0.4880   -0.0790    0.0000 C.ar    1  LIG1        0.0652
      2 C           0.1670    0.6750    0.0000 C.ar    1  LIG1        0.2771
      3 N           1.1460    0.4790    0.0000 N.ar    1  LIG1       -0.2135
      4 N           1.4710   -0.4580    0.0000 N.ar    1  LIG1       -0.1704
      5 C           0.8130   -1.2170    0.0000 C.ar    1  LIG1        0.0851
      6 C          -0.1670   -1.0210    0.0000 C.ar    1  LIG1        0.0493
      7 S          -0.9830   -1.6210    0.0000 S.2     1  LIG1       -0.0855
      8 C          -1.7920   -1.0290    0.0000 C.ar    1  LIG1        0.0296
      9 C          -1.4830   -0.0790    0.0000 C.ar    1  LIG1        0.0112
     10 C          -2.1580    0.6630    0.0000 C.ar    1  LIG1        0.0007
     11 C          -3.1250    0.4500    0.0000 C.ar    1  LIG1        0.0000
     12 C          -3.4380   -0.5000    0.0000 C.ar    1  LIG1        0.0005
     13 C          -2.7710   -1.2420    0.0000 C.ar    1  LIG1        0.0065
     14 C           1.1380   -2.1710    0.0000 C.3     1  LIG1        0.0545
     15 C           1.8040    1.2380    0.0000 C.3     1  LIG1        0.1443
     16 C           2.7830    1.0540    0.0000 C.2     1  LIG1        0.0727
     17 O           3.4330    1.8130    0.0000 O.co2   1  LIG1       -0.5472
     18 O           3.1080    0.1170    0.0000 O.co2   1  LIG1       -0.5472
     19 C           1.4710    2.1750    0.0000 C.3     1  LIG1        0.0326
     20 O          -0.1580    1.6290    0.0000 O.2     1  LIG1       -0.2655
@<TRIPOS>BOND
     1     1     2   ar
     2     1     6   ar
     3     1     9   ar
     4     2     3   ar
     5     2    20    2
     6     3     4   ar
     7     3    15    1
     8     4     5   ar
     9     5     6   ar
    10     5    14    1
    11     6     7   ar
    12     7     8   ar
    13     8     9   ar
    14     8    13   ar
    15     9    10   ar
    16    10    11   ar
    17    11    12   ar
    18    12    13   ar
    19    15    16    1
    20    15    19    1
    21    16    17   ar
    22    16    18   ar
