@<TRIPOS>MOLECULE
37959_ChemDiv_C700-1325
 25 28 0 0 0
SMALL
GASTEIGER
Energy = 0

@<TRIPOS>ATOM
      1 N          -1.3080    0.2670    0.0000 N.am    1  LIG1       -0.1731
      2 C          -0.4250    0.7670    0.0000 C.2     1  LIG1        0.2864
      3 C          -0.4250    1.7750    0.0000 C.3     1  LIG1        0.2522
      4 O          -1.2960    2.2920    0.0000 O.3     1  LIG1       -0.4680
      5 C          -2.1710    1.7750    0.0000 C.ar    1  LIG1        0.1543
      6 C          -2.1710    0.7670    0.0000 C.ar    1  LIG1        0.1073
      7 C          -3.0380    0.2750    0.0000 C.ar    1  LIG1        0.0197
      8 C          -3.9000    0.7750    0.0000 C.ar    1  LIG1        0.0015
      9 C          -3.9000    1.7750    0.0000 C.ar    1  LIG1        0.0032
     10 C          -3.0380    2.2790    0.0000 C.ar    1  LIG1        0.0383
     11 C           0.4500    2.2790    0.0000 C.3     1  LIG1        0.1399
     12 C           1.3130    1.7750    0.0000 C.2     1  LIG1        0.2459
     13 N           2.1790    2.2790    0.0000 N.am    1  LIG1       -0.2004
     14 C           3.0420    1.7750    0.0000 C.3     1  LIG1        0.1416
     15 C           3.0420    0.7790    0.0000 C.ar    1  LIG1        0.0027
     16 C           2.1670    0.2920    0.0000 C.ar    1  LIG1        0.0376
     17 C           2.1790   -0.7130    0.0000 C.ar    1  LIG1        0.1762
     18 C           3.0330   -1.2080    0.0000 C.ar    1  LIG1        0.1764
     19 O           2.8330   -2.1790    0.0000 O.3     1  LIG1       -0.4346
     20 C           1.8500   -2.2880    0.0000 C.3     1  LIG1        0.4294
     21 O           1.4380   -1.3790    0.0000 O.3     1  LIG1       -0.4346
     22 C           3.8960   -0.7040    0.0000 C.ar    1  LIG1        0.0399
     23 C           3.8960    0.2920    0.0000 C.ar    1  LIG1        0.0008
     24 O           1.3130    0.7790    0.0000 O.2     1  LIG1       -0.2732
     25 O           0.4380    0.2670    0.0000 O.2     1  LIG1       -0.2691
@<TRIPOS>BOND
     1     1     2   am
     2     1     6    1
     3     2     3    1
     4     2    25    2
     5     3     4    1
     6     3    11    1
     7     4     5    1
     8     5     6   ar
     9     5    10   ar
    10     6     7   ar
    11     7     8   ar
    12     8     9   ar
    13     9    10   ar
    14    11    12    1
    15    12    13   am
    16    12    24    2
    17    13    14    1
    18    14    15    1
    19    15    16   ar
    20    15    23   ar
    21    16    17   ar
    22    17    18   ar
    23    17    21    1
    24    18    19    1
    25    18    22   ar
    26    19    20    1
    27    20    21    1
    28    22    23   ar
