@<TRIPOS>MOLECULE
37955_ChemDiv_K780-0920
 14 15 0 0 0
SMALL
GASTEIGER
Energy = 0

@<TRIPOS>ATOM
      1 N           0.3170   -0.3960    0.0000 N.ar    1  LIG1       -0.2104
      2 C          -0.6710   -0.5880    0.0000 C.ar    1  LIG1        0.2827
      3 C          -1.3290    0.1540    0.0000 C.ar    1  LIG1        0.0885
      4 C          -1.0130    1.1040    0.0000 C.ar    1  LIG1        0.0321
      5 C          -0.0330    1.3080    0.0000 C.ar    1  LIG1        0.1209
      6 N           0.6380    0.5580    0.0000 N.ar    1  LIG1       -0.1649
      7 C          -1.8210    1.6960    0.0000 C.ar    1  LIG1        0.0092
      8 C          -2.6250    1.1040    0.0000 C.ar    1  LIG1        0.0356
      9 S          -2.3210    0.1540    0.0000 S.2     1  LIG1       -0.0816
     10 O          -0.9290   -1.5540    0.0000 O.2     1  LIG1       -0.2650
     11 C           0.9790   -1.1420    0.0000 C.3     1  LIG1        0.1720
     12 C           1.9580   -0.9460    0.0000 C.2     1  LIG1        0.0751
     13 O           2.2750    0.0000    0.0000 O.co2   1  LIG1       -0.5471
     14 O           2.6210   -1.6920    0.0000 O.co2   1  LIG1       -0.5471
@<TRIPOS>BOND
     1     1     2   ar
     2     1     6   ar
     3     1    11    1
     4     2     3   ar
     5     2    10    2
     6     3     4   ar
     7     3     9   ar
     8     4     5   ar
     9     4     7   ar
    10     5     6   ar
    11     7     8   ar
    12     8     9   ar
    13    11    12    1
    14    12    13   ar
    15    12    14   ar
