@<TRIPOS>MOLECULE
37951_ChemDiv_C638-0318
 32 37 0 0 0
SMALL
GASTEIGER
Energy = 0

@<TRIPOS>ATOM
      1 C          -3.6750    1.3210    0.0000 C.ar    1  LIG1        0.4622
      2 N          -2.7250    1.6380    0.0000 N.ar    1  LIG1        0.1191
      3 C          -2.1330    0.8330    0.0000 C.ar    1  LIG1        0.3181
      4 C          -2.7170    0.0290    0.0000 C.ar    1  LIG1        0.1633
      5 N          -3.6670    0.3330    0.0000 N.ar    1  LIG1       -0.2235
      6 C          -4.5420   -0.1790    0.0000 C.ar    1  LIG1        0.0891
      7 C          -5.4000    0.3170    0.0000 C.ar    1  LIG1        0.0401
      8 C          -5.4000    1.3210    0.0000 C.ar    1  LIG1        0.1082
      9 N          -4.5420    1.8250    0.0000 N.ar    1  LIG1       -0.1614
     10 C          -1.1330    0.8380    0.0000 C.ar    1  LIG1        0.0720
     11 C          -0.6460    1.7130    0.0000 C.ar    1  LIG1        0.0075
     12 C           0.3580    1.7290    0.0000 C.ar    1  LIG1        0.0168
     13 C           0.8750    0.8460    0.0000 C.ar    1  LIG1        0.0734
     14 N           1.8750    0.8630    0.0000 N.am    1  LIG1       -0.1787
     15 C           2.3790   -0.0040    0.0000 C.2     1  LIG1        0.2535
     16 C           3.3790   -0.0040    0.0000 C.3     1  LIG1        0.1287
     17 C           3.8830   -0.8540    0.0000 C.ar    1  LIG1        0.0250
     18 C           4.8830   -0.8540    0.0000 C.ar    1  LIG1        0.1420
     19 O           5.3880    0.0130    0.0000 O.3     1  LIG1       -0.4541
     20 C           4.8790    0.8790    0.0000 C.ar    1  LIG1        0.1420
     21 C           3.8790    0.8670    0.0000 C.ar    1  LIG1        0.0250
     22 C           3.3670    1.7130    0.0000 C.ar    1  LIG1       -0.0005
     23 C           3.8670    2.5750    0.0000 C.ar    1  LIG1       -0.0001
     24 C           4.8710    2.5920    0.0000 C.ar    1  LIG1        0.0031
     25 C           5.3710    1.7330    0.0000 C.ar    1  LIG1        0.0372
     26 C           5.3960   -1.7170    0.0000 C.ar    1  LIG1        0.0372
     27 C           4.9000   -2.5790    0.0000 C.ar    1  LIG1        0.0031
     28 C           3.8960   -2.5880    0.0000 C.ar    1  LIG1       -0.0001
     29 C           3.3920   -1.7210    0.0000 C.ar    1  LIG1       -0.0005
     30 O           1.8880   -0.8790    0.0000 O.2     1  LIG1       -0.2723
     31 C           0.3710   -0.0170    0.0000 C.ar    1  LIG1        0.0168
     32 C          -0.6290   -0.0290    0.0000 C.ar    1  LIG1        0.0075
@<TRIPOS>BOND
     1     1     2   ar
     2     1     5   ar
     3     1     9   ar
     4     2     3   ar
     5     3     4   ar
     6     3    10    1
     7     4     5   ar
     8     5     6   ar
     9     6     7   ar
    10     7     8   ar
    11     8     9   ar
    12    10    11   ar
    13    10    32   ar
    14    11    12   ar
    15    12    13   ar
    16    13    14    1
    17    13    31   ar
    18    14    15   am
    19    15    16    1
    20    15    30    2
    21    16    17    1
    22    16    21    1
    23    17    18   ar
    24    17    29   ar
    25    18    19    1
    26    18    26   ar
    27    19    20    1
    28    20    21   ar
    29    20    25   ar
    30    21    22   ar
    31    22    23   ar
    32    23    24   ar
    33    24    25   ar
    34    26    27   ar
    35    27    28   ar
    36    28    29   ar
    37    31    32   ar
