@<TRIPOS>MOLECULE
37953_ChemDiv_E019-1108
 28 30 0 0 0
SMALL
GASTEIGER
Energy = 0

@<TRIPOS>ATOM
      1 C          -1.0580   -2.5960    0.0000 C.ar    1  LIG1        0.0652
      2 C          -0.4630   -3.4130    0.0000 C.ar    1  LIG1        0.0493
      3 S          -1.0460   -4.2290    0.0000 S.2     1  LIG1       -0.0855
      4 C          -2.0000   -3.9210    0.0000 C.ar    1  LIG1        0.0296
      5 C          -2.0130   -2.9130    0.0000 C.ar    1  LIG1        0.0112
      6 C          -2.8750   -2.4130    0.0000 C.ar    1  LIG1        0.0007
      7 C          -3.7330   -2.9210    0.0000 C.ar    1  LIG1        0.0000
      8 C          -3.7330   -3.9210    0.0000 C.ar    1  LIG1        0.0005
      9 C          -2.8750   -4.4170    0.0000 C.ar    1  LIG1        0.0065
     10 C           0.5250   -3.3040    0.0000 C.ar    1  LIG1        0.0851
     11 N           0.9330   -2.3830    0.0000 N.ar    1  LIG1       -0.1707
     12 N           0.3460   -1.5790    0.0000 N.ar    1  LIG1       -0.2169
     13 C          -0.6500   -1.6830    0.0000 C.ar    1  LIG1        0.2768
     14 O          -1.2420   -0.8710    0.0000 O.2     1  LIG1       -0.2655
     15 C           0.7540   -0.6630    0.0000 C.3     1  LIG1        0.1312
     16 C           1.7460   -0.7380    0.0000 C.3     1  LIG1        0.0361
     17 C           2.2330    0.1250    0.0000 C.3     1  LIG1        0.0889
     18 C           3.2330    0.1250    0.0000 C.2     1  LIG1        0.2414
     19 O           3.7290   -0.7380    0.0000 O.2     1  LIG1       -0.2733
     20 N           3.7290    0.9920    0.0000 N.am    1  LIG1       -0.2054
     21 C           3.2330    1.8540    0.0000 C.3     1  LIG1        0.1160
     22 C           2.2290    1.8420    0.0000 C.3     1  LIG1        0.0351
     23 C           1.7290    2.7040    0.0000 C.3     1  LIG1        0.0594
     24 S           0.7330    2.7000    0.0000 S.3     1  LIG1       -0.1402
     25 C           0.2250    3.5500    0.0000 C.3     1  LIG1        0.0576
     26 C          -0.7710    3.5500    0.0000 C.3     1  LIG1        0.0116
     27 C          -1.2880    4.4170    0.0000 C.3     1  LIG1        0.0009
     28 C           1.1170   -4.1080    0.0000 C.3     1  LIG1        0.0545
@<TRIPOS>BOND
     1     1     2   ar
     2     1     5   ar
     3     1    13   ar
     4     2     3   ar
     5     2    10   ar
     6     3     4   ar
     7     4     5   ar
     8     4     9   ar
     9     5     6   ar
    10     6     7   ar
    11     7     8   ar
    12     8     9   ar
    13    10    11   ar
    14    10    28    1
    15    11    12   ar
    16    12    13   ar
    17    12    15    1
    18    13    14    2
    19    15    16    1
    20    16    17    1
    21    17    18    1
    22    18    19    2
    23    18    20   am
    24    20    21    1
    25    21    22    1
    26    22    23    1
    27    23    24    1
    28    24    25    1
    29    25    26    1
    30    26    27    1
