@<TRIPOS>MOLECULE
37950_ChemDiv_C696-0723
 26 29 0 0 0
SMALL
GASTEIGER
Energy = 0

@<TRIPOS>ATOM
      1 N           0.2630    1.3000    0.0000 N.ar    1  LIG1       -0.2075
      2 N           0.7670    0.4330    0.0000 N.ar    1  LIG1       -0.1704
      3 C           1.7670    0.4330    0.0000 C.ar    1  LIG1        0.0832
      4 C           2.2670    1.3000    0.0000 C.ar    1  LIG1        0.0202
      5 C           1.7670    2.1630    0.0000 C.ar    1  LIG1        0.0588
      6 C           0.7670    2.1630    0.0000 C.ar    1  LIG1        0.2768
      7 O           0.2630    3.0330    0.0000 O.2     1  LIG1       -0.2655
      8 C           2.2670    3.0330    0.0000 C.ar    1  LIG1        0.0048
      9 C           3.2670    3.0330    0.0000 C.ar    1  LIG1        0.0002
     10 C           3.7670    2.1630    0.0000 C.ar    1  LIG1        0.0000
     11 C           3.2670    1.3000    0.0000 C.ar    1  LIG1        0.0014
     12 C           2.2670   -0.4330    0.0000 C.3     1  LIG1        0.0739
     13 C           1.7670   -1.3000    0.0000 C.ar    1  LIG1       -0.0131
     14 C           2.2670   -2.1630    0.0000 C.ar    1  LIG1        0.0168
     15 C           1.7670   -3.0290    0.0000 C.ar    1  LIG1        0.0986
     16 N           0.7670   -3.0290    0.0000 N.ar    1  LIG1       -0.2423
     17 C           0.2630   -2.1630    0.0000 C.ar    1  LIG1        0.0986
     18 C           0.7670   -1.3000    0.0000 C.ar    1  LIG1        0.0168
     19 C          -0.7330    1.3000    0.0000 C.3     1  LIG1        0.2153
     20 C          -1.2330    2.1630    0.0000 C.2     1  LIG1        0.2506
     21 N          -2.2290    2.1630    0.0000 N.am    1  LIG1       -0.2779
     22 C          -2.8250    1.3580    0.0000 C.3     1  LIG1        0.0935
     23 C          -3.7710    1.6670    0.0000 C.3     1  LIG1        0.0233
     24 C          -3.7710    2.6630    0.0000 C.3     1  LIG1        0.0233
     25 C          -2.8250    2.9750    0.0000 C.3     1  LIG1        0.0935
     26 O          -0.7330    3.0330    0.0000 O.2     1  LIG1       -0.2727
@<TRIPOS>BOND
     1     1     2   ar
     2     1     6   ar
     3     1    19    1
     4     2     3   ar
     5     3     4   ar
     6     3    12    1
     7     4     5   ar
     8     4    11   ar
     9     5     6   ar
    10     5     8   ar
    11     6     7    2
    12     8     9   ar
    13     9    10   ar
    14    10    11   ar
    15    12    13    1
    16    13    14   ar
    17    13    18   ar
    18    14    15   ar
    19    15    16   ar
    20    16    17   ar
    21    17    18   ar
    22    19    20    1
    23    20    21   am
    24    20    26    2
    25    21    22    1
    26    21    25    1
    27    22    23    1
    28    23    24    1
    29    24    25    1
