@<TRIPOS>MOLECULE
37952_ChemDiv_C696-0764
 33 37 0 0 0
SMALL
GASTEIGER
Energy = 0

@<TRIPOS>ATOM
      1 N           1.9960    1.3000    0.0000 N.ar    1  LIG1       -0.2075
      2 N           2.4960    0.4330    0.0000 N.ar    1  LIG1       -0.1704
      3 C           3.4960    0.4330    0.0000 C.ar    1  LIG1        0.0832
      4 C           3.9960    1.3000    0.0000 C.ar    1  LIG1        0.0202
      5 C           3.4960    2.1630    0.0000 C.ar    1  LIG1        0.0588
      6 C           2.4960    2.1630    0.0000 C.ar    1  LIG1        0.2768
      7 O           1.9960    3.0330    0.0000 O.2     1  LIG1       -0.2655
      8 C           3.9960    3.0330    0.0000 C.ar    1  LIG1        0.0048
      9 C           4.9960    3.0330    0.0000 C.ar    1  LIG1        0.0002
     10 C           5.5000    2.1630    0.0000 C.ar    1  LIG1        0.0000
     11 C           4.9960    1.3000    0.0000 C.ar    1  LIG1        0.0014
     12 C           3.9960   -0.4330    0.0000 C.3     1  LIG1        0.0739
     13 C           3.4960   -1.3000    0.0000 C.ar    1  LIG1       -0.0131
     14 C           2.4960   -1.3000    0.0000 C.ar    1  LIG1        0.0168
     15 C           1.9960   -2.1630    0.0000 C.ar    1  LIG1        0.0986
     16 N           2.4960   -3.0290    0.0000 N.ar    1  LIG1       -0.2423
     17 C           3.4960   -3.0290    0.0000 C.ar    1  LIG1        0.0986
     18 C           3.9960   -2.1630    0.0000 C.ar    1  LIG1        0.0168
     19 C           0.9960    1.3000    0.0000 C.3     1  LIG1        0.2153
     20 C           0.4960    2.1630    0.0000 C.2     1  LIG1        0.2507
     21 N          -0.5000    2.1630    0.0000 N.am    1  LIG1       -0.2744
     22 C          -1.0000    3.0330    0.0000 C.3     1  LIG1        0.1149
     23 C          -2.0000    3.0330    0.0000 C.3     1  LIG1        0.1137
     24 N          -2.5000    2.1630    0.0000 N.pl3   1  LIG1       -0.2897
     25 C          -3.5040    2.1630    0.0000 C.ar    1  LIG1        0.1318
     26 N          -4.0040    1.3000    0.0000 N.ar    1  LIG1       -0.2292
     27 C          -5.0000    1.3000    0.0000 C.ar    1  LIG1        0.1003
     28 C          -5.5040    2.1630    0.0000 C.ar    1  LIG1        0.0208
     29 C          -5.0000    3.0330    0.0000 C.ar    1  LIG1        0.0045
     30 C          -4.0040    3.0330    0.0000 C.ar    1  LIG1        0.0343
     31 C          -2.0000    1.3000    0.0000 C.3     1  LIG1        0.1137
     32 C          -1.0000    1.3000    0.0000 C.3     1  LIG1        0.1149
     33 O           0.9960    3.0330    0.0000 O.2     1  LIG1       -0.2727
@<TRIPOS>BOND
     1     1     2   ar
     2     1     6   ar
     3     1    19    1
     4     2     3   ar
     5     3     4   ar
     6     3    12    1
     7     4     5   ar
     8     4    11   ar
     9     5     6   ar
    10     5     8   ar
    11     6     7    2
    12     8     9   ar
    13     9    10   ar
    14    10    11   ar
    15    12    13    1
    16    13    14   ar
    17    13    18   ar
    18    14    15   ar
    19    15    16   ar
    20    16    17   ar
    21    17    18   ar
    22    19    20    1
    23    20    21   am
    24    20    33    2
    25    21    22    1
    26    21    32    1
    27    22    23    1
    28    23    24    1
    29    24    25    1
    30    24    31    1
    31    25    26   ar
    32    25    30   ar
    33    26    27   ar
    34    27    28   ar
    35    28    29   ar
    36    29    30   ar
    37    31    32    1
