@<TRIPOS>MOLECULE
37965_ChemDiv_C700-1407
 22 23 0 0 0
SMALL
GASTEIGER
Energy = 0

@<TRIPOS>ATOM
      1 S          -0.4250    1.2630    0.0000 S.O2    1  LIG1        0.0636
      2 N           0.4380    0.7420    0.0000 N.3     1  LIG1       -0.1507
      3 C           1.3040    1.2420    0.0000 C.3     1  LIG1        0.1216
      4 C           2.1670    0.7130    0.0000 C.2     1  LIG1       -0.0068
      5 C           2.1500   -0.2830    0.0000 C.2     1  LIG1        0.0314
      6 C           3.0080   -0.8080    0.0000 C.2     1  LIG1        0.2605
      7 N           2.9830   -1.8000    0.0000 N.am    1  LIG1       -0.2037
      8 C           2.1170   -2.2750    0.0000 C.3     1  LIG1        0.0957
      9 C           2.0920   -3.2670    0.0000 C.3     1  LIG1        0.0234
     10 C           1.2580   -1.7540    0.0000 C.3     1  LIG1        0.0234
     11 O           3.8880   -0.3250    0.0000 O.2     1  LIG1       -0.2687
     12 C           1.2750   -0.7710    0.0000 C.3     1  LIG1        0.0499
     13 C           0.4130   -0.2540    0.0000 C.3     1  LIG1        0.1010
     14 C          -1.2960    1.7630    0.0000 C.ar    1  LIG1        0.1224
     15 C          -2.1580    1.2630    0.0000 C.ar    1  LIG1        0.0222
     16 C          -3.0210    1.7630    0.0000 C.ar    1  LIG1        0.0310
     17 C          -3.0210    2.7580    0.0000 C.ar    1  LIG1        0.1402
     18 C          -2.1580    3.2710    0.0000 C.ar    1  LIG1        0.0310
     19 C          -1.2960    2.7710    0.0000 C.ar    1  LIG1        0.0222
     20 F          -3.8920    3.2710    0.0000 F       1  LIG1       -0.2042
     21 O          -0.9330    0.4170    0.0000 O.2     1  LIG1       -0.1528
     22 O           0.0920    2.1210    0.0000 O.2     1  LIG1       -0.1528
@<TRIPOS>BOND
     1     1     2    1
     2     1    14    1
     3     1    21    2
     4     1    22    2
     5     2     3    1
     6     2    13    1
     7     3     4    1
     8     4     5    2
     9     5     6    1
    10     5    12    1
    11     6     7   am
    12     6    11    2
    13     7     8    1
    14     8     9    1
    15     8    10    1
    16    12    13    1
    17    14    15   ar
    18    14    19   ar
    19    15    16   ar
    20    16    17   ar
    21    17    18   ar
    22    17    20    1
    23    18    19   ar
