@<TRIPOS>MOLECULE
37966_ChemDiv_C875-0454
 35 38 0 0 0
SMALL
GASTEIGER
Energy = 0

@<TRIPOS>ATOM
      1 C           0.0790    1.8000    0.0000 C.ar    1  LIG1        0.1720
      2 N          -0.5130    0.9880    0.0000 N.ar    1  LIG1       -0.2965
      3 C          -1.4630    1.3040    0.0000 C.ar    1  LIG1        0.0990
      4 C          -1.4630    2.3000    0.0000 C.ar    1  LIG1        0.1023
      5 N          -0.5130    2.6170    0.0000 N.ar    1  LIG1       -0.2210
      6 C          -2.3330    2.7960    0.0000 C.ar    1  LIG1        0.0413
      7 C          -3.1920    2.3000    0.0000 C.ar    1  LIG1        0.1005
      8 N          -3.1920    1.3040    0.0000 N.ar    1  LIG1       -0.2407
      9 C          -2.3330    0.8080    0.0000 C.ar    1  LIG1        0.1176
     10 C          -0.2040    0.0380    0.0000 C.3     1  LIG1        0.1954
     11 C           0.7750   -0.1710    0.0000 C.2     1  LIG1        0.2688
     12 N           1.0750   -1.1250    0.0000 N.am    1  LIG1       -0.1744
     13 C           0.3960   -1.8630    0.0000 C.ar    1  LIG1        0.1105
     14 C           0.7000   -2.8290    0.0000 C.ar    1  LIG1        0.1906
     15 C           0.0170   -3.5670    0.0000 C.ar    1  LIG1        0.2074
     16 C          -0.9500   -3.3420    0.0000 C.ar    1  LIG1        0.1755
     17 C          -1.2460   -2.3750    0.0000 C.ar    1  LIG1        0.0416
     18 C          -0.5710   -1.6500    0.0000 C.ar    1  LIG1        0.0230
     19 O          -1.6380   -4.0750    0.0000 O.3     1  LIG1       -0.4683
     20 C          -2.6170   -3.8540    0.0000 C.3     1  LIG1        0.2526
     21 O           0.3080   -4.5170    0.0000 O.3     1  LIG1       -0.4654
     22 C          -0.1580   -5.4000    0.0000 C.3     1  LIG1        0.2528
     23 O           1.6790   -3.0540    0.0000 O.3     1  LIG1       -0.4669
     24 C           1.9670   -4.0040    0.0000 C.3     1  LIG1        0.2527
     25 O           1.4500    0.5710    0.0000 O.2     1  LIG1       -0.2709
     26 S           1.0750    1.8000    0.0000 S.3     1  LIG1       -0.0725
     27 C           1.7790    2.5080    0.0000 C.3     1  LIG1        0.0910
     28 C           1.5130    3.4750    0.0000 C.ar    1  LIG1       -0.0152
     29 C           2.2210    4.1790    0.0000 C.ar    1  LIG1       -0.0250
     30 C           1.9670    5.1460    0.0000 C.ar    1  LIG1       -0.0049
     31 C           0.9960    5.4000    0.0000 C.ar    1  LIG1       -0.0046
     32 C           0.2920    4.6920    0.0000 C.ar    1  LIG1       -0.0222
     33 C           0.5500    3.7330    0.0000 C.ar    1  LIG1       -0.0080
     34 C          -0.6750    4.9500    0.0000 C.3     1  LIG1        0.0310
     35 C           3.1880    3.9290    0.0000 C.3     1  LIG1        0.0307
@<TRIPOS>BOND
     1     1     2   ar
     2     1     5   ar
     3     1    26    1
     4     2     3   ar
     5     2    10    1
     6     3     4   ar
     7     3     9   ar
     8     4     5   ar
     9     4     6   ar
    10     6     7   ar
    11     7     8   ar
    12     8     9   ar
    13    10    11    1
    14    11    12   am
    15    11    25    2
    16    12    13    1
    17    13    14   ar
    18    13    18   ar
    19    14    15   ar
    20    14    23    1
    21    15    16   ar
    22    15    21    1
    23    16    17   ar
    24    16    19    1
    25    17    18   ar
    26    19    20    1
    27    21    22    1
    28    23    24    1
    29    26    27    1
    30    27    28    1
    31    28    29   ar
    32    28    33   ar
    33    29    30   ar
    34    29    35    1
    35    30    31   ar
    36    31    32   ar
    37    32    33   ar
    38    32    34    1
