@<TRIPOS>MOLECULE
37967_ChemDiv_C751-0124
 25 26 0 0 0
SMALL
GASTEIGER
Energy = 0

@<TRIPOS>ATOM
      1 S          -1.7130   -1.3420    0.0000 S.O2    1  LIG1        0.0636
      2 N          -0.7420   -1.0880    0.0000 N.3     1  LIG1       -0.1507
      3 C          -0.0380   -1.8000    0.0000 C.3     1  LIG1        0.1216
      4 C           0.9170   -1.5460    0.0000 C.2     1  LIG1       -0.0068
      5 C           1.1790   -0.5830    0.0000 C.2     1  LIG1        0.0314
      6 C           2.1630   -0.3250    0.0000 C.2     1  LIG1        0.2606
      7 O           2.8670   -1.0380    0.0000 O.2     1  LIG1       -0.2687
      8 N           2.4210    0.6290    0.0000 N.am    1  LIG1       -0.2019
      9 C           3.3920    0.8880    0.0000 C.3     1  LIG1        0.1180
     10 C           3.6580    1.8500    0.0000 C.3     1  LIG1        0.0555
     11 C           4.6250    2.1040    0.0000 C.3     1  LIG1        0.1441
     12 O           4.8960    3.0710    0.0000 O.3     1  LIG1       -0.3510
     13 C           5.8670    3.3290    0.0000 C.3     1  LIG1        0.1741
     14 C           0.4960    0.1210    0.0000 C.3     1  LIG1        0.0499
     15 C          -0.4750   -0.1330    0.0000 C.3     1  LIG1        0.1010
     16 C          -2.6880   -1.6000    0.0000 C.ar    1  LIG1        0.1224
     17 C          -3.3880   -0.8880    0.0000 C.ar    1  LIG1        0.0230
     18 C          -4.3630   -1.1540    0.0000 C.ar    1  LIG1        0.0383
     19 C          -4.6170   -2.1130    0.0000 C.ar    1  LIG1        0.1388
     20 C          -3.9130   -2.8170    0.0000 C.ar    1  LIG1        0.0383
     21 C          -2.9540   -2.5580    0.0000 C.ar    1  LIG1        0.0230
     22 O          -5.5920   -2.3580    0.0000 O.3     1  LIG1       -0.4714
     23 C          -5.8710   -3.3250    0.0000 C.3     1  LIG1        0.2525
     24 O          -1.4580   -2.3130    0.0000 O.2     1  LIG1       -0.1528
     25 O          -1.9710   -0.3670    0.0000 O.2     1  LIG1       -0.1528
@<TRIPOS>BOND
     1     1     2    1
     2     1    16    1
     3     1    24    2
     4     1    25    2
     5     2     3    1
     6     2    15    1
     7     3     4    1
     8     4     5    2
     9     5     6    1
    10     5    14    1
    11     6     7    2
    12     6     8   am
    13     8     9    1
    14     9    10    1
    15    10    11    1
    16    11    12    1
    17    12    13    1
    18    14    15    1
    19    16    17   ar
    20    16    21   ar
    21    17    18   ar
    22    18    19   ar
    23    19    20   ar
    24    19    22    1
    25    20    21   ar
    26    22    23    1
