@<TRIPOS>MOLECULE
37963_ChemDiv_C700-1378
 22 24 0 0 0
SMALL
GASTEIGER
Energy = 0

@<TRIPOS>ATOM
      1 C          -0.8790    0.2830    0.0000 C.ar    1  LIG1        0.1929
      2 N          -0.8790    1.2960    0.0000 N.ar    1  LIG1       -0.1830
      3 C          -1.7580    1.7960    0.0000 C.ar    1  LIG1        0.2781
      4 C          -2.6210    1.2880    0.0000 C.ar    1  LIG1        0.0493
      5 C          -2.6210    0.2830    0.0000 C.ar    1  LIG1        0.0618
      6 N          -1.7580   -0.2210    0.0000 N.ar    1  LIG1       -0.2257
      7 C          -3.5750   -0.0210    0.0000 C.3     1  LIG1        0.0461
      8 C          -4.1670    0.7790    0.0000 C.3     1  LIG1        0.0112
      9 C          -3.5750    1.6000    0.0000 C.3     1  LIG1        0.0329
     10 O          -1.7580    2.7960    0.0000 O.2     1  LIG1       -0.2654
     11 S          -0.0210   -0.2210    0.0000 S.3     1  LIG1       -0.0671
     12 C           0.8580    0.2830    0.0000 C.3     1  LIG1        0.1325
     13 C           1.7250   -0.2210    0.0000 C.2     1  LIG1        0.2514
     14 N           1.7170   -1.2130    0.0000 N.am    1  LIG1       -0.2065
     15 C           2.5830   -1.7170    0.0000 C.3     1  LIG1        0.0953
     16 C           3.4380   -1.2250    0.0000 C.3     1  LIG1        0.0217
     17 C           4.1630   -1.8920    0.0000 C.3     1  LIG1        0.0018
     18 C           3.7630   -2.7920    0.0000 C.3     1  LIG1        0.0018
     19 C           2.7750   -2.6880    0.0000 C.3     1  LIG1        0.0217
     20 O           2.5960    0.2830    0.0000 O.2     1  LIG1       -0.2724
     21 C           0.8580    1.2830    0.0000 C.3     1  LIG1        0.0205
     22 C           1.7130    1.7960    0.0000 C.3     1  LIG1        0.0014
@<TRIPOS>BOND
     1     1     2   ar
     2     1     6   ar
     3     1    11    1
     4     2     3   ar
     5     3     4   ar
     6     3    10    2
     7     4     5   ar
     8     4     9    1
     9     5     6   ar
    10     5     7    1
    11     7     8    1
    12     8     9    1
    13    11    12    1
    14    12    13    1
    15    12    21    1
    16    13    14   am
    17    13    20    2
    18    14    15    1
    19    15    16    1
    20    15    19    1
    21    16    17    1
    22    17    18    1
    23    18    19    1
    24    21    22    1
