@<TRIPOS>MOLECULE
37968_ChemDiv_C875-0537
 35 38 0 0 0
SMALL
GASTEIGER
Energy = 0

@<TRIPOS>ATOM
      1 C          -0.1380    1.5830    0.0000 C.ar    1  LIG1        0.1720
      2 N          -0.7290    0.7710    0.0000 N.ar    1  LIG1       -0.2965
      3 C          -1.6790    1.0750    0.0000 C.ar    1  LIG1        0.0990
      4 C          -1.6790    2.0790    0.0000 C.ar    1  LIG1        0.1023
      5 N          -0.7290    2.3880    0.0000 N.ar    1  LIG1       -0.2210
      6 C          -2.5500    2.5790    0.0000 C.ar    1  LIG1        0.0413
      7 C          -3.4080    2.0710    0.0000 C.ar    1  LIG1        0.1005
      8 N          -3.4080    1.0750    0.0000 N.ar    1  LIG1       -0.2407
      9 C          -2.5500    0.5790    0.0000 C.ar    1  LIG1        0.1176
     10 C          -0.4250   -0.1830    0.0000 C.3     1  LIG1        0.1954
     11 C           0.5540   -0.3920    0.0000 C.2     1  LIG1        0.2688
     12 N           0.8580   -1.3540    0.0000 N.am    1  LIG1       -0.1744
     13 C           0.1790   -2.0920    0.0000 C.ar    1  LIG1        0.1105
     14 C           0.4790   -3.0460    0.0000 C.ar    1  LIG1        0.1906
     15 C          -0.2040   -3.7880    0.0000 C.ar    1  LIG1        0.2074
     16 C          -1.1670   -3.5580    0.0000 C.ar    1  LIG1        0.1755
     17 C          -1.4670   -2.6040    0.0000 C.ar    1  LIG1        0.0416
     18 C          -0.7920   -1.8710    0.0000 C.ar    1  LIG1        0.0230
     19 O          -1.8580   -4.3000    0.0000 O.3     1  LIG1       -0.4683
     20 C          -2.8380   -4.0710    0.0000 C.3     1  LIG1        0.2526
     21 O           0.0880   -4.7460    0.0000 O.3     1  LIG1       -0.4654
     22 C          -0.3790   -5.6250    0.0000 C.3     1  LIG1        0.2528
     23 O           1.4630   -3.2750    0.0000 O.3     1  LIG1       -0.4669
     24 C           1.7460   -4.2330    0.0000 C.3     1  LIG1        0.2527
     25 O           1.2290    0.3460    0.0000 O.2     1  LIG1       -0.2709
     26 S           0.8580    1.5830    0.0000 S.3     1  LIG1       -0.0725
     27 C           1.5630    2.2920    0.0000 C.3     1  LIG1        0.0914
     28 C           1.2960    3.2580    0.0000 C.ar    1  LIG1       -0.0079
     29 C           2.0040    3.9670    0.0000 C.ar    1  LIG1        0.0335
     30 C           1.7460    4.9250    0.0000 C.ar    1  LIG1        0.1384
     31 O           2.4420    5.6250    0.0000 O.3     1  LIG1       -0.4714
     32 C           3.4040    5.3790    0.0000 C.3     1  LIG1        0.2525
     33 C           0.7750    5.1830    0.0000 C.ar    1  LIG1        0.0369
     34 C           0.0750    4.4630    0.0000 C.ar    1  LIG1        0.0028
     35 C           0.3290    3.5130    0.0000 C.ar    1  LIG1       -0.0032
@<TRIPOS>BOND
     1     1     2   ar
     2     1     5   ar
     3     1    26    1
     4     2     3   ar
     5     2    10    1
     6     3     4   ar
     7     3     9   ar
     8     4     5   ar
     9     4     6   ar
    10     6     7   ar
    11     7     8   ar
    12     8     9   ar
    13    10    11    1
    14    11    12   am
    15    11    25    2
    16    12    13    1
    17    13    14   ar
    18    13    18   ar
    19    14    15   ar
    20    14    23    1
    21    15    16   ar
    22    15    21    1
    23    16    17   ar
    24    16    19    1
    25    17    18   ar
    26    19    20    1
    27    21    22    1
    28    23    24    1
    29    26    27    1
    30    27    28    1
    31    28    29   ar
    32    28    35   ar
    33    29    30   ar
    34    30    31    1
    35    30    33   ar
    36    31    32    1
    37    33    34   ar
    38    34    35   ar
