@<TRIPOS>MOLECULE
37969_ChemDiv_K906-3562
 27 30 0 0 0
SMALL
GASTEIGER
Energy = 0

@<TRIPOS>ATOM
      1 S          -0.0250    2.2330    0.0000 S.O2    1  LIG1        0.0676
      2 C          -0.8880    2.7460    0.0000 C.ar    1  LIG1        0.1715
      3 C          -0.8710    3.7500    0.0000 C.ar    1  LIG1        0.1729
      4 O          -1.8250    4.0580    0.0000 O.2     1  LIG1       -0.3567
      5 N          -2.4170    3.2630    0.0000 N.ar    1  LIG1       -0.0803
      6 C          -1.8420    2.4420    0.0000 C.ar    1  LIG1        0.1192
      7 C          -2.1580    1.4920    0.0000 C.3     1  LIG1        0.0571
      8 C          -0.0540    4.3380    0.0000 C.3     1  LIG1        0.0768
      9 N           0.8460    1.7080    0.0000 N.3     1  LIG1       -0.1480
     10 C           0.9380    0.7080    0.0000 C.3     1  LIG1        0.1556
     11 C           0.1210    0.1330    0.0000 C.2     1  LIG1        0.2420
     12 N           0.2130   -0.8670    0.0000 N.am    1  LIG1       -0.2740
     13 C          -0.6580   -1.3540    0.0000 C.3     1  LIG1        0.1199
     14 C          -0.6580   -2.3500    0.0000 C.ar    1  LIG1       -0.0062
     15 C           0.1960   -2.8540    0.0000 C.ar    1  LIG1       -0.0228
     16 C           1.0670   -2.3630    0.0000 C.3     1  LIG1        0.0476
     17 C           1.0670   -1.3540    0.0000 C.3     1  LIG1        0.0984
     18 C           0.1880   -3.8460    0.0000 C.ar    1  LIG1       -0.0045
     19 C          -0.6750   -4.3380    0.0000 C.ar    1  LIG1       -0.0003
     20 C          -1.5380   -3.8330    0.0000 C.ar    1  LIG1       -0.0003
     21 C          -1.5290   -2.8380    0.0000 C.ar    1  LIG1       -0.0029
     22 O          -0.7880    0.5580    0.0000 O.2     1  LIG1       -0.2734
     23 C           1.9130    0.4920    0.0000 C.3     1  LIG1        0.0285
     24 C           2.4130    1.3460    0.0000 C.3     1  LIG1        0.0211
     25 C           1.7710    2.1000    0.0000 C.3     1  LIG1        0.0964
     26 O           0.5000    3.0960    0.0000 O.2     1  LIG1       -0.1526
     27 O          -0.5380    1.3580    0.0000 O.2     1  LIG1       -0.1526
@<TRIPOS>BOND
     1     1     2    1
     2     1     9    1
     3     1    26    2
     4     1    27    2
     5     2     3   ar
     6     2     6   ar
     7     3     4   ar
     8     3     8    1
     9     4     5   ar
    10     5     6   ar
    11     6     7    1
    12     9    10    1
    13     9    25    1
    14    10    11    1
    15    10    23    1
    16    11    12   am
    17    11    22    2
    18    12    13    1
    19    12    17    1
    20    13    14    1
    21    14    15   ar
    22    14    21   ar
    23    15    16    1
    24    15    18   ar
    25    16    17    1
    26    18    19   ar
    27    19    20   ar
    28    20    21   ar
    29    23    24    1
    30    24    25    1
