@<TRIPOS>MOLECULE
37973_ChemDiv_C739-0103
 15 17 0 0 0
SMALL
GASTEIGER
Energy = 0

@<TRIPOS>ATOM
      1 N           1.4540    0.4960    0.0000 N.ar    1  LIG1       -0.1873
      2 N           0.4580    0.4960    0.0000 N.ar    1  LIG1       -0.1472
      3 C          -0.0460   -0.3670    0.0000 C.ar    1  LIG1        0.1522
      4 N          -1.0460   -0.3670    0.0000 N.pl3   1  LIG1       -0.2867
      5 C          -1.5420    0.4960    0.0000 C.3     1  LIG1        0.1243
      6 C          -2.5420    0.4960    0.0000 C.3     1  LIG1        0.1636
      7 O          -3.0460   -0.3670    0.0000 O.3     1  LIG1       -0.3501
      8 C          -2.5420   -1.2380    0.0000 C.3     1  LIG1        0.1636
      9 C          -1.5420   -1.2380    0.0000 C.3     1  LIG1        0.1243
     10 C           0.4580   -1.2380    0.0000 C.ar    1  LIG1        0.0393
     11 C           1.4540   -1.2380    0.0000 C.ar    1  LIG1        0.0436
     12 C           1.9540   -0.3670    0.0000 C.ar    1  LIG1        0.1869
     13 N           2.9330   -0.1630    0.0000 N.ar    1  LIG1       -0.1268
     14 N           3.0420    0.8330    0.0000 N.ar    1  LIG1       -0.1237
     15 C           2.1250    1.2420    0.0000 C.ar    1  LIG1        0.2242
@<TRIPOS>BOND
     1     1     2   ar
     2     1    12   ar
     3     1    15   ar
     4     2     3   ar
     5     3     4    1
     6     3    10   ar
     7     4     5    1
     8     4     9    1
     9     5     6    1
    10     6     7    1
    11     7     8    1
    12     8     9    1
    13    10    11   ar
    14    11    12   ar
    15    12    13   ar
    16    13    14   ar
    17    14    15   ar
