@<TRIPOS>MOLECULE
37975_ChemDiv_C741-0097
 36 41 0 0 0
SMALL
GASTEIGER
Energy = 0

@<TRIPOS>ATOM
      1 C           2.8880   -0.7920    0.0000 C.ar    1  LIG1        0.2404
      2 N           2.8880    0.2040    0.0000 N.ar    1  LIG1       -0.2609
      3 C           2.0170    0.7000    0.0000 C.ar    1  LIG1        0.2647
      4 C           1.1500    0.2040    0.0000 C.ar    1  LIG1        0.0725
      5 C           1.1500   -0.7920    0.0000 C.ar    1  LIG1        0.0724
      6 N           2.0170   -1.3000    0.0000 N.ar    1  LIG1       -0.2632
      7 C           2.2250   -2.2830    0.0000 C.ar    1  LIG1        0.1487
      8 N           3.2170   -2.3790    0.0000 N.ar    1  LIG1       -0.1315
      9 N           3.6290   -1.4710    0.0000 N.ar    1  LIG1       -0.1100
     10 C           1.5630   -3.0250    0.0000 C.3     1  LIG1        0.0758
     11 C           0.5920   -2.8290    0.0000 C.3     1  LIG1        0.0933
     12 C          -0.0670   -3.5830    0.0000 C.2     1  LIG1        0.2263
     13 N          -1.0500   -3.3880    0.0000 N.am    1  LIG1       -0.2751
     14 C          -1.6960   -4.1540    0.0000 C.3     1  LIG1        0.1198
     15 C          -2.6790   -3.9580    0.0000 C.ar    1  LIG1       -0.0062
     16 C          -2.9960   -3.0080    0.0000 C.ar    1  LIG1       -0.0228
     17 C          -2.3380   -2.2580    0.0000 C.3     1  LIG1        0.0476
     18 C          -1.3670   -2.4500    0.0000 C.3     1  LIG1        0.0984
     19 C          -3.9750   -2.8170    0.0000 C.ar    1  LIG1       -0.0045
     20 C          -4.6420   -3.5670    0.0000 C.ar    1  LIG1       -0.0003
     21 C          -4.3080   -4.5170    0.0000 C.ar    1  LIG1       -0.0003
     22 C          -3.3330   -4.7000    0.0000 C.ar    1  LIG1       -0.0029
     23 O           0.2580   -4.5290    0.0000 O.2     1  LIG1       -0.2748
     24 C           0.2790   -1.3000    0.0000 C.ar    1  LIG1        0.0178
     25 C          -0.5790   -0.7920    0.0000 C.ar    1  LIG1        0.0015
     26 C          -0.5790    0.2040    0.0000 C.ar    1  LIG1        0.0003
     27 C           0.2790    0.7000    0.0000 C.ar    1  LIG1        0.0062
     28 O           2.0170    1.7040    0.0000 O.2     1  LIG1       -0.2668
     29 C           3.7630    0.7000    0.0000 C.3     1  LIG1        0.1387
     30 C           3.7670    1.7040    0.0000 C.ar    1  LIG1        0.0006
     31 C           4.6380    2.2130    0.0000 C.ar    1  LIG1       -0.0027
     32 C           4.6380    3.2130    0.0000 C.ar    1  LIG1       -0.0045
     33 C           3.7670    3.7080    0.0000 C.ar    1  LIG1       -0.0219
     34 C           2.9000    3.2130    0.0000 C.ar    1  LIG1       -0.0045
     35 C           2.9000    2.2130    0.0000 C.ar    1  LIG1       -0.0027
     36 C           3.7630    4.7000    0.0000 C.3     1  LIG1        0.0310
@<TRIPOS>BOND
     1     1     2   ar
     2     1     6   ar
     3     1     9   ar
     4     2     3   ar
     5     2    29    1
     6     3     4   ar
     7     3    28    2
     8     4     5   ar
     9     4    27   ar
    10     5     6   ar
    11     5    24   ar
    12     6     7   ar
    13     7     8   ar
    14     7    10    1
    15     8     9   ar
    16    10    11    1
    17    11    12    1
    18    12    13   am
    19    12    23    2
    20    13    14    1
    21    13    18    1
    22    14    15    1
    23    15    16   ar
    24    15    22   ar
    25    16    17    1
    26    16    19   ar
    27    17    18    1
    28    19    20   ar
    29    20    21   ar
    30    21    22   ar
    31    24    25   ar
    32    25    26   ar
    33    26    27   ar
    34    29    30    1
    35    30    31   ar
    36    30    35   ar
    37    31    32   ar
    38    32    33   ar
    39    33    34   ar
    40    33    36    1
    41    34    35   ar
