@<TRIPOS>MOLECULE
37970_ChemDiv_E002-0899
 23 25 0 0 0
SMALL
GASTEIGER
Energy = 0

@<TRIPOS>ATOM
      1 N          -0.2920    1.5460    0.0000 N.ar    1  LIG1       -0.1982
      2 N           0.3000    2.3710    0.0000 N.ar    1  LIG1       -0.1671
      3 C          -0.2920    3.1710    0.0000 C.ar    1  LIG1        0.0808
      4 C          -1.2500    2.8710    0.0000 C.ar    1  LIG1        0.0330
      5 C          -1.2500    1.8580    0.0000 C.ar    1  LIG1        0.0868
      6 C          -2.1250    1.3540    0.0000 C.ar    1  LIG1        0.0193
      7 C          -2.9960    1.8540    0.0000 C.ar    1  LIG1        0.0015
      8 C          -2.9960    2.8710    0.0000 C.ar    1  LIG1        0.0001
      9 C          -2.1250    3.3790    0.0000 C.ar    1  LIG1        0.0027
     10 C           0.0210    4.1290    0.0000 C.3     1  LIG1        0.0540
     11 C           0.0210    0.5960    0.0000 C.2     1  LIG1        0.2573
     12 O          -0.6580   -0.1580    0.0000 O.2     1  LIG1       -0.2701
     13 C           1.0080    0.3790    0.0000 C.3     1  LIG1        0.0996
     14 C           1.3210   -0.5830    0.0000 C.3     1  LIG1        0.0967
     15 C           2.3130   -0.7920    0.0000 C.2     1  LIG1        0.2418
     16 N           2.6210   -1.7540    0.0000 N.am    1  LIG1       -0.2072
     17 C           1.9710   -2.4790    0.0000 C.3     1  LIG1        0.0953
     18 C           1.0210   -2.2710    0.0000 C.3     1  LIG1        0.0217
     19 C           0.3710   -2.9920    0.0000 C.3     1  LIG1        0.0018
     20 C           0.6670   -3.9210    0.0000 C.3     1  LIG1        0.0001
     21 C           1.6170   -4.1290    0.0000 C.3     1  LIG1        0.0018
     22 C           2.2750   -3.4040    0.0000 C.3     1  LIG1        0.0217
     23 O           2.9920   -0.0420    0.0000 O.2     1  LIG1       -0.2733
@<TRIPOS>BOND
     1     1     2   ar
     2     1     5   ar
     3     1    11   am
     4     2     3   ar
     5     3     4   ar
     6     3    10    1
     7     4     5   ar
     8     4     9   ar
     9     5     6   ar
    10     6     7   ar
    11     7     8   ar
    12     8     9   ar
    13    11    12    2
    14    11    13    1
    15    13    14    1
    16    14    15    1
    17    15    16   am
    18    15    23    2
    19    16    17    1
    20    17    18    1
    21    17    22    1
    22    18    19    1
    23    19    20    1
    24    20    21    1
    25    21    22    1
