@<TRIPOS>MOLECULE
37974_ChemDiv_E002-0940
 22 23 0 0 0
SMALL
GASTEIGER
Energy = 0

@<TRIPOS>ATOM
      1 N          -1.0460    1.8500    0.0000 N.ar    1  LIG1       -0.1982
      2 N          -0.4580    2.6630    0.0000 N.ar    1  LIG1       -0.1671
      3 C          -1.0460    3.4630    0.0000 C.ar    1  LIG1        0.0808
      4 C          -2.0000    3.1580    0.0000 C.ar    1  LIG1        0.0330
      5 C          -2.0000    2.1630    0.0000 C.ar    1  LIG1        0.0868
      6 C          -2.8750    1.6540    0.0000 C.ar    1  LIG1        0.0193
      7 C          -3.7460    2.1500    0.0000 C.ar    1  LIG1        0.0015
      8 C          -3.7460    3.1580    0.0000 C.ar    1  LIG1        0.0001
      9 C          -2.8750    3.6670    0.0000 C.ar    1  LIG1        0.0027
     10 C          -0.7380    4.4170    0.0000 C.3     1  LIG1        0.0540
     11 C          -0.7380    0.8920    0.0000 C.2     1  LIG1        0.2573
     12 O          -1.4170    0.1420    0.0000 O.2     1  LIG1       -0.2701
     13 C           0.2540    0.6750    0.0000 C.3     1  LIG1        0.0996
     14 C           0.5630   -0.2790    0.0000 C.3     1  LIG1        0.0967
     15 C           1.5460   -0.4960    0.0000 C.2     1  LIG1        0.2419
     16 O           2.2210    0.2540    0.0000 O.2     1  LIG1       -0.2733
     17 N           1.8630   -1.4540    0.0000 N.am    1  LIG1       -0.2053
     18 C           1.2000   -2.1750    0.0000 C.3     1  LIG1        0.1177
     19 C           1.5130   -3.0920    0.0000 C.3     1  LIG1        0.0555
     20 C           2.4580   -3.2790    0.0000 C.3     1  LIG1        0.1441
     21 O           2.7750   -4.2210    0.0000 O.3     1  LIG1       -0.3510
     22 C           3.7420   -4.4170    0.0000 C.3     1  LIG1        0.1741
@<TRIPOS>BOND
     1     1     2   ar
     2     1     5   ar
     3     1    11   am
     4     2     3   ar
     5     3     4   ar
     6     3    10    1
     7     4     5   ar
     8     4     9   ar
     9     5     6   ar
    10     6     7   ar
    11     7     8   ar
    12     8     9   ar
    13    11    12    2
    14    11    13    1
    15    13    14    1
    16    14    15    1
    17    15    16    2
    18    15    17   am
    19    17    18    1
    20    18    19    1
    21    19    20    1
    22    20    21    1
    23    21    22    1
