@<TRIPOS>MOLECULE
37978_ChemDiv_E002-0987
 27 29 0 0 0
SMALL
GASTEIGER
Energy = 0

@<TRIPOS>ATOM
      1 N          -1.0380    3.1000    0.0000 N.ar    1  LIG1       -0.1982
      2 N          -0.4630    3.9130    0.0000 N.ar    1  LIG1       -0.1671
      3 C          -1.0380    4.7080    0.0000 C.ar    1  LIG1        0.0808
      4 C          -1.9960    4.4040    0.0000 C.ar    1  LIG1        0.0330
      5 C          -1.9960    3.4130    0.0000 C.ar    1  LIG1        0.0868
      6 C          -2.8670    2.9130    0.0000 C.ar    1  LIG1        0.0193
      7 C          -3.7330    3.4000    0.0000 C.ar    1  LIG1        0.0015
      8 C          -3.7330    4.4040    0.0000 C.ar    1  LIG1        0.0001
      9 C          -2.8670    4.9210    0.0000 C.ar    1  LIG1        0.0027
     10 C          -0.7330    5.6670    0.0000 C.3     1  LIG1        0.0540
     11 C          -0.7330    2.1540    0.0000 C.2     1  LIG1        0.2568
     12 O          -1.4170    1.3960    0.0000 O.2     1  LIG1       -0.2702
     13 C           0.2500    1.9420    0.0000 C.3     1  LIG1        0.0905
     14 C           0.5630    0.9880    0.0000 C.3     1  LIG1        0.0195
     15 C           1.5380    0.7670    0.0000 C.3     1  LIG1        0.0873
     16 C           1.8420   -0.1750    0.0000 C.2     1  LIG1        0.2417
     17 N           1.1750   -0.9210    0.0000 N.am    1  LIG1       -0.2006
     18 C           0.9170   -1.8880    0.0000 C.3     1  LIG1        0.1415
     19 C           1.6130   -2.5830    0.0000 C.ar    1  LIG1       -0.0006
     20 C           1.3540   -3.5500    0.0000 C.ar    1  LIG1       -0.0029
     21 C           2.0500   -4.2500    0.0000 C.ar    1  LIG1       -0.0045
     22 C           3.0210   -3.9920    0.0000 C.ar    1  LIG1       -0.0222
     23 C           3.2790   -3.0250    0.0000 C.ar    1  LIG1       -0.0045
     24 C           2.5670   -2.3290    0.0000 C.ar    1  LIG1       -0.0029
     25 C           3.7290   -4.7040    0.0000 C.3     1  LIG1        0.0264
     26 C           3.4710   -5.6670    0.0000 C.3     1  LIG1        0.0050
     27 O           2.8210   -0.3880    0.0000 O.2     1  LIG1       -0.2733
@<TRIPOS>BOND
     1     1     2   ar
     2     1     5   ar
     3     1    11   am
     4     2     3   ar
     5     3     4   ar
     6     3    10    1
     7     4     5   ar
     8     4     9   ar
     9     5     6   ar
    10     6     7   ar
    11     7     8   ar
    12     8     9   ar
    13    11    12    2
    14    11    13    1
    15    13    14    1
    16    14    15    1
    17    15    16    1
    18    16    17   am
    19    16    27    2
    20    17    18    1
    21    18    19    1
    22    19    20   ar
    23    19    24   ar
    24    20    21   ar
    25    21    22   ar
    26    22    23   ar
    27    22    25    1
    28    23    24   ar
    29    25    26    1
