@<TRIPOS>MOLECULE
37972_ChemDiv_E002-0924
 27 29 0 0 0
SMALL
GASTEIGER
Energy = 0

@<TRIPOS>ATOM
      1 N          -0.1580    2.9170    0.0000 N.ar    1  LIG1       -0.1979
      2 N           0.4330    3.7250    0.0000 N.ar    1  LIG1       -0.1612
      3 C          -0.1580    4.5210    0.0000 C.ar    1  LIG1        0.1221
      4 C          -1.1130    4.2130    0.0000 C.ar    1  LIG1        0.0384
      5 C          -1.1130    3.2170    0.0000 C.ar    1  LIG1        0.0872
      6 C          -1.9750    2.7210    0.0000 C.ar    1  LIG1        0.0190
      7 C          -2.8380    3.2170    0.0000 C.ar    1  LIG1       -0.0027
      8 C          -2.8380    4.2130    0.0000 C.ar    1  LIG1       -0.0217
      9 C          -1.9750    4.7290    0.0000 C.ar    1  LIG1       -0.0011
     10 C          -3.7040    4.7130    0.0000 C.3     1  LIG1        0.0310
     11 C           0.1540    1.9630    0.0000 C.2     1  LIG1        0.2568
     12 O          -0.5210    1.2130    0.0000 O.2     1  LIG1       -0.2702
     13 C           1.1380    1.7500    0.0000 C.3     1  LIG1        0.0905
     14 C           1.4460    0.7960    0.0000 C.3     1  LIG1        0.0195
     15 C           2.4250    0.5830    0.0000 C.3     1  LIG1        0.0873
     16 C           2.7290   -0.3630    0.0000 C.2     1  LIG1        0.2414
     17 O           3.7000   -0.5790    0.0000 O.2     1  LIG1       -0.2733
     18 N           2.0630   -1.1130    0.0000 N.am    1  LIG1       -0.2052
     19 C           1.7960   -2.0750    0.0000 C.3     1  LIG1        0.1213
     20 C           0.8250   -2.3210    0.0000 C.3     1  LIG1        0.0861
     21 C           0.5540   -3.2750    0.0000 C.3     1  LIG1        0.1407
     22 N          -0.4170   -3.5250    0.0000 N.4     1  LIG1        0.3813
     23 C          -1.1130   -2.8040    0.0000 C.3     1  LIG1        0.1713
     24 C          -2.0710   -3.0460    0.0000 C.3     1  LIG1        0.2047
     25 O          -2.3420   -4.0170    0.0000 O.3     1  LIG1       -0.3411
     26 C          -1.6460   -4.7290    0.0000 C.3     1  LIG1        0.2047
     27 C          -0.6750   -4.4880    0.0000 C.3     1  LIG1        0.1713
@<TRIPOS>BOND
     1     1     2   ar
     2     1     5   ar
     3     1    11   am
     4     2     3   ar
     5     3     4   ar
     6     4     5   ar
     7     4     9   ar
     8     5     6   ar
     9     6     7   ar
    10     7     8   ar
    11     8     9   ar
    12     8    10    1
    13    11    12    2
    14    11    13    1
    15    13    14    1
    16    14    15    1
    17    15    16    1
    18    16    17    2
    19    16    18   am
    20    18    19    1
    21    19    20    1
    22    20    21    1
    23    21    22    1
    24    22    23    1
    25    22    27    1
    26    23    24    1
    27    24    25    1
    28    25    26    1
    29    26    27    1
