@<TRIPOS>MOLECULE
37971_ChemDiv_C737-3018
 34 38 0 0 0
SMALL
GASTEIGER
Energy = 0

@<TRIPOS>ATOM
      1 S          -2.1790   -0.7210    0.0000 S.O2    1  LIG1        0.0651
      2 N          -1.5080   -1.4710    0.0000 N.3     1  LIG1       -0.1480
      3 C          -0.5040   -1.3630    0.0000 C.3     1  LIG1        0.1571
      4 C          -0.0040   -0.5000    0.0000 C.2     1  LIG1        0.2581
      5 N           0.9920   -0.5000    0.0000 N.am    1  LIG1       -0.1970
      6 C           1.4920    0.3670    0.0000 C.3     1  LIG1        0.1397
      7 C           0.9960    1.2290    0.0000 C.ar    1  LIG1        0.0016
      8 C           1.4960    2.0960    0.0000 C.ar    1  LIG1       -0.0023
      9 C           1.0000    2.9630    0.0000 C.ar    1  LIG1       -0.0003
     10 C           0.0000    2.9630    0.0000 C.ar    1  LIG1       -0.0000
     11 C          -0.5000    2.0960    0.0000 C.ar    1  LIG1       -0.0003
     12 C           0.0000    1.2330    0.0000 C.ar    1  LIG1       -0.0023
     13 C           2.4880    0.3670    0.0000 C.ar    1  LIG1        0.0016
     14 C           2.9880   -0.4920    0.0000 C.ar    1  LIG1       -0.0023
     15 C           3.9830   -0.4920    0.0000 C.ar    1  LIG1       -0.0003
     16 C           4.4960    0.3670    0.0000 C.ar    1  LIG1       -0.0000
     17 C           3.9830    1.2330    0.0000 C.ar    1  LIG1       -0.0003
     18 C           2.9880    1.2330    0.0000 C.ar    1  LIG1       -0.0023
     19 O          -0.5040    0.3670    0.0000 O.2     1  LIG1       -0.2718
     20 C          -0.0960   -2.2830    0.0000 C.3     1  LIG1        0.0286
     21 C          -0.8500   -2.9580    0.0000 C.3     1  LIG1        0.0211
     22 C          -1.7210   -2.4540    0.0000 C.3     1  LIG1        0.0964
     23 C          -2.8500    0.0210    0.0000 C.ar    1  LIG1        0.1397
     24 C          -2.5500    0.9750    0.0000 C.ar    1  LIG1        0.0998
     25 N          -1.5670    1.1880    0.0000 N.ar    1  LIG1       -0.2425
     26 C          -1.2750    2.1290    0.0000 C.ar    1  LIG1        0.0989
     27 C          -1.9460    2.8750    0.0000 C.ar    1  LIG1        0.0207
     28 C          -2.9170    2.6630    0.0000 C.ar    1  LIG1        0.0031
     29 C          -3.2170    1.7130    0.0000 C.ar    1  LIG1        0.0190
     30 C          -4.1960    1.5000    0.0000 C.ar    1  LIG1        0.0016
     31 C          -4.5000    0.5580    0.0000 C.ar    1  LIG1        0.0015
     32 C          -3.8210   -0.1920    0.0000 C.ar    1  LIG1        0.0215
     33 O          -2.9210   -1.3920    0.0000 O.2     1  LIG1       -0.1527
     34 O          -1.4380   -0.0500    0.0000 O.2     1  LIG1       -0.1527
@<TRIPOS>BOND
     1     1     2    1
     2     1    23    1
     3     1    33    2
     4     1    34    2
     5     2     3    1
     6     2    22    1
     7     3     4    1
     8     3    20    1
     9     4     5   am
    10     4    19    2
    11     5     6    1
    12     6     7    1
    13     6    13    1
    14     7     8   ar
    15     7    12   ar
    16     8     9   ar
    17     9    10   ar
    18    10    11   ar
    19    11    12   ar
    20    13    14   ar
    21    13    18   ar
    22    14    15   ar
    23    15    16   ar
    24    16    17   ar
    25    17    18   ar
    26    20    21    1
    27    21    22    1
    28    23    24   ar
    29    23    32   ar
    30    24    25   ar
    31    24    29   ar
    32    25    26   ar
    33    26    27   ar
    34    27    28   ar
    35    28    29   ar
    36    29    30   ar
    37    30    31   ar
    38    31    32   ar
