@<TRIPOS>MOLECULE
37976_ChemDiv_E002-0981
 30 32 0 0 0
SMALL
GASTEIGER
Energy = 0

@<TRIPOS>ATOM
      1 N          -0.5830    3.7040    0.0000 N.ar    1  LIG1       -0.1982
      2 N          -0.0080    4.5130    0.0000 N.ar    1  LIG1       -0.1671
      3 C          -0.5830    5.3130    0.0000 C.ar    1  LIG1        0.0808
      4 C          -1.5420    5.0130    0.0000 C.ar    1  LIG1        0.0330
      5 C          -1.5420    4.0130    0.0000 C.ar    1  LIG1        0.0868
      6 C          -2.4130    3.5170    0.0000 C.ar    1  LIG1        0.0193
      7 C          -3.2750    4.0040    0.0000 C.ar    1  LIG1        0.0015
      8 C          -3.2750    5.0130    0.0000 C.ar    1  LIG1        0.0001
      9 C          -2.4130    5.5250    0.0000 C.ar    1  LIG1        0.0027
     10 C          -0.2790    6.2750    0.0000 C.3     1  LIG1        0.0540
     11 C          -0.2790    2.7630    0.0000 C.2     1  LIG1        0.2568
     12 O          -0.9580    2.0040    0.0000 O.2     1  LIG1       -0.2702
     13 C           0.7040    2.5500    0.0000 C.3     1  LIG1        0.0905
     14 C           1.0170    1.5960    0.0000 C.3     1  LIG1        0.0195
     15 C           1.9920    1.3750    0.0000 C.3     1  LIG1        0.0873
     16 C           2.2920    0.4290    0.0000 C.2     1  LIG1        0.2414
     17 O           3.2710    0.2210    0.0000 O.2     1  LIG1       -0.2733
     18 N           1.6290   -0.3130    0.0000 N.am    1  LIG1       -0.2051
     19 C           1.3710   -1.2790    0.0000 C.3     1  LIG1        0.1198
     20 C           2.0670   -1.9750    0.0000 C.3     1  LIG1        0.0499
     21 C           1.8080   -2.9460    0.0000 C.ar    1  LIG1       -0.0172
     22 C           2.5210   -3.6420    0.0000 C.ar    1  LIG1        0.0358
     23 C           2.2630   -4.6080    0.0000 C.ar    1  LIG1        0.1721
     24 C           1.2960   -4.8670    0.0000 C.ar    1  LIG1        0.1724
     25 C           0.5830   -4.1630    0.0000 C.ar    1  LIG1        0.0397
     26 C           0.8500   -3.2000    0.0000 C.ar    1  LIG1       -0.0009
     27 O           1.0380   -5.8330    0.0000 O.3     1  LIG1       -0.4684
     28 C           0.0670   -6.0920    0.0000 C.3     1  LIG1        0.2526
     29 O           2.9710   -5.3130    0.0000 O.3     1  LIG1       -0.4684
     30 C           2.7170   -6.2750    0.0000 C.3     1  LIG1        0.2526
@<TRIPOS>BOND
     1     1     2   ar
     2     1     5   ar
     3     1    11   am
     4     2     3   ar
     5     3     4   ar
     6     3    10    1
     7     4     5   ar
     8     4     9   ar
     9     5     6   ar
    10     6     7   ar
    11     7     8   ar
    12     8     9   ar
    13    11    12    2
    14    11    13    1
    15    13    14    1
    16    14    15    1
    17    15    16    1
    18    16    17    2
    19    16    18   am
    20    18    19    1
    21    19    20    1
    22    20    21    1
    23    21    22   ar
    24    21    26   ar
    25    22    23   ar
    26    23    24   ar
    27    23    29    1
    28    24    25   ar
    29    24    27    1
    30    25    26   ar
    31    27    28    1
    32    29    30    1
