@<TRIPOS>MOLECULE
37984_ChemDiv_E002-1149
 23 24 0 0 0
SMALL
GASTEIGER
Energy = 0

@<TRIPOS>ATOM
      1 N          -0.1500    1.6330    0.0000 N.ar    1  LIG1       -0.1979
      2 N           0.4330    2.4420    0.0000 N.ar    1  LIG1       -0.1612
      3 C          -0.1500    3.2420    0.0000 C.ar    1  LIG1        0.1221
      4 C          -1.1130    2.9420    0.0000 C.ar    1  LIG1        0.0384
      5 C          -1.1130    1.9380    0.0000 C.ar    1  LIG1        0.0872
      6 C          -1.9710    1.4380    0.0000 C.ar    1  LIG1        0.0190
      7 C          -2.8330    1.9380    0.0000 C.ar    1  LIG1       -0.0027
      8 C          -2.8330    2.9420    0.0000 C.ar    1  LIG1       -0.0217
      9 C          -1.9710    3.4500    0.0000 C.ar    1  LIG1       -0.0011
     10 C          -3.7000    3.4420    0.0000 C.3     1  LIG1        0.0310
     11 C           0.1580    0.6830    0.0000 C.2     1  LIG1        0.2568
     12 O          -0.5210   -0.0670    0.0000 O.2     1  LIG1       -0.2702
     13 C           1.1420    0.4710    0.0000 C.3     1  LIG1        0.0905
     14 C           1.4460   -0.4830    0.0000 C.3     1  LIG1        0.0195
     15 C           2.4290   -0.6920    0.0000 C.3     1  LIG1        0.0873
     16 C           2.7290   -1.6460    0.0000 C.2     1  LIG1        0.2416
     17 O           3.6960   -1.8580    0.0000 O.2     1  LIG1       -0.2733
     18 N           2.0580   -2.3880    0.0000 N.am    1  LIG1       -0.1990
     19 C           1.0830   -2.1750    0.0000 C.3     1  LIG1        0.1775
     20 C           0.4130   -2.9170    0.0000 C.3     1  LIG1        0.1630
     21 N          -0.5670   -2.7040    0.0000 N.4     1  LIG1        0.3881
     22 C          -1.2330   -3.4460    0.0000 C.3     1  LIG1        0.2026
     23 C          -0.8710   -1.7630    0.0000 C.3     1  LIG1        0.2026
@<TRIPOS>BOND
     1     1     2   ar
     2     1     5   ar
     3     1    11   am
     4     2     3   ar
     5     3     4   ar
     6     4     5   ar
     7     4     9   ar
     8     5     6   ar
     9     6     7   ar
    10     7     8   ar
    11     8     9   ar
    12     8    10    1
    13    11    12    2
    14    11    13    1
    15    13    14    1
    16    14    15    1
    17    15    16    1
    18    16    17    2
    19    16    18   am
    20    18    19    1
    21    19    20    1
    22    20    21    1
    23    21    22    1
    24    21    23    1
