@<TRIPOS>MOLECULE
37986_ChemDiv_C875-0540
 33 36 0 0 0
SMALL
GASTEIGER
Energy = 0

@<TRIPOS>ATOM
      1 C          -0.1380    1.6670    0.0000 C.ar    1  LIG1        0.1720
      2 N          -0.7290    0.8500    0.0000 N.ar    1  LIG1       -0.2965
      3 C          -1.6790    1.1580    0.0000 C.ar    1  LIG1        0.0990
      4 C          -1.6790    2.1630    0.0000 C.ar    1  LIG1        0.1023
      5 N          -0.7290    2.4710    0.0000 N.ar    1  LIG1       -0.2210
      6 C          -2.5500    2.6630    0.0000 C.ar    1  LIG1        0.0413
      7 C          -3.4080    2.1540    0.0000 C.ar    1  LIG1        0.1005
      8 N          -3.4080    1.1580    0.0000 N.ar    1  LIG1       -0.2407
      9 C          -2.5500    0.6630    0.0000 C.ar    1  LIG1        0.1176
     10 C          -0.4250   -0.1000    0.0000 C.3     1  LIG1        0.1954
     11 C           0.5500   -0.3080    0.0000 C.2     1  LIG1        0.2687
     12 N           0.8580   -1.2710    0.0000 N.am    1  LIG1       -0.1775
     13 C           0.4170   -2.1580    0.0000 C.ar    1  LIG1        0.0766
     14 C           0.9630   -3.0040    0.0000 C.ar    1  LIG1        0.0566
     15 C           0.5040   -3.8920    0.0000 C.ar    1  LIG1        0.1737
     16 C          -0.4920   -3.9420    0.0000 C.ar    1  LIG1        0.1725
     17 C          -1.0420   -3.0920    0.0000 C.ar    1  LIG1        0.0414
     18 C          -0.5790   -2.2040    0.0000 C.ar    1  LIG1        0.0199
     19 O          -0.9500   -4.8330    0.0000 O.3     1  LIG1       -0.4684
     20 C          -1.9460   -4.6170    0.0000 C.3     1  LIG1        0.2526
     21 O           1.0500   -4.7250    0.0000 O.3     1  LIG1       -0.4683
     22 C           0.8250   -5.7080    0.0000 C.3     1  LIG1        0.2526
     23 O           1.2210    0.4330    0.0000 O.2     1  LIG1       -0.2709
     24 S           0.8580    1.6670    0.0000 S.3     1  LIG1       -0.0725
     25 C           1.5630    2.3750    0.0000 C.3     1  LIG1        0.0914
     26 C           1.2960    3.3380    0.0000 C.ar    1  LIG1       -0.0079
     27 C           2.0040    4.0420    0.0000 C.ar    1  LIG1        0.0335
     28 C           1.7460    5.0080    0.0000 C.ar    1  LIG1        0.1384
     29 O           2.4420    5.7080    0.0000 O.3     1  LIG1       -0.4714
     30 C           3.4040    5.4630    0.0000 C.3     1  LIG1        0.2525
     31 C           0.7750    5.2670    0.0000 C.ar    1  LIG1        0.0369
     32 C           0.0750    4.5460    0.0000 C.ar    1  LIG1        0.0028
     33 C           0.3290    3.5960    0.0000 C.ar    1  LIG1       -0.0032
@<TRIPOS>BOND
     1     1     2   ar
     2     1     5   ar
     3     1    24    1
     4     2     3   ar
     5     2    10    1
     6     3     4   ar
     7     3     9   ar
     8     4     5   ar
     9     4     6   ar
    10     6     7   ar
    11     7     8   ar
    12     8     9   ar
    13    10    11    1
    14    11    12   am
    15    11    23    2
    16    12    13    1
    17    13    14   ar
    18    13    18   ar
    19    14    15   ar
    20    15    16   ar
    21    15    21    1
    22    16    17   ar
    23    16    19    1
    24    17    18   ar
    25    19    20    1
    26    21    22    1
    27    24    25    1
    28    25    26    1
    29    26    27   ar
    30    26    33   ar
    31    27    28   ar
    32    28    29    1
    33    28    31   ar
    34    29    30    1
    35    31    32   ar
    36    32    33   ar
