@<TRIPOS>MOLECULE
37989_ChemDiv_C783-0403
 26 28 0 0 0
SMALL
GASTEIGER
Energy = 0

@<TRIPOS>ATOM
      1 S          -1.9880    0.3750    0.0000 S.O2    1  LIG1        0.0636
      2 N          -0.9920    0.3750    0.0000 N.3     1  LIG1       -0.1507
      3 C          -0.4920   -0.4830    0.0000 C.3     1  LIG1        0.1216
      4 C           0.5080   -0.4830    0.0000 C.2     1  LIG1       -0.0067
      5 C           1.0080    0.3750    0.0000 C.2     1  LIG1        0.0318
      6 C           2.0080    0.3670    0.0000 C.2     1  LIG1        0.2665
      7 N           2.5000   -0.5000    0.0000 N.am    1  LIG1       -0.1493
      8 C           3.5040   -0.5040    0.0000 C.ar    1  LIG1        0.2079
      9 S           4.1710    0.2420    0.0000 S.2     1  LIG1       -0.0330
     10 C           5.0880   -0.1710    0.0000 C.ar    1  LIG1        0.1124
     11 N           4.9880   -1.1540    0.0000 N.ar    1  LIG1       -0.1440
     12 N           4.0040   -1.3710    0.0000 N.ar    1  LIG1       -0.1239
     13 C           5.9710    0.3250    0.0000 C.3     1  LIG1        0.0545
     14 C           5.9790    1.3250    0.0000 C.3     1  LIG1        0.0073
     15 O           2.5080    1.2420    0.0000 O.2     1  LIG1       -0.2683
     16 C           0.5080    1.2420    0.0000 C.3     1  LIG1        0.0499
     17 C          -0.4920    1.2420    0.0000 C.3     1  LIG1        0.1010
     18 C          -2.9880    0.3750    0.0000 C.ar    1  LIG1        0.1224
     19 C          -3.4880    1.2420    0.0000 C.ar    1  LIG1        0.0222
     20 C          -4.4880    1.2420    0.0000 C.ar    1  LIG1        0.0310
     21 C          -4.9880    0.3750    0.0000 C.ar    1  LIG1        0.1402
     22 C          -4.4880   -0.4880    0.0000 C.ar    1  LIG1        0.0310
     23 C          -3.4880   -0.4880    0.0000 C.ar    1  LIG1        0.0222
     24 F          -5.9830    0.3750    0.0000 F       1  LIG1       -0.2042
     25 O          -1.9880   -0.6210    0.0000 O.2     1  LIG1       -0.1528
     26 O          -1.9880    1.3750    0.0000 O.2     1  LIG1       -0.1528
@<TRIPOS>BOND
     1     1     2    1
     2     1    18    1
     3     1    25    2
     4     1    26    2
     5     2     3    1
     6     2    17    1
     7     3     4    1
     8     4     5    2
     9     5     6    1
    10     5    16    1
    11     6     7   am
    12     6    15    2
    13     7     8    1
    14     8     9   ar
    15     8    12   ar
    16     9    10   ar
    17    10    11   ar
    18    10    13    1
    19    11    12   ar
    20    13    14    1
    21    16    17    1
    22    18    19   ar
    23    18    23   ar
    24    19    20   ar
    25    20    21   ar
    26    21    22   ar
    27    21    24    1
    28    22    23   ar
