@<TRIPOS>MOLECULE
37983_ChemDiv_C753-1054
 31 34 0 0 0
SMALL
GASTEIGER
Energy = 0

@<TRIPOS>ATOM
      1 N           4.7580   -1.5540    0.0000 N.ar    1  LIG1       -0.3244
      2 C           3.8500   -1.1920    0.0000 C.ar    1  LIG1        0.0758
      3 C           3.2080   -1.9710    0.0000 C.ar    1  LIG1        0.0585
      4 C           3.7420   -2.8040    0.0000 C.ar    1  LIG1        0.0190
      5 C           4.7000   -2.5420    0.0000 C.ar    1  LIG1        0.0598
      6 C           5.4000   -3.2540    0.0000 C.ar    1  LIG1        0.0172
      7 C           5.1420   -4.2080    0.0000 C.ar    1  LIG1        0.0015
      8 C           4.1710   -4.4750    0.0000 C.ar    1  LIG1        0.0001
      9 C           3.4710   -3.7580    0.0000 C.ar    1  LIG1        0.0014
     10 C           2.2040   -1.9080    0.0000 C.3     1  LIG1        0.2299
     11 N           1.7500   -1.0250    0.0000 N.4     1  LIG1        0.4521
     12 C           0.7500   -0.9710    0.0000 C.3     1  LIG1        0.2074
     13 C           0.2920   -0.0880    0.0000 C.3     1  LIG1        0.1313
     14 C          -0.7170   -0.0500    0.0000 C.3     1  LIG1        0.1450
     15 N          -1.1830    0.8380    0.0000 N.4     1  LIG1        0.3774
     16 C          -0.6580    1.6830    0.0000 C.3     1  LIG1        0.1386
     17 C          -1.1250    2.5790    0.0000 C.3     1  LIG1        0.0632
     18 C          -2.1250    2.6170    0.0000 C.3     1  LIG1        0.0162
     19 C          -2.5880    3.5170    0.0000 C.3     1  LIG1        0.0268
     20 C          -3.6040    3.5630    0.0000 C.ar    1  LIG1       -0.0222
     21 C          -4.0710    4.4290    0.0000 C.ar    1  LIG1       -0.0043
     22 C          -5.0710    4.4750    0.0000 C.ar    1  LIG1       -0.0003
     23 C          -5.6040    3.6330    0.0000 C.ar    1  LIG1       -0.0000
     24 C          -5.1380    2.7500    0.0000 C.ar    1  LIG1       -0.0003
     25 C          -4.1380    2.7000    0.0000 C.ar    1  LIG1       -0.0043
     26 C          -2.6540    1.7540    0.0000 C.3     1  LIG1        0.0632
     27 C          -2.1920    0.8710    0.0000 C.3     1  LIG1        0.1386
     28 C           3.6330   -0.2130    0.0000 C.2     1  LIG1        0.0885
     29 O           2.6920    0.0830    0.0000 O.co2   1  LIG1       -0.5431
     30 O           4.3750    0.4540    0.0000 O.co2   1  LIG1       -0.5431
     31 C           5.6000   -1.0040    0.0000 C.3     1  LIG1        0.1305
@<TRIPOS>BOND
     1     1     2   ar
     2     1     5   ar
     3     1    31    1
     4     2     3   ar
     5     2    28    1
     6     3     4   ar
     7     3    10    1
     8     4     5   ar
     9     4     9   ar
    10     5     6   ar
    11     6     7   ar
    12     7     8   ar
    13     8     9   ar
    14    10    11    1
    15    11    12    1
    16    12    13    1
    17    13    14    1
    18    14    15    1
    19    15    16    1
    20    15    27    1
    21    16    17    1
    22    17    18    1
    23    18    19    1
    24    18    26    1
    25    19    20    1
    26    20    21   ar
    27    20    25   ar
    28    21    22   ar
    29    22    23   ar
    30    23    24   ar
    31    24    25   ar
    32    26    27    1
    33    28    29   ar
    34    28    30   ar
