@<TRIPOS>MOLECULE
37985_ChemDiv_C751-0441
 30 33 0 0 0
SMALL
GASTEIGER
Energy = 0

@<TRIPOS>ATOM
      1 S          -0.8460   -2.8330    0.0000 S.O2    1  LIG1        0.0636
      2 N           0.0830   -2.4750    0.0000 N.3     1  LIG1       -0.1507
      3 C           0.8750   -3.1130    0.0000 C.3     1  LIG1        0.1216
      4 C           1.8040   -2.7540    0.0000 C.2     1  LIG1       -0.0068
      5 C           1.9580   -1.7670    0.0000 C.2     1  LIG1        0.0299
      6 C           2.9040   -1.4080    0.0000 C.2     1  LIG1        0.2449
      7 N           3.0630   -0.4290    0.0000 N.am    1  LIG1       -0.2728
      8 C           3.9960   -0.0790    0.0000 C.3     1  LIG1        0.1151
      9 C           4.1540    0.9170    0.0000 C.3     1  LIG1        0.1123
     10 N           3.3750    1.5460    0.0000 N.pl3   1  LIG1       -0.3041
     11 C           2.4500    1.1920    0.0000 C.3     1  LIG1        0.1123
     12 C           2.2920    0.2080    0.0000 C.3     1  LIG1        0.1151
     13 C           3.5330    2.5380    0.0000 C.ar    1  LIG1        0.0479
     14 C           4.4630    2.9000    0.0000 C.ar    1  LIG1        0.0145
     15 C           4.6130    3.8960    0.0000 C.ar    1  LIG1        0.0013
     16 C           3.8330    4.5170    0.0000 C.ar    1  LIG1        0.0001
     17 C           2.9040    4.1460    0.0000 C.ar    1  LIG1        0.0013
     18 C           2.7540    3.1670    0.0000 C.ar    1  LIG1        0.0145
     19 O           3.6750   -2.0460    0.0000 O.2     1  LIG1       -0.2703
     20 C           1.1880   -1.1290    0.0000 C.3     1  LIG1        0.0498
     21 C           0.2540   -1.4880    0.0000 C.3     1  LIG1        0.1010
     22 C          -1.7880   -3.1880    0.0000 C.ar    1  LIG1        0.1222
     23 C          -1.9630   -4.1710    0.0000 C.ar    1  LIG1        0.0204
     24 C          -2.8880   -4.5170    0.0000 C.ar    1  LIG1        0.0081
     25 C          -3.6630   -3.8670    0.0000 C.ar    1  LIG1        0.0346
     26 C          -3.4830   -2.9080    0.0000 C.ar    1  LIG1        0.0081
     27 C          -2.5540   -2.5580    0.0000 C.ar    1  LIG1        0.0204
     28 BR         -4.6170   -4.1920    0.0000 Br      1  LIG1       -0.0490
     29 O          -0.4920   -3.7710    0.0000 O.2     1  LIG1       -0.1528
     30 O          -1.2040   -1.8920    0.0000 O.2     1  LIG1       -0.1528
@<TRIPOS>BOND
     1     1     2    1
     2     1    22    1
     3     1    29    2
     4     1    30    2
     5     2     3    1
     6     2    21    1
     7     3     4    1
     8     4     5    2
     9     5     6    1
    10     5    20    1
    11     6     7   am
    12     6    19    2
    13     7     8    1
    14     7    12    1
    15     8     9    1
    16     9    10    1
    17    10    11    1
    18    10    13    1
    19    11    12    1
    20    13    14   ar
    21    13    18   ar
    22    14    15   ar
    23    15    16   ar
    24    16    17   ar
    25    17    18   ar
    26    20    21    1
    27    22    23   ar
    28    22    27   ar
    29    23    24   ar
    30    24    25   ar
    31    25    26   ar
    32    25    28    1
    33    26    27   ar
