@<TRIPOS>MOLECULE
37982_ChemDiv_E002-1072
 21 23 0 0 0
SMALL
GASTEIGER
Energy = 0

@<TRIPOS>ATOM
      1 N          -0.5880    1.1710    0.0000 N.ar    1  LIG1       -0.1982
      2 N          -0.0040    1.9750    0.0000 N.ar    1  LIG1       -0.1671
      3 C          -0.5880    2.7750    0.0000 C.ar    1  LIG1        0.0808
      4 C          -1.5420    2.4710    0.0000 C.ar    1  LIG1        0.0330
      5 C          -1.5420    1.4750    0.0000 C.ar    1  LIG1        0.0868
      6 C          -2.4080    0.9750    0.0000 C.ar    1  LIG1        0.0193
      7 C          -3.2670    1.4750    0.0000 C.ar    1  LIG1        0.0015
      8 C          -3.2670    2.4710    0.0000 C.ar    1  LIG1        0.0001
      9 C          -2.4080    2.9880    0.0000 C.ar    1  LIG1        0.0027
     10 C          -0.2750    3.7250    0.0000 C.3     1  LIG1        0.0540
     11 C          -0.2750    0.2210    0.0000 C.2     1  LIG1        0.2573
     12 C           0.7040    0.0080    0.0000 C.3     1  LIG1        0.0995
     13 C           1.0130   -0.9420    0.0000 C.3     1  LIG1        0.0951
     14 C           1.9880   -1.1630    0.0000 C.2     1  LIG1        0.2261
     15 N           2.3080   -2.1040    0.0000 N.am    1  LIG1       -0.2795
     16 C           1.7210   -2.9170    0.0000 C.3     1  LIG1        0.0935
     17 C           2.3130   -3.7210    0.0000 C.3     1  LIG1        0.0233
     18 C           3.2630   -3.4040    0.0000 C.3     1  LIG1        0.0233
     19 C           3.2580   -2.4080    0.0000 C.3     1  LIG1        0.0935
     20 O           2.6710   -0.4130    0.0000 O.2     1  LIG1       -0.2749
     21 O          -0.9540   -0.5290    0.0000 O.2     1  LIG1       -0.2701
@<TRIPOS>BOND
     1     1     2   ar
     2     1     5   ar
     3     1    11   am
     4     2     3   ar
     5     3     4   ar
     6     3    10    1
     7     4     5   ar
     8     4     9   ar
     9     5     6   ar
    10     6     7   ar
    11     7     8   ar
    12     8     9   ar
    13    11    12    1
    14    11    21    2
    15    12    13    1
    16    13    14    1
    17    14    15   am
    18    14    20    2
    19    15    16    1
    20    15    19    1
    21    16    17    1
    22    17    18    1
    23    18    19    1
