@<TRIPOS>MOLECULE
37988_ChemDiv_C875-0581
 33 36 0 0 0
SMALL
GASTEIGER
Energy = 0

@<TRIPOS>ATOM
      1 C           0.6710    0.3540    0.0000 C.ar    1  LIG1        0.1719
      2 N           0.0790   -0.4630    0.0000 N.ar    1  LIG1       -0.2985
      3 C          -0.8710   -0.1540    0.0000 C.ar    1  LIG1        0.0990
      4 C          -0.8710    0.8500    0.0000 C.ar    1  LIG1        0.1023
      5 N           0.0790    1.1580    0.0000 N.ar    1  LIG1       -0.2210
      6 C          -1.7420    1.3500    0.0000 C.ar    1  LIG1        0.0413
      7 C          -2.6000    0.8420    0.0000 C.ar    1  LIG1        0.1005
      8 N          -2.6000   -0.1540    0.0000 N.ar    1  LIG1       -0.2407
      9 C          -1.7420   -0.6500    0.0000 C.ar    1  LIG1        0.1176
     10 C           0.3830   -1.4080    0.0000 C.3     1  LIG1        0.1655
     11 C          -0.2790   -2.1580    0.0000 C.2     1  LIG1        0.2663
     12 N          -1.2580   -1.9540    0.0000 N.am    1  LIG1       -0.1746
     13 C          -1.9210   -2.6920    0.0000 C.ar    1  LIG1        0.1072
     14 C          -2.9040   -2.4920    0.0000 C.ar    1  LIG1        0.1539
     15 O          -3.2210   -1.5420    0.0000 O.3     1  LIG1       -0.4701
     16 C          -4.2210   -1.5880    0.0000 C.3     1  LIG1        0.2525
     17 C          -3.5790   -3.2290    0.0000 C.ar    1  LIG1        0.0383
     18 C          -3.2630   -4.1830    0.0000 C.ar    1  LIG1        0.0032
     19 C          -2.2830   -4.3960    0.0000 C.ar    1  LIG1        0.0015
     20 C          -1.6130   -3.6500    0.0000 C.ar    1  LIG1        0.0197
     21 O           0.0330   -3.1080    0.0000 O.2     1  LIG1       -0.2709
     22 C           1.3670   -1.6210    0.0000 C.3     1  LIG1        0.0321
     23 C           2.0290   -0.8670    0.0000 C.3     1  LIG1        0.0025
     24 S           1.6670    0.3540    0.0000 S.3     1  LIG1       -0.0725
     25 C           2.3710    1.0630    0.0000 C.3     1  LIG1        0.0914
     26 C           2.1040    2.0290    0.0000 C.ar    1  LIG1       -0.0079
     27 C           2.8130    2.7380    0.0000 C.ar    1  LIG1        0.0335
     28 C           2.5580    3.7000    0.0000 C.ar    1  LIG1        0.1384
     29 O           3.2500    4.3960    0.0000 O.3     1  LIG1       -0.4714
     30 C           4.2170    4.1500    0.0000 C.3     1  LIG1        0.2525
     31 C           1.5880    3.9580    0.0000 C.ar    1  LIG1        0.0369
     32 C           0.8830    3.2380    0.0000 C.ar    1  LIG1        0.0028
     33 C           1.1380    2.2830    0.0000 C.ar    1  LIG1       -0.0032
@<TRIPOS>BOND
     1     1     2   ar
     2     1     5   ar
     3     1    24    1
     4     2     3   ar
     5     2    10    1
     6     3     4   ar
     7     3     9   ar
     8     4     5   ar
     9     4     6   ar
    10     6     7   ar
    11     7     8   ar
    12     8     9   ar
    13    10    11    1
    14    10    22    1
    15    11    12   am
    16    11    21    2
    17    12    13    1
    18    13    14   ar
    19    13    20   ar
    20    14    15    1
    21    14    17   ar
    22    15    16    1
    23    17    18   ar
    24    18    19   ar
    25    19    20   ar
    26    22    23    1
    27    24    25    1
    28    25    26    1
    29    26    27   ar
    30    26    33   ar
    31    27    28   ar
    32    28    29    1
    33    28    31   ar
    34    29    30    1
    35    31    32   ar
    36    32    33   ar
