@<TRIPOS>MOLECULE
37980_ChemDiv_E002-1056
 27 29 0 0 0
SMALL
GASTEIGER
Energy = 0

@<TRIPOS>ATOM
      1 N          -0.7130    3.2880    0.0000 N.ar    1  LIG1       -0.1982
      2 N          -0.1380    4.0960    0.0000 N.ar    1  LIG1       -0.1671
      3 C          -0.7130    4.9000    0.0000 C.ar    1  LIG1        0.0808
      4 C          -1.6750    4.5960    0.0000 C.ar    1  LIG1        0.0330
      5 C          -1.6750    3.6000    0.0000 C.ar    1  LIG1        0.0868
      6 C          -2.5500    3.1000    0.0000 C.ar    1  LIG1        0.0193
      7 C          -3.4130    3.5880    0.0000 C.ar    1  LIG1        0.0015
      8 C          -3.4130    4.5960    0.0000 C.ar    1  LIG1        0.0001
      9 C          -2.5500    5.1130    0.0000 C.ar    1  LIG1        0.0027
     10 C          -0.4130    5.8580    0.0000 C.3     1  LIG1        0.0540
     11 C          -0.4130    2.3420    0.0000 C.2     1  LIG1        0.2568
     12 O          -1.0920    1.5830    0.0000 O.2     1  LIG1       -0.2702
     13 C           0.5750    2.1290    0.0000 C.3     1  LIG1        0.0905
     14 C           0.8880    1.1750    0.0000 C.3     1  LIG1        0.0195
     15 C           1.8630    0.9500    0.0000 C.3     1  LIG1        0.0873
     16 C           2.1670    0.0080    0.0000 C.2     1  LIG1        0.2414
     17 O           3.1460   -0.2040    0.0000 O.2     1  LIG1       -0.2733
     18 N           1.5000   -0.7380    0.0000 N.am    1  LIG1       -0.2052
     19 C           1.2420   -1.7040    0.0000 C.3     1  LIG1        0.1213
     20 C           1.9380   -2.4040    0.0000 C.3     1  LIG1        0.0861
     21 C           1.4380   -3.2670    0.0000 C.3     1  LIG1        0.1407
     22 N           1.9250   -4.1290    0.0000 N.4     1  LIG1        0.3813
     23 C           1.4210   -4.9790    0.0000 C.3     1  LIG1        0.1713
     24 C           1.9080   -5.8420    0.0000 C.3     1  LIG1        0.2047
     25 O           2.9040   -5.8580    0.0000 O.3     1  LIG1       -0.3411
     26 C           3.4080   -4.9960    0.0000 C.3     1  LIG1        0.2047
     27 C           2.9170   -4.1290    0.0000 C.3     1  LIG1        0.1713
@<TRIPOS>BOND
     1     1     2   ar
     2     1     5   ar
     3     1    11   am
     4     2     3   ar
     5     3     4   ar
     6     3    10    1
     7     4     5   ar
     8     4     9   ar
     9     5     6   ar
    10     6     7   ar
    11     7     8   ar
    12     8     9   ar
    13    11    12    2
    14    11    13    1
    15    13    14    1
    16    14    15    1
    17    15    16    1
    18    16    17    2
    19    16    18   am
    20    18    19    1
    21    19    20    1
    22    20    21    1
    23    21    22    1
    24    22    23    1
    25    22    27    1
    26    23    24    1
    27    24    25    1
    28    25    26    1
    29    26    27    1
