@<TRIPOS>MOLECULE
37997_ChemDiv_C703-0870
 17 19 0 0 0
SMALL
GASTEIGER
Energy = 0

@<TRIPOS>ATOM
      1 C           0.2960    0.7380    0.0000 C.ar    1  LIG1        0.1148
      2 N          -0.0170    1.6880    0.0000 N.ar    1  LIG1       -0.3212
      3 C          -1.0040    1.6790    0.0000 C.ar    1  LIG1        0.0666
      4 C          -1.3040    0.7330    0.0000 C.ar    1  LIG1        0.0468
      5 C          -0.5000    0.1500    0.0000 C.ar    1  LIG1        0.0297
      6 S          -2.3040    0.7330    0.0000 S.2     1  LIG1       -0.0849
      7 C          -2.6290    1.6790    0.0000 C.ar    1  LIG1        0.0370
      8 C          -1.8210    2.2630    0.0000 C.ar    1  LIG1        0.0247
      9 C           0.5790    2.5130    0.0000 C.3     1  LIG1        0.1306
     10 C           1.2500    0.4210    0.0000 C.2     1  LIG1        0.2651
     11 N           1.4670   -0.5500    0.0000 N.am    1  LIG1       -0.2697
     12 C           0.7170   -1.2170    0.0000 C.3     1  LIG1        0.1258
     13 C           0.9170   -2.2000    0.0000 C.3     1  LIG1        0.1637
     14 O           1.8830   -2.5080    0.0000 O.3     1  LIG1       -0.3501
     15 C           2.6250   -1.8420    0.0000 C.3     1  LIG1        0.1637
     16 C           2.4170   -0.8670    0.0000 C.3     1  LIG1        0.1258
     17 O           1.9920    1.0880    0.0000 O.2     1  LIG1       -0.2683
@<TRIPOS>BOND
     1     1     2   ar
     2     1     5   ar
     3     1    10    1
     4     2     3   ar
     5     2     9    1
     6     3     4   ar
     7     3     8   ar
     8     4     5   ar
     9     4     6   ar
    10     6     7   ar
    11     7     8   ar
    12    10    11   am
    13    10    17    2
    14    11    12    1
    15    11    16    1
    16    12    13    1
    17    13    14    1
    18    14    15    1
    19    15    16    1
