@<TRIPOS>MOLECULE
37996_ChemDiv_C875-0869
 34 37 0 0 0
SMALL
GASTEIGER
Energy = 0

@<TRIPOS>ATOM
      1 C           0.3460    1.5830    0.0000 C.ar    1  LIG1        0.1720
      2 N          -0.2500    0.7670    0.0000 N.ar    1  LIG1       -0.2965
      3 C          -1.2000    1.0750    0.0000 C.ar    1  LIG1        0.0990
      4 C          -1.2000    2.0790    0.0000 C.ar    1  LIG1        0.1023
      5 N          -0.2500    2.3880    0.0000 N.ar    1  LIG1       -0.2210
      6 C          -2.0670    2.5790    0.0000 C.ar    1  LIG1        0.0413
      7 C          -2.9290    2.0710    0.0000 C.ar    1  LIG1        0.1005
      8 N          -2.9290    1.0750    0.0000 N.ar    1  LIG1       -0.2407
      9 C          -2.0670    0.5790    0.0000 C.ar    1  LIG1        0.1176
     10 C           0.0580   -0.1830    0.0000 C.3     1  LIG1        0.1954
     11 C           1.0380   -0.3920    0.0000 C.2     1  LIG1        0.2688
     12 N           1.3420   -1.3540    0.0000 N.am    1  LIG1       -0.1744
     13 C           0.6630   -2.0920    0.0000 C.ar    1  LIG1        0.1105
     14 C           0.9630   -3.0460    0.0000 C.ar    1  LIG1        0.1906
     15 C           0.2790   -3.7830    0.0000 C.ar    1  LIG1        0.2074
     16 C          -0.6880   -3.5580    0.0000 C.ar    1  LIG1        0.1755
     17 C          -0.9830   -2.6040    0.0000 C.ar    1  LIG1        0.0416
     18 C          -0.3080   -1.8710    0.0000 C.ar    1  LIG1        0.0230
     19 O          -1.3750   -4.3000    0.0000 O.3     1  LIG1       -0.4683
     20 C          -2.3540   -4.0710    0.0000 C.3     1  LIG1        0.2526
     21 O           0.5710   -4.7460    0.0000 O.3     1  LIG1       -0.4654
     22 C           0.1040   -5.6250    0.0000 C.3     1  LIG1        0.2528
     23 O           1.9420   -3.2710    0.0000 O.3     1  LIG1       -0.4669
     24 C           2.2290   -4.2330    0.0000 C.3     1  LIG1        0.2527
     25 O           1.7130    0.3460    0.0000 O.2     1  LIG1       -0.2709
     26 S           1.3420    1.5830    0.0000 S.3     1  LIG1       -0.0725
     27 C           2.0420    2.2920    0.0000 C.3     1  LIG1        0.0913
     28 C           1.7790    3.2580    0.0000 C.ar    1  LIG1       -0.0101
     29 C           2.4880    3.9670    0.0000 C.ar    1  LIG1        0.0080
     30 C           2.2290    4.9250    0.0000 C.ar    1  LIG1        0.0574
     31 CL          2.9250    5.6250    0.0000 Cl      1  LIG1       -0.0823
     32 C           1.2580    5.1830    0.0000 C.ar    1  LIG1        0.0114
     33 C           0.5540    4.4630    0.0000 C.ar    1  LIG1        0.0006
     34 C           0.8130    3.5130    0.0000 C.ar    1  LIG1       -0.0033
@<TRIPOS>BOND
     1     1     2   ar
     2     1     5   ar
     3     1    26    1
     4     2     3   ar
     5     2    10    1
     6     3     4   ar
     7     3     9   ar
     8     4     5   ar
     9     4     6   ar
    10     6     7   ar
    11     7     8   ar
    12     8     9   ar
    13    10    11    1
    14    11    12   am
    15    11    25    2
    16    12    13    1
    17    13    14   ar
    18    13    18   ar
    19    14    15   ar
    20    14    23    1
    21    15    16   ar
    22    15    21    1
    23    16    17   ar
    24    16    19    1
    25    17    18   ar
    26    19    20    1
    27    21    22    1
    28    23    24    1
    29    26    27    1
    30    27    28    1
    31    28    29   ar
    32    28    34   ar
    33    29    30   ar
    34    30    31    1
    35    30    32   ar
    36    32    33   ar
    37    33    34   ar
