@<TRIPOS>MOLECULE
37991_ChemDiv_K783-6531
 27 29 0 0 0
SMALL
GASTEIGER
Energy = 0

@<TRIPOS>ATOM
      1 S          -1.9420   -0.4710    0.0000 S.O2    1  LIG1        0.0636
      2 N          -1.0670    0.0210    0.0000 N.3     1  LIG1       -0.1507
      3 C          -0.2000   -0.5000    0.0000 C.3     1  LIG1        0.1216
      4 C           0.6710   -0.0130    0.0000 C.2     1  LIG1       -0.0068
      5 C           0.6920    0.9920    0.0000 C.2     1  LIG1        0.0314
      6 C           1.5630    1.4830    0.0000 C.2     1  LIG1        0.2609
      7 N           2.4210    0.9630    0.0000 N.am    1  LIG1       -0.1970
      8 C           3.4170    0.9670    0.0000 C.3     1  LIG1        0.1426
      9 C           3.9210    0.1130    0.0000 C.ar    1  LIG1        0.0100
     10 C           4.9040    0.1210    0.0000 C.ar    1  LIG1        0.0554
     11 CL          5.3920    0.9920    0.0000 Cl      1  LIG1       -0.0825
     12 C           5.4080   -0.7330    0.0000 C.ar    1  LIG1        0.0111
     13 C           4.9130   -1.6040    0.0000 C.ar    1  LIG1        0.0008
     14 C           3.9210   -1.6080    0.0000 C.ar    1  LIG1       -0.0002
     15 C           3.4170   -0.7500    0.0000 C.ar    1  LIG1       -0.0017
     16 O           1.5880    2.4790    0.0000 O.2     1  LIG1       -0.2687
     17 C          -0.1710    1.5130    0.0000 C.3     1  LIG1        0.0499
     18 C          -1.0540    1.0210    0.0000 C.3     1  LIG1        0.1010
     19 C          -2.8130   -0.9710    0.0000 C.ar    1  LIG1        0.1222
     20 C          -3.6790   -0.4710    0.0000 C.ar    1  LIG1        0.0196
     21 C          -4.5380   -0.9710    0.0000 C.ar    1  LIG1       -0.0029
     22 C          -4.5380   -1.9790    0.0000 C.ar    1  LIG1       -0.0218
     23 C          -3.6790   -2.4750    0.0000 C.ar    1  LIG1       -0.0029
     24 C          -2.8130   -1.9790    0.0000 C.ar    1  LIG1        0.0196
     25 C          -5.4130   -2.4750    0.0000 C.3     1  LIG1        0.0310
     26 O          -2.4290    0.4130    0.0000 O.2     1  LIG1       -0.1528
     27 O          -1.4710   -1.3380    0.0000 O.2     1  LIG1       -0.1528
@<TRIPOS>BOND
     1     1     2    1
     2     1    19    1
     3     1    26    2
     4     1    27    2
     5     2     3    1
     6     2    18    1
     7     3     4    1
     8     4     5    2
     9     5     6    1
    10     5    17    1
    11     6     7   am
    12     6    16    2
    13     7     8    1
    14     8     9    1
    15     9    10   ar
    16     9    15   ar
    17    10    11    1
    18    10    12   ar
    19    12    13   ar
    20    13    14   ar
    21    14    15   ar
    22    17    18    1
    23    19    20   ar
    24    19    24   ar
    25    20    21   ar
    26    21    22   ar
    27    22    23   ar
    28    22    25    1
    29    23    24   ar
