@<TRIPOS>MOLECULE
37995_ChemDiv_C700-1636
 19 21 0 0 0
SMALL
GASTEIGER
Energy = 0

@<TRIPOS>ATOM
      1 C           1.8080   -1.3920    0.0000 C.ar    1  LIG1        0.1631
      2 S           1.2080   -0.5790    0.0000 S.2     1  LIG1       -0.0514
      3 C           0.2580   -0.8960    0.0000 C.ar    1  LIG1        0.0524
      4 C          -0.6080   -0.3960    0.0000 C.ar    1  LIG1        0.0411
      5 C          -0.8210    0.5750    0.0000 C.ar    1  LIG1        0.0173
      6 C          -1.8130    0.6750    0.0000 C.ar    1  LIG1        0.1552
      7 O          -2.2080   -0.2330    0.0000 O.2     1  LIG1       -0.4527
      8 C          -1.4670   -0.8960    0.0000 C.ar    1  LIG1        0.1456
      9 C          -1.4670   -1.8920    0.0000 C.ar    1  LIG1        0.0391
     10 C          -0.6080   -2.4040    0.0000 C.ar    1  LIG1        0.0228
     11 C           0.2580   -1.8920    0.0000 C.ar    1  LIG1        0.0894
     12 N           1.2080   -2.2080    0.0000 N.ar    1  LIG1       -0.2241
     13 C          -2.3080    1.5380    0.0000 C.2     1  LIG1        0.1073
     14 O          -3.3080    1.5330    0.0000 O.co2   1  LIG1       -0.5416
     15 O          -1.8130    2.4080    0.0000 O.co2   1  LIG1       -0.5416
     16 C          -0.1500    1.3210    0.0000 C.3     1  LIG1        0.0344
     17 N           2.8080   -1.3920    0.0000 N.pl3   1  LIG1       -0.2846
     18 C           3.3040   -0.5290    0.0000 C.3     1  LIG1        0.1141
     19 C           3.3040   -2.2630    0.0000 C.3     1  LIG1        0.1141
@<TRIPOS>BOND
     1     1     2   ar
     2     1    12   ar
     3     1    17    1
     4     2     3   ar
     5     3     4   ar
     6     3    11   ar
     7     4     5   ar
     8     4     8   ar
     9     5     6   ar
    10     5    16    1
    11     6     7   ar
    12     6    13    1
    13     7     8   ar
    14     8     9   ar
    15     9    10   ar
    16    10    11   ar
    17    11    12   ar
    18    13    14   ar
    19    13    15   ar
    20    17    18    1
    21    17    19    1
