@<TRIPOS>MOLECULE
38003_ChemDiv_C761-0964
 28 32 0 0 0
SMALL
GASTEIGER
Energy = 0

@<TRIPOS>ATOM
      1 S          -1.5630   -1.1170    0.0000 S.O2    1  LIG1        0.0116
      2 C          -0.6210   -1.1170    0.0000 C.3     1  LIG1        0.1805
      3 C          -0.3290   -0.2170    0.0000 C.3     1  LIG1        0.1272
      4 N           0.5630    0.0790    0.0000 N.am    1  LIG1       -0.2546
      5 C           1.6040   -1.0080    0.0000 C.2     1  LIG1        0.2286
      6 C           1.3920   -1.9750    0.0000 C.3     1  LIG1        0.0694
      7 C           1.3880   -2.9170    0.0000 C.3     1  LIG1        0.0086
      8 C           0.8790   -3.6710    0.0000 C.3     1  LIG1        0.0005
      9 C           1.5000   -4.6380    0.0000 C.3     1  LIG1        0.0000
     10 C           1.4710   -3.6170    0.0000 C.3     1  LIG1        0.0005
     11 C           2.0500   -2.8250    0.0000 C.3     1  LIG1        0.0086
     12 C           0.4630   -3.3710    0.0000 C.3     1  LIG1        0.0000
     13 C          -0.1420   -2.5250    0.0000 C.3     1  LIG1        0.0005
     14 C           0.4290   -1.7420    0.0000 C.3     1  LIG1        0.0086
     15 C          -0.0500   -3.4500    0.0000 C.3     1  LIG1        0.0000
     16 O           2.5000   -0.6460    0.0000 O.2     1  LIG1       -0.2746
     17 C           0.8080    1.0420    0.0000 C.ar    1  LIG1        0.0543
     18 C           1.7920    1.3210    0.0000 C.ar    1  LIG1        0.0180
     19 C           2.0130    2.2880    0.0000 C.ar    1  LIG1        0.0382
     20 C           1.2920    2.9830    0.0000 C.ar    1  LIG1        0.1388
     21 C           0.3380    2.7130    0.0000 C.ar    1  LIG1        0.0382
     22 C           0.0880    1.7290    0.0000 C.ar    1  LIG1        0.0180
     23 O           1.5460    3.9420    0.0000 O.3     1  LIG1       -0.4714
     24 C           0.8210    4.6380    0.0000 C.3     1  LIG1        0.2525
     25 C          -1.0960    0.3330    0.0000 C.2     1  LIG1        0.0151
     26 C          -1.8500   -0.2170    0.0000 C.2     1  LIG1        0.1199
     27 O          -2.5040   -1.1170    0.0000 O.2     1  LIG1       -0.1685
     28 O          -1.3210   -2.0170    0.0000 O.2     1  LIG1       -0.1685
@<TRIPOS>BOND
     1     1     2    1
     2     1    26    1
     3     1    27    2
     4     1    28    2
     5     2     3    1
     6     3     4    1
     7     3    25    1
     8     4     5   am
     9     4    17    1
    10     5     6    1
    11     5    16    2
    12     6     7    1
    13     6    11    1
    14     6    14    1
    15     7     8    1
    16     8     9    1
    17     8    15    1
    18     9    10    1
    19    10    11    1
    20    10    12    1
    21    12    13    1
    22    13    14    1
    23    13    15    1
    24    17    18   ar
    25    17    22   ar
    26    18    19   ar
    27    19    20   ar
    28    20    21   ar
    29    20    23    1
    30    21    22   ar
    31    23    24    1
    32    25    26    2
