@<TRIPOS>MOLECULE
38004_ChemDiv_C791-0426
 21 24 0 0 0
SMALL
GASTEIGER
Energy = 0

@<TRIPOS>ATOM
      1 N          -0.7710    1.1170    0.0000 N.ar    1  LIG1       -0.2415
      2 N          -0.1710    1.9330    0.0000 N.ar    1  LIG1       -0.1672
      3 C          -0.7710    2.7500    0.0000 C.ar    1  LIG1        0.1216
      4 C          -1.7210    2.4330    0.0000 C.ar    1  LIG1        0.0382
      5 C          -1.7210    1.4380    0.0000 C.ar    1  LIG1        0.0799
      6 C          -2.5830    0.9380    0.0000 C.ar    1  LIG1        0.0188
      7 C          -3.4460    1.4380    0.0000 C.ar    1  LIG1        0.0015
      8 C          -3.4460    2.4330    0.0000 C.ar    1  LIG1        0.0001
      9 C          -2.5830    2.9330    0.0000 C.ar    1  LIG1        0.0031
     10 C          -0.4540    0.1710    0.0000 C.3     1  LIG1        0.2123
     11 C           0.5080   -0.0880    0.0000 C.2     1  LIG1        0.2542
     12 N           0.7670   -1.0420    0.0000 N.am    1  LIG1       -0.2570
     13 C           1.7170   -1.4040    0.0000 C.ar    1  LIG1        0.0499
     14 C           1.6790   -2.3880    0.0000 C.ar    1  LIG1       -0.0068
     15 C           0.6960   -2.6540    0.0000 C.3     1  LIG1        0.0495
     16 C           0.1380   -1.8130    0.0000 C.3     1  LIG1        0.1029
     17 C           2.4960   -2.9290    0.0000 C.ar    1  LIG1       -0.0030
     18 C           3.3960   -2.4630    0.0000 C.ar    1  LIG1       -0.0002
     19 C           3.4420   -1.4830    0.0000 C.ar    1  LIG1        0.0013
     20 C           2.5830   -0.9330    0.0000 C.ar    1  LIG1        0.0146
     21 O           1.2080    0.6250    0.0000 O.2     1  LIG1       -0.2724
@<TRIPOS>BOND
     1     1     2   ar
     2     1     5   ar
     3     1    10    1
     4     2     3   ar
     5     3     4   ar
     6     4     5   ar
     7     4     9   ar
     8     5     6   ar
     9     6     7   ar
    10     7     8   ar
    11     8     9   ar
    12    10    11    1
    13    11    12   am
    14    11    21    2
    15    12    13    1
    16    12    16    1
    17    13    14   ar
    18    13    20   ar
    19    14    15    1
    20    14    17   ar
    21    15    16    1
    22    17    18   ar
    23    18    19   ar
    24    19    20   ar
