@<TRIPOS>MOLECULE
38002_ChemDiv_C791-0289
 23 25 0 0 0
SMALL
GASTEIGER
Energy = 0

@<TRIPOS>ATOM
      1 C           2.6460   -0.6540    0.0000 C.2     1  LIG1        0.4099
      2 N           3.4170   -1.2790    0.0000 N.am    1  LIG1       -0.0013
      3 C           4.2500   -0.7460    0.0000 C.2     1  LIG1        0.3559
      4 C           3.9670    0.2420    0.0000 C.3     1  LIG1        0.2740
      5 N           2.9790    0.2580    0.0000 N.pl3   1  LIG1       -0.1837
      6 C           2.4170    1.1040    0.0000 C.3     1  LIG1        0.2081
      7 O           5.1920   -1.0960    0.0000 O.2     1  LIG1       -0.2498
      8 N           1.6750   -0.9290    0.0000 N.am    1  LIG1        0.0152
      9 C           0.9580   -0.2290    0.0000 C.2     1  LIG1        0.4225
     10 N           0.0000   -0.5000    0.0000 N.am    1  LIG1       -0.1453
     11 C          -0.8670    0.0040    0.0000 C.ar    1  LIG1        0.0777
     12 C          -1.7330   -0.5000    0.0000 C.ar    1  LIG1        0.0321
     13 C          -2.6000    0.0040    0.0000 C.ar    1  LIG1        0.0608
     14 N          -3.4670   -0.5000    0.0000 N.am    1  LIG1       -0.2556
     15 C          -4.3250   -0.0040    0.0000 C.2     1  LIG1        0.2407
     16 C          -4.3250    1.0000    0.0000 C.3     1  LIG1        0.1475
     17 S          -3.4670    1.5040    0.0000 S.3     1  LIG1       -0.1026
     18 C          -2.6000    1.0000    0.0000 C.ar    1  LIG1        0.0394
     19 C          -1.7420    1.5000    0.0000 C.ar    1  LIG1        0.0087
     20 C          -0.8790    1.0130    0.0000 C.ar    1  LIG1        0.0173
     21 O          -5.1960   -0.5040    0.0000 O.2     1  LIG1       -0.2736
     22 C          -3.4580   -1.5000    0.0000 C.3     1  LIG1        0.1201
     23 O           1.2130    0.7420    0.0000 O.2     1  LIG1       -0.2280
@<TRIPOS>BOND
     1     1     2    2
     2     1     5    1
     3     1     8    1
     4     2     3   am
     5     3     4    1
     6     3     7    2
     7     4     5    1
     8     5     6    1
     9     8     9   am
    10     9    10   am
    11     9    23    2
    12    10    11    1
    13    11    12   ar
    14    11    20   ar
    15    12    13   ar
    16    13    14    1
    17    13    18   ar
    18    14    15   am
    19    14    22    1
    20    15    16    1
    21    15    21    2
    22    16    17    1
    23    17    18    1
    24    18    19   ar
    25    19    20   ar
