@<TRIPOS>MOLECULE
38001_ChemDiv_C759-0415
 28 31 0 0 0
SMALL
GASTEIGER
Energy = 0

@<TRIPOS>ATOM
      1 N          -1.6790   -1.2170    0.0000 N.am    1  LIG1       -0.1731
      2 C          -0.8080   -0.7170    0.0000 C.2     1  LIG1        0.2864
      3 C          -0.8080    0.2830    0.0000 C.3     1  LIG1        0.2522
      4 O          -1.6790    0.7790    0.0000 O.3     1  LIG1       -0.4680
      5 C          -2.5420    0.2830    0.0000 C.ar    1  LIG1        0.1542
      6 C          -2.5420   -0.7170    0.0000 C.ar    1  LIG1        0.1070
      7 C          -3.4040   -1.2170    0.0000 C.ar    1  LIG1        0.0154
      8 C          -4.2670   -0.7170    0.0000 C.ar    1  LIG1       -0.0204
      9 C          -4.2670    0.2830    0.0000 C.ar    1  LIG1       -0.0011
     10 C          -3.4040    0.7790    0.0000 C.ar    1  LIG1        0.0379
     11 C          -5.1420   -1.2170    0.0000 C.3     1  LIG1        0.0311
     12 C           0.0580    0.7960    0.0000 C.3     1  LIG1        0.1402
     13 C           0.9330    0.2960    0.0000 C.2     1  LIG1        0.2498
     14 N           1.7960    0.7960    0.0000 N.am    1  LIG1       -0.1789
     15 C           2.6580    0.2960    0.0000 C.ar    1  LIG1        0.0793
     16 C           3.5290    0.7960    0.0000 C.ar    1  LIG1        0.0532
     17 C           4.3960    0.2960    0.0000 C.ar    1  LIG1        0.0443
     18 C           4.3960   -0.7130    0.0000 C.ar    1  LIG1        0.1766
     19 C           3.5210   -1.2080    0.0000 C.ar    1  LIG1        0.1777
     20 C           2.6580   -0.7130    0.0000 C.ar    1  LIG1        0.0569
     21 O           3.7330   -2.1830    0.0000 O.3     1  LIG1       -0.4346
     22 C           4.7170   -2.2880    0.0000 C.3     1  LIG1        0.4294
     23 O           5.1380   -1.3830    0.0000 O.3     1  LIG1       -0.4346
     24 C           3.5290    1.7920    0.0000 C.2     1  LIG1        0.1748
     25 O           4.3920    2.2920    0.0000 O.2     1  LIG1       -0.2913
     26 C           2.6580    2.2920    0.0000 C.3     1  LIG1        0.0773
     27 O           0.9330   -0.7000    0.0000 O.2     1  LIG1       -0.2728
     28 O           0.0580   -1.2170    0.0000 O.2     1  LIG1       -0.2691
@<TRIPOS>BOND
     1     1     2   am
     2     1     6    1
     3     2     3    1
     4     2    28    2
     5     3     4    1
     6     3    12    1
     7     4     5    1
     8     5     6   ar
     9     5    10   ar
    10     6     7   ar
    11     7     8   ar
    12     8     9   ar
    13     8    11    1
    14     9    10   ar
    15    12    13    1
    16    13    14   am
    17    13    27    2
    18    14    15    1
    19    15    16   ar
    20    15    20   ar
    21    16    17   ar
    22    16    24    1
    23    17    18   ar
    24    18    19   ar
    25    18    23    1
    26    19    20   ar
    27    19    21    1
    28    21    22    1
    29    22    23    1
    30    24    25    2
    31    24    26    1
