@<TRIPOS>MOLECULE
38008_ChemDiv_K786-0394
 33 38 0 0 0
SMALL
GASTEIGER
Energy = 0

@<TRIPOS>ATOM
      1 N          -2.1000   -0.4960    0.0000 N.am    1  LIG1       -0.2571
      2 C          -1.2500   -1.0080    0.0000 C.2     1  LIG1        0.2505
      3 C          -0.3750   -0.5250    0.0000 C.3     1  LIG1        0.1728
      4 N          -0.3500    0.4710    0.0000 N.ar    1  LIG1       -0.3007
      5 C           0.4670    1.0460    0.0000 C.ar    1  LIG1        0.1789
      6 N           0.1710    1.9960    0.0000 N.ar    1  LIG1       -0.2223
      7 C          -0.8290    2.0170    0.0000 C.ar    1  LIG1        0.1193
      8 C          -1.1460    1.0750    0.0000 C.ar    1  LIG1        0.0984
      9 C           0.4710   -1.0250    0.0000 C.3     1  LIG1        0.1188
     10 C           1.3580   -0.5420    0.0000 C.2     1  LIG1        0.2438
     11 N           2.2080   -1.0420    0.0000 N.am    1  LIG1       -0.2071
     12 C           3.0830   -0.5580    0.0000 C.3     1  LIG1        0.0953
     13 C           3.1000    0.4420    0.0000 C.3     1  LIG1        0.0185
     14 C           3.7170    1.2920    0.0000 C.3     1  LIG1        0.0017
     15 C           3.6540    2.3130    0.0000 C.3     1  LIG1        0.0001
     16 C           2.7040    2.6210    0.0000 C.3     1  LIG1        0.0000
     17 C           2.1000    1.7540    0.0000 C.3     1  LIG1        0.0001
     18 C           2.1630    0.7630    0.0000 C.3     1  LIG1        0.0017
     19 C           2.9920    2.0420    0.0000 C.3     1  LIG1        0.0000
     20 C           3.8790    1.7830    0.0000 C.3     1  LIG1        0.0001
     21 C           3.9460    0.8170    0.0000 C.3     1  LIG1        0.0017
     22 C           4.6040    2.6580    0.0000 C.3     1  LIG1        0.0000
     23 C           3.9460   -1.0710    0.0000 C.3     1  LIG1        0.0234
     24 O           1.3630    0.4540    0.0000 O.2     1  LIG1       -0.2733
     25 O          -1.2670   -2.0080    0.0000 O.2     1  LIG1       -0.2725
     26 C          -2.8670   -1.1630    0.0000 C.ar    1  LIG1        0.0499
     27 C          -3.7250   -0.6460    0.0000 C.ar    1  LIG1       -0.0068
     28 C          -3.5040    0.3330    0.0000 C.3     1  LIG1        0.0495
     29 C          -2.5040    0.4290    0.0000 C.3     1  LIG1        0.1029
     30 C          -4.6040   -1.1290    0.0000 C.ar    1  LIG1       -0.0030
     31 C          -4.6080   -2.1380    0.0000 C.ar    1  LIG1       -0.0002
     32 C          -3.7420   -2.6540    0.0000 C.ar    1  LIG1        0.0013
     33 C          -2.8830   -2.1580    0.0000 C.ar    1  LIG1        0.0146
@<TRIPOS>BOND
     1     1     2   am
     2     1    26    1
     3     1    29    1
     4     2     3    1
     5     2    25    2
     6     3     4    1
     7     3     9    1
     8     4     5   ar
     9     4     8   ar
    10     5     6   ar
    11     6     7   ar
    12     7     8   ar
    13     9    10    1
    14    10    11   am
    15    10    24    2
    16    11    12    1
    17    12    13    1
    18    12    23    1
    19    13    14    1
    20    13    18    1
    21    13    21    1
    22    14    15    1
    23    15    16    1
    24    15    22    1
    25    16    17    1
    26    17    18    1
    27    17    19    1
    28    19    20    1
    29    20    21    1
    30    20    22    1
    31    26    27   ar
    32    26    33   ar
    33    27    28    1
    34    27    30   ar
    35    28    29    1
    36    30    31   ar
    37    31    32   ar
    38    32    33   ar
