@<TRIPOS>MOLECULE
38005_ChemDiv_C762-0338
 30 34 0 0 0
SMALL
GASTEIGER
Energy = 0

@<TRIPOS>ATOM
      1 N           2.3290   -1.0750    0.0000 N.ar    1  LIG1       -0.2415
      2 C           2.9170   -0.2670    0.0000 C.ar    1  LIG1        0.0823
      3 C           2.7080    0.7130    0.0000 C.ar    1  LIG1        0.0508
      4 C           3.4500    1.3830    0.0000 C.ar    1  LIG1        0.1404
      5 O           4.4000    1.0710    0.0000 O.3     1  LIG1       -0.4705
      6 C           4.6130    0.0920    0.0000 C.3     1  LIG1        0.2351
      7 C           3.8630   -0.5790    0.0000 C.ar    1  LIG1        0.0594
      8 C           3.8630   -1.5750    0.0000 C.ar    1  LIG1        0.1209
      9 N           2.9170   -1.8830    0.0000 N.ar    1  LIG1       -0.1675
     10 C           3.2420    2.3580    0.0000 C.ar    1  LIG1        0.0366
     11 C           2.2920    2.6670    0.0000 C.ar    1  LIG1       -0.0011
     12 C           1.5460    2.0000    0.0000 C.ar    1  LIG1       -0.0216
     13 C           1.7580    1.0210    0.0000 C.ar    1  LIG1        0.0002
     14 C           0.5960    2.3130    0.0000 C.3     1  LIG1        0.0310
     15 C           1.3290   -1.0750    0.0000 C.3     1  LIG1        0.2140
     16 C           0.8250   -1.9420    0.0000 C.2     1  LIG1        0.2730
     17 N          -0.1750   -1.9420    0.0000 N.am    1  LIG1       -0.1407
     18 C          -0.6750   -1.0750    0.0000 C.ar    1  LIG1        0.2524
     19 C          -1.6670   -0.9710    0.0000 C.ar    1  LIG1        0.0803
     20 C          -1.8750    0.0040    0.0000 C.ar    1  LIG1        0.1245
     21 N          -1.0080    0.5080    0.0000 N.ar    1  LIG1       -0.0753
     22 O          -0.2670   -0.1630    0.0000 O.2     1  LIG1       -0.3364
     23 C          -2.7880    0.4130    0.0000 C.ar    1  LIG1        0.0218
     24 C          -2.8920    1.4130    0.0000 C.ar    1  LIG1        0.0130
     25 C          -3.8080    1.8170    0.0000 C.ar    1  LIG1        0.0577
     26 CL         -3.9130    2.8080    0.0000 Cl      1  LIG1       -0.0822
     27 C          -4.6170    1.2250    0.0000 C.ar    1  LIG1        0.0114
     28 C          -4.5130    0.2330    0.0000 C.ar    1  LIG1        0.0009
     29 C          -3.6000   -0.1710    0.0000 C.ar    1  LIG1        0.0017
     30 O           1.3290   -2.8040    0.0000 O.2     1  LIG1       -0.2707
@<TRIPOS>BOND
     1     1     2   ar
     2     1     9   ar
     3     1    15    1
     4     2     3    1
     5     2     7   ar
     6     3     4   ar
     7     3    13   ar
     8     4     5    1
     9     4    10   ar
    10     5     6    1
    11     6     7    1
    12     7     8   ar
    13     8     9   ar
    14    10    11   ar
    15    11    12   ar
    16    12    13   ar
    17    12    14    1
    18    15    16    1
    19    16    17   am
    20    16    30    2
    21    17    18    1
    22    18    19   ar
    23    18    22   ar
    24    19    20   ar
    25    20    21   ar
    26    20    23    1
    27    21    22   ar
    28    23    24   ar
    29    23    29   ar
    30    24    25   ar
    31    25    26    1
    32    25    27   ar
    33    27    28   ar
    34    28    29   ar
