@<TRIPOS>MOLECULE
38009_ChemDiv_C767-0021
 22 25 0 0 0
SMALL
GASTEIGER
Energy = 0

@<TRIPOS>ATOM
      1 C          -0.0210    0.9000    0.0000 C.ar    1  LIG1        0.4006
      2 N           0.5750    0.0960    0.0000 N.ar    1  LIG1       -0.2394
      3 C           1.5290    0.4040    0.0000 C.ar    1  LIG1        0.0565
      4 C           1.5290    1.4080    0.0000 C.ar    1  LIG1        0.0834
      5 S           0.5750    1.7170    0.0000 S.2     1  LIG1        0.0113
      6 C           2.3920    1.9130    0.0000 C.2     1  LIG1        0.1803
      7 C           3.2710    1.4080    0.0000 C.3     1  LIG1        0.0701
      8 C           3.2710    0.4040    0.0000 C.3     1  LIG1        0.0128
      9 C           2.3920   -0.1000    0.0000 C.3     1  LIG1        0.0454
     10 C           4.1000    0.9130    0.0000 C.3     1  LIG1        0.0008
     11 C           3.5750   -0.4580    0.0000 C.3     1  LIG1        0.0008
     12 O           2.3920    2.9210    0.0000 O.2     1  LIG1       -0.2908
     13 C          -0.0210   -0.7210    0.0000 C.ar    1  LIG1        0.1620
     14 C          -0.9880   -0.4000    0.0000 C.ar    1  LIG1        0.3167
     15 N          -0.9790    0.5880    0.0000 N.ar    1  LIG1        0.1046
     16 C          -1.7630   -1.0210    0.0000 C.ar    1  LIG1        0.0719
     17 C          -2.7000   -0.6630    0.0000 C.ar    1  LIG1        0.0071
     18 C          -3.4830   -1.2960    0.0000 C.ar    1  LIG1        0.0116
     19 C          -3.3290   -2.2920    0.0000 C.ar    1  LIG1        0.0577
     20 C          -2.3920   -2.6540    0.0000 C.ar    1  LIG1        0.0116
     21 C          -1.6130   -2.0170    0.0000 C.ar    1  LIG1        0.0071
     22 CL         -4.1040   -2.9170    0.0000 Cl      1  LIG1       -0.0822
@<TRIPOS>BOND
     1     1     2   ar
     2     1     5   ar
     3     1    15   ar
     4     2     3   ar
     5     2    13   ar
     6     3     4   ar
     7     3     9    1
     8     4     5   ar
     9     4     6    1
    10     6     7    1
    11     6    12    2
    12     7     8    1
    13     8     9    1
    14     8    10    1
    15     8    11    1
    16    13    14   ar
    17    14    15   ar
    18    14    16    1
    19    16    17   ar
    20    16    21   ar
    21    17    18   ar
    22    18    19   ar
    23    19    20   ar
    24    19    22    1
    25    20    21   ar
