@<TRIPOS>MOLECULE
38012_ChemDiv_K786-0735
 26 29 0 0 0
SMALL
GASTEIGER
Energy = 0

@<TRIPOS>ATOM
      1 N          -1.4500    0.9670    0.0000 N.am    1  LIG1       -0.2571
      2 C          -1.1460    0.0040    0.0000 C.2     1  LIG1        0.2505
      3 C          -0.1630   -0.1960    0.0000 C.3     1  LIG1        0.1727
      4 C           0.7000    0.3080    0.0000 C.3     1  LIG1        0.1172
      5 C           1.5750   -0.1830    0.0000 C.2     1  LIG1        0.2282
      6 N           2.4250    0.3170    0.0000 N.am    1  LIG1       -0.2743
      7 C           2.4210    1.3040    0.0000 C.3     1  LIG1        0.1255
      8 C           3.2830    1.8130    0.0000 C.3     1  LIG1        0.1636
      9 O           4.1500    1.3210    0.0000 O.3     1  LIG1       -0.3501
     10 C           4.1500    0.3330    0.0000 C.3     1  LIG1        0.1636
     11 C           3.3000   -0.1830    0.0000 C.3     1  LIG1        0.1255
     12 O           1.5790   -1.1790    0.0000 O.2     1  LIG1       -0.2748
     13 N           0.0000   -1.1790    0.0000 N.ar    1  LIG1       -0.3007
     14 C          -0.7040   -1.8880    0.0000 C.ar    1  LIG1        0.1789
     15 N          -0.2420   -2.7670    0.0000 N.ar    1  LIG1       -0.2223
     16 C           0.7460   -2.6130    0.0000 C.ar    1  LIG1        0.1193
     17 C           0.8920   -1.6170    0.0000 C.ar    1  LIG1        0.0984
     18 O          -1.8080   -0.7420    0.0000 O.2     1  LIG1       -0.2725
     19 C          -2.4130    1.2710    0.0000 C.ar    1  LIG1        0.0499
     20 C          -2.4130    2.2750    0.0000 C.ar    1  LIG1       -0.0068
     21 C          -1.4630    2.5920    0.0000 C.3     1  LIG1        0.0495
     22 C          -0.8710    1.7830    0.0000 C.3     1  LIG1        0.1029
     23 C          -3.2920    2.7710    0.0000 C.ar    1  LIG1       -0.0030
     24 C          -4.1540    2.2670    0.0000 C.ar    1  LIG1       -0.0002
     25 C          -4.1540    1.2710    0.0000 C.ar    1  LIG1        0.0013
     26 C          -3.2920    0.7630    0.0000 C.ar    1  LIG1        0.0146
@<TRIPOS>BOND
     1     1     2   am
     2     1    19    1
     3     1    22    1
     4     2     3    1
     5     2    18    2
     6     3     4    1
     7     3    13    1
     8     4     5    1
     9     5     6   am
    10     5    12    2
    11     6     7    1
    12     6    11    1
    13     7     8    1
    14     8     9    1
    15     9    10    1
    16    10    11    1
    17    13    14   ar
    18    13    17   ar
    19    14    15   ar
    20    15    16   ar
    21    16    17   ar
    22    19    20   ar
    23    19    26   ar
    24    20    21    1
    25    20    23   ar
    26    21    22    1
    27    23    24   ar
    28    24    25   ar
    29    25    26   ar
