@<TRIPOS>MOLECULE
38016_ChemDiv_C791-0451
 24 26 0 0 0
SMALL
GASTEIGER
Energy = 0

@<TRIPOS>ATOM
      1 N          -1.5250    1.3830    0.0000 N.ar    1  LIG1       -0.2414
      2 N          -0.9330    2.2040    0.0000 N.ar    1  LIG1       -0.1672
      3 C          -1.5250    3.0170    0.0000 C.ar    1  LIG1        0.1216
      4 C          -2.4790    2.7040    0.0000 C.ar    1  LIG1        0.0382
      5 C          -2.4790    1.6960    0.0000 C.ar    1  LIG1        0.0799
      6 C          -3.3500    1.1960    0.0000 C.ar    1  LIG1        0.0188
      7 C          -4.2170    1.6960    0.0000 C.ar    1  LIG1        0.0015
      8 C          -4.2170    2.7040    0.0000 C.ar    1  LIG1        0.0001
      9 C          -3.3500    3.2040    0.0000 C.ar    1  LIG1        0.0031
     10 C          -1.2130    0.4380    0.0000 C.3     1  LIG1        0.2139
     11 C          -0.2500    0.1790    0.0000 C.2     1  LIG1        0.2705
     12 N           0.0080   -0.7920    0.0000 N.am    1  LIG1       -0.1744
     13 C           0.7380   -0.9750    0.0000 C.ar    1  LIG1        0.1083
     14 C           1.0330   -2.0000    0.0000 C.ar    1  LIG1        0.0341
     15 C           2.0130   -2.2460    0.0000 C.ar    1  LIG1        0.0930
     16 C           2.7540   -1.4830    0.0000 C.ar    1  LIG1        0.1523
     17 C           2.4500   -0.5000    0.0000 C.ar    1  LIG1        0.0760
     18 C           1.4500   -0.2460    0.0000 C.ar    1  LIG1        0.1570
     19 O           1.1750    0.7290    0.0000 O.3     1  LIG1       -0.4700
     20 C           1.9670    1.2130    0.0000 C.3     1  LIG1        0.2525
     21 O           3.7540   -1.7330    0.0000 O.3     1  LIG1       -0.4705
     22 C           4.2130   -2.6580    0.0000 C.3     1  LIG1        0.2525
     23 CL          2.2040   -3.2000    0.0000 Cl      1  LIG1       -0.0790
     24 O           0.4580    0.8920    0.0000 O.2     1  LIG1       -0.2708
@<TRIPOS>BOND
     1     1     2   ar
     2     1     5   ar
     3     1    10    1
     4     2     3   ar
     5     3     4   ar
     6     4     5   ar
     7     4     9   ar
     8     5     6   ar
     9     6     7   ar
    10     7     8   ar
    11     8     9   ar
    12    10    11    1
    13    11    12   am
    14    11    24    2
    15    12    13    1
    16    13    14   ar
    17    13    18   ar
    18    14    15   ar
    19    15    16   ar
    20    15    23    1
    21    16    17   ar
    22    16    21    1
    23    17    18   ar
    24    18    19    1
    25    19    20    1
    26    21    22    1
