@<TRIPOS>MOLECULE
38013_ChemDiv_C767-0031
 19 22 0 0 0
SMALL
GASTEIGER
Energy = 0

@<TRIPOS>ATOM
      1 C           0.6250    1.2460    0.0000 C.ar    1  LIG1        0.4002
      2 N           1.1380    0.3750    0.0000 N.ar    1  LIG1       -0.2398
      3 C           0.4670   -0.3670    0.0000 C.ar    1  LIG1        0.1620
      4 C          -0.4500    0.0380    0.0000 C.ar    1  LIG1        0.3167
      5 N          -0.3500    1.0330    0.0000 N.ar    1  LIG1        0.1046
      6 C          -1.3210   -0.4750    0.0000 C.ar    1  LIG1        0.0719
      7 C          -1.3210   -1.4880    0.0000 C.ar    1  LIG1        0.0067
      8 C          -2.1920   -1.9880    0.0000 C.ar    1  LIG1        0.0069
      9 C          -3.0460   -1.4880    0.0000 C.ar    1  LIG1        0.0346
     10 C          -3.0460   -0.4750    0.0000 C.ar    1  LIG1        0.0069
     11 C          -2.1920    0.0210    0.0000 C.ar    1  LIG1        0.0067
     12 BR         -3.9250   -1.9790    0.0000 Br      1  LIG1       -0.0490
     13 C           2.1170    0.5960    0.0000 C.ar    1  LIG1        0.0497
     14 C           2.2080    1.5830    0.0000 C.ar    1  LIG1        0.0266
     15 S           1.3000    1.9880    0.0000 S.2     1  LIG1        0.0041
     16 C           3.1170    1.9920    0.0000 C.3     1  LIG1        0.0344
     17 C           3.9210    1.4040    0.0000 C.3     1  LIG1        0.0057
     18 C           3.8210    0.4170    0.0000 C.3     1  LIG1        0.0066
     19 C           2.9040    0.0130    0.0000 C.3     1  LIG1        0.0445
@<TRIPOS>BOND
     1     1     2   ar
     2     1     5   ar
     3     1    15   ar
     4     2     3   ar
     5     2    13   ar
     6     3     4   ar
     7     4     5   ar
     8     4     6    1
     9     6     7   ar
    10     6    11   ar
    11     7     8   ar
    12     8     9   ar
    13     9    10   ar
    14     9    12    1
    15    10    11   ar
    16    13    14   ar
    17    13    19    1
    18    14    15   ar
    19    14    16    1
    20    16    17    1
    21    17    18    1
    22    18    19    1
