@<TRIPOS>MOLECULE
38010_ChemDiv_K786-0726
 30 33 0 0 0
SMALL
GASTEIGER
Energy = 0

@<TRIPOS>ATOM
      1 N          -3.1920    0.9670    0.0000 N.am    1  LIG1       -0.2571
      2 C          -2.8750    0.0040    0.0000 C.2     1  LIG1        0.2505
      3 C          -1.8960   -0.1960    0.0000 C.3     1  LIG1        0.1728
      4 N          -1.7460   -1.1790    0.0000 N.ar    1  LIG1       -0.3007
      5 C          -2.4380   -1.8830    0.0000 C.ar    1  LIG1        0.1789
      6 N          -1.9880   -2.7630    0.0000 N.ar    1  LIG1       -0.2223
      7 C          -0.9960   -2.6080    0.0000 C.ar    1  LIG1        0.1193
      8 C          -0.8540   -1.6170    0.0000 C.ar    1  LIG1        0.0984
      9 C          -1.0330    0.3080    0.0000 C.3     1  LIG1        0.1188
     10 C          -0.1750   -0.1830    0.0000 C.2     1  LIG1        0.2438
     11 O          -0.1580   -1.1790    0.0000 O.2     1  LIG1       -0.2733
     12 N           0.6960    0.3170    0.0000 N.am    1  LIG1       -0.2051
     13 C           1.5630   -0.1830    0.0000 C.3     1  LIG1        0.1213
     14 C           2.4250    0.3210    0.0000 C.3     1  LIG1        0.0861
     15 C           3.2830   -0.1830    0.0000 C.3     1  LIG1        0.1407
     16 N           4.1540    0.3210    0.0000 N.4     1  LIG1        0.3813
     17 C           4.1460    1.3290    0.0000 C.3     1  LIG1        0.1713
     18 C           5.0210    1.8170    0.0000 C.3     1  LIG1        0.2047
     19 O           5.8830    1.3170    0.0000 O.3     1  LIG1       -0.3411
     20 C           5.8830    0.3210    0.0000 C.3     1  LIG1        0.2047
     21 C           5.0210   -0.1830    0.0000 C.3     1  LIG1        0.1713
     22 O          -3.5420   -0.7420    0.0000 O.2     1  LIG1       -0.2725
     23 C          -4.1460    1.2670    0.0000 C.ar    1  LIG1        0.0499
     24 C          -4.1500    2.2710    0.0000 C.ar    1  LIG1       -0.0068
     25 C          -3.2000    2.5880    0.0000 C.3     1  LIG1        0.0495
     26 C          -2.6040    1.7830    0.0000 C.3     1  LIG1        0.1029
     27 C          -5.0210    2.7670    0.0000 C.ar    1  LIG1       -0.0030
     28 C          -5.8880    2.2670    0.0000 C.ar    1  LIG1       -0.0002
     29 C          -5.8880    1.2670    0.0000 C.ar    1  LIG1        0.0013
     30 C          -5.0210    0.7580    0.0000 C.ar    1  LIG1        0.0146
@<TRIPOS>BOND
     1     1     2   am
     2     1    23    1
     3     1    26    1
     4     2     3    1
     5     2    22    2
     6     3     4    1
     7     3     9    1
     8     4     5   ar
     9     4     8   ar
    10     5     6   ar
    11     6     7   ar
    12     7     8   ar
    13     9    10    1
    14    10    11    2
    15    10    12   am
    16    12    13    1
    17    13    14    1
    18    14    15    1
    19    15    16    1
    20    16    17    1
    21    16    21    1
    22    17    18    1
    23    18    19    1
    24    19    20    1
    25    20    21    1
    26    23    24   ar
    27    23    30   ar
    28    24    25    1
    29    24    27   ar
    30    25    26    1
    31    27    28   ar
    32    28    29   ar
    33    29    30   ar
