@<TRIPOS>MOLECULE
38014_ChemDiv_C791-0445
 20 22 0 0 0
SMALL
GASTEIGER
Energy = 0

@<TRIPOS>ATOM
      1 N          -1.3710    0.9210    0.0000 N.ar    1  LIG1       -0.2414
      2 N          -0.7710    1.7380    0.0000 N.ar    1  LIG1       -0.1672
      3 C          -1.3710    2.5540    0.0000 C.ar    1  LIG1        0.1216
      4 C          -2.3210    2.2380    0.0000 C.ar    1  LIG1        0.0382
      5 C          -2.3210    1.2380    0.0000 C.ar    1  LIG1        0.0799
      6 C          -3.1830    0.7420    0.0000 C.ar    1  LIG1        0.0188
      7 C          -4.0460    1.2380    0.0000 C.ar    1  LIG1        0.0015
      8 C          -4.0460    2.2380    0.0000 C.ar    1  LIG1        0.0001
      9 C          -3.1830    2.7380    0.0000 C.ar    1  LIG1        0.0031
     10 C          -1.0540   -0.0250    0.0000 C.3     1  LIG1        0.2139
     11 C          -0.0920   -0.2830    0.0000 C.2     1  LIG1        0.2717
     12 N           0.1670   -1.2420    0.0000 N.am    1  LIG1       -0.1587
     13 C           1.1500   -1.4960    0.0000 C.ar    1  LIG1        0.1546
     14 N           1.8500   -0.8000    0.0000 N.ar    1  LIG1       -0.2264
     15 C           2.8130   -1.0580    0.0000 C.ar    1  LIG1        0.1117
     16 C           3.0750   -2.0130    0.0000 C.ar    1  LIG1        0.0769
     17 CL          4.0420   -2.2670    0.0000 Cl      1  LIG1       -0.0806
     18 C           2.3630   -2.7330    0.0000 C.ar    1  LIG1        0.0159
     19 C           1.4040   -2.4790    0.0000 C.ar    1  LIG1        0.0371
     20 O           0.6080    0.4290    0.0000 O.2     1  LIG1       -0.2708
@<TRIPOS>BOND
     1     1     2   ar
     2     1     5   ar
     3     1    10    1
     4     2     3   ar
     5     3     4   ar
     6     4     5   ar
     7     4     9   ar
     8     5     6   ar
     9     6     7   ar
    10     7     8   ar
    11     8     9   ar
    12    10    11    1
    13    11    12   am
    14    11    20    2
    15    12    13    1
    16    13    14   ar
    17    13    19   ar
    18    14    15   ar
    19    15    16   ar
    20    16    17    1
    21    16    18   ar
    22    18    19   ar
