@<TRIPOS>MOLECULE
38011_ChemDiv_C767-0023
 20 23 0 0 0
SMALL
GASTEIGER
Energy = 0

@<TRIPOS>ATOM
      1 C           0.1710    1.2460    0.0000 C.ar    1  LIG1        0.4002
      2 N           0.6790    0.3750    0.0000 N.ar    1  LIG1       -0.2398
      3 C           1.6500    0.5960    0.0000 C.ar    1  LIG1        0.0497
      4 C           1.7580    1.5830    0.0000 C.ar    1  LIG1        0.0266
      5 S           0.8380    1.9880    0.0000 S.2     1  LIG1        0.0041
      6 C           2.6580    1.9880    0.0000 C.3     1  LIG1        0.0343
      7 C           3.4670    1.4040    0.0000 C.3     1  LIG1        0.0053
      8 C           3.3580    0.4130    0.0000 C.3     1  LIG1        0.0066
      9 C           2.4540    0.0130    0.0000 C.3     1  LIG1        0.0445
     10 C           4.3750    1.8130    0.0000 C.3     1  LIG1        0.0004
     11 C           0.0040   -0.3710    0.0000 C.ar    1  LIG1        0.1620
     12 C          -0.9040    0.0380    0.0000 C.ar    1  LIG1        0.3167
     13 N          -0.8130    1.0330    0.0000 N.ar    1  LIG1        0.1046
     14 C          -1.7790   -0.4790    0.0000 C.ar    1  LIG1        0.0719
     15 C          -1.7790   -1.4920    0.0000 C.ar    1  LIG1        0.0071
     16 C          -2.6460   -1.9830    0.0000 C.ar    1  LIG1        0.0116
     17 C          -3.5080   -1.4920    0.0000 C.ar    1  LIG1        0.0577
     18 C          -3.5080   -0.4790    0.0000 C.ar    1  LIG1        0.0116
     19 C          -2.6460    0.0210    0.0000 C.ar    1  LIG1        0.0071
     20 CL         -4.3790   -1.9830    0.0000 Cl      1  LIG1       -0.0822
@<TRIPOS>BOND
     1     1     2   ar
     2     1     5   ar
     3     1    13   ar
     4     2     3   ar
     5     2    11   ar
     6     3     4   ar
     7     3     9    1
     8     4     5   ar
     9     4     6    1
    10     6     7    1
    11     7     8    1
    12     7    10    1
    13     8     9    1
    14    11    12   ar
    15    12    13   ar
    16    12    14    1
    17    14    15   ar
    18    14    19   ar
    19    15    16   ar
    20    16    17   ar
    21    17    18   ar
    22    17    20    1
    23    18    19   ar
