@<TRIPOS>MOLECULE
38022_ChemDiv_C875-0509
 32 36 0 0 0
SMALL
GASTEIGER
Energy = 0

@<TRIPOS>ATOM
      1 N          -0.3540    0.9500    0.0000 N.ar    1  LIG1       -0.2993
      2 C           0.2170    1.7580    0.0000 C.ar    1  LIG1        0.1719
      3 N          -0.3540    2.5580    0.0000 N.ar    1  LIG1       -0.2210
      4 C          -1.3040    2.2580    0.0000 C.ar    1  LIG1        0.1023
      5 C          -1.3040    1.2630    0.0000 C.ar    1  LIG1        0.0990
      6 C          -2.1540    0.7630    0.0000 C.ar    1  LIG1        0.1176
      7 N          -3.0290    1.2630    0.0000 N.ar    1  LIG1       -0.2407
      8 C          -3.0290    2.2460    0.0000 C.ar    1  LIG1        0.1005
      9 C          -2.1540    2.7580    0.0000 C.ar    1  LIG1        0.0413
     10 S           1.2170    1.7670    0.0000 S.3     1  LIG1       -0.0725
     11 C           1.7130    2.6330    0.0000 C.3     1  LIG1        0.0914
     12 C           2.7250    2.6330    0.0000 C.ar    1  LIG1       -0.0079
     13 C           3.2330    1.7580    0.0000 C.ar    1  LIG1        0.0335
     14 C           4.2330    1.7580    0.0000 C.ar    1  LIG1        0.1384
     15 O           4.7500    0.8880    0.0000 O.3     1  LIG1       -0.4714
     16 C           4.2500    0.0000    0.0000 C.3     1  LIG1        0.2525
     17 C           4.7290    2.6330    0.0000 C.ar    1  LIG1        0.0369
     18 C           4.2330    3.4880    0.0000 C.ar    1  LIG1        0.0028
     19 C           3.2250    3.4880    0.0000 C.ar    1  LIG1       -0.0032
     20 C          -0.0330   -0.0080    0.0000 C.3     1  LIG1        0.1566
     21 C          -0.7000   -0.7580    0.0000 C.ar    1  LIG1        0.1151
     22 N          -1.6960   -0.7580    0.0000 N.ar    1  LIG1       -0.2110
     23 C          -1.9960   -1.6920    0.0000 C.ar    1  LIG1        0.2290
     24 O          -1.2000   -2.2920    0.0000 O.2     1  LIG1       -0.4392
     25 C          -0.3880   -1.7080    0.0000 C.ar    1  LIG1        0.1404
     26 C           0.5710   -2.0250    0.0000 C.3     1  LIG1        0.0739
     27 C          -2.9130   -2.0880    0.0000 C.ar    1  LIG1        0.0535
     28 C          -3.7170   -1.4880    0.0000 C.ar    1  LIG1        0.0046
     29 C          -4.6290   -1.8960    0.0000 C.ar    1  LIG1        0.0002
     30 C          -4.7540   -2.8920    0.0000 C.ar    1  LIG1        0.0000
     31 C          -3.9460   -3.4830    0.0000 C.ar    1  LIG1        0.0002
     32 C          -3.0290   -3.0880    0.0000 C.ar    1  LIG1        0.0046
@<TRIPOS>BOND
     1     1     2   ar
     2     1     5   ar
     3     1    20    1
     4     2     3   ar
     5     2    10    1
     6     3     4   ar
     7     4     5   ar
     8     4     9   ar
     9     5     6   ar
    10     6     7   ar
    11     7     8   ar
    12     8     9   ar
    13    10    11    1
    14    11    12    1
    15    12    13   ar
    16    12    19   ar
    17    13    14   ar
    18    14    15    1
    19    14    17   ar
    20    15    16    1
    21    17    18   ar
    22    18    19   ar
    23    20    21    1
    24    21    22   ar
    25    21    25   ar
    26    22    23   ar
    27    23    24   ar
    28    23    27    1
    29    24    25   ar
    30    25    26    1
    31    27    28   ar
    32    27    32   ar
    33    28    29   ar
    34    29    30   ar
    35    30    31   ar
    36    31    32   ar
