@<TRIPOS>MOLECULE
38028_ChemDiv_C797-1058
 27 30 0 0 0
SMALL
GASTEIGER
Energy = 0

@<TRIPOS>ATOM
      1 N           0.8040    2.6500    0.0000 N.ar    1  LIG1       -0.2533
      2 C           1.4040    3.4540    0.0000 C.ar    1  LIG1        0.1817
      3 S           0.8130    4.2630    0.0000 S.2     1  LIG1       -0.0484
      4 C          -0.1330    3.9540    0.0000 C.ar    1  LIG1        0.0515
      5 C          -0.1330    2.9540    0.0000 C.ar    1  LIG1        0.0749
      6 C          -1.0080    2.4500    0.0000 C.ar    1  LIG1        0.0213
      7 C          -1.8710    2.9500    0.0000 C.ar    1  LIG1        0.0384
      8 C          -1.8710    3.9540    0.0000 C.ar    1  LIG1        0.1393
      9 C          -1.0080    4.4500    0.0000 C.ar    1  LIG1        0.0449
     10 O          -2.7380    4.4500    0.0000 O.3     1  LIG1       -0.4714
     11 C          -3.6080    3.9540    0.0000 C.3     1  LIG1        0.2525
     12 N           2.3920    3.3630    0.0000 N.ar    1  LIG1       -0.2202
     13 C           2.8040    2.4380    0.0000 C.ar    1  LIG1        0.1104
     14 C           2.2040    1.6250    0.0000 C.ar    1  LIG1        0.1305
     15 C           1.2130    1.7380    0.0000 C.ar    1  LIG1        0.2721
     16 O           0.6170    0.9380    0.0000 O.2     1  LIG1       -0.2664
     17 C           2.6040    0.7130    0.0000 C.2     1  LIG1        0.2713
     18 N           2.0170   -0.1000    0.0000 N.am    1  LIG1       -0.1966
     19 C           2.4170   -1.0130    0.0000 C.3     1  LIG1        0.1418
     20 C           1.8290   -1.8210    0.0000 C.ar    1  LIG1       -0.0009
     21 C           2.2290   -2.7250    0.0000 C.ar    1  LIG1       -0.0068
     22 C           1.6420   -3.5250    0.0000 C.ar    1  LIG1       -0.0221
     23 C           0.6420   -3.4250    0.0000 C.ar    1  LIG1       -0.0043
     24 C           0.2420   -2.5130    0.0000 C.ar    1  LIG1       -0.0006
     25 C           0.8290   -1.7080    0.0000 C.ar    1  LIG1       -0.0026
     26 C           2.0420   -4.4460    0.0000 C.3     1  LIG1        0.0310
     27 O           3.6040    0.6000    0.0000 O.2     1  LIG1       -0.2681
@<TRIPOS>BOND
     1     1     2   ar
     2     1     5   ar
     3     1    15   ar
     4     2     3   ar
     5     2    12   ar
     6     3     4   ar
     7     4     5   ar
     8     4     9   ar
     9     5     6   ar
    10     6     7   ar
    11     7     8   ar
    12     8     9   ar
    13     8    10    1
    14    10    11    1
    15    12    13   ar
    16    13    14   ar
    17    14    15   ar
    18    14    17    1
    19    15    16    2
    20    17    18   am
    21    17    27    2
    22    18    19    1
    23    19    20    1
    24    20    21   ar
    25    20    25   ar
    26    21    22   ar
    27    22    23   ar
    28    22    26    1
    29    23    24   ar
    30    24    25   ar
