@<TRIPOS>MOLECULE
38026_ChemDiv_C797-0627
 34 37 0 0 0
SMALL
GASTEIGER
Energy = 0

@<TRIPOS>ATOM
      1 C           1.4500    1.1000    0.0000 C.ar    1  LIG1        0.0367
      2 C           2.4580    1.1000    0.0000 C.ar    1  LIG1        0.1063
      3 N           2.7670    0.1460    0.0000 N.ar    1  LIG1       -0.1648
      4 N           1.9500   -0.4380    0.0000 N.ar    1  LIG1       -0.2285
      5 C           1.1330    0.1460    0.0000 C.ar    1  LIG1        0.0993
      6 C           1.9500   -1.4380    0.0000 C.ar    1  LIG1        0.0828
      7 C           1.0880   -1.9250    0.0000 C.ar    1  LIG1        0.0191
      8 C           1.0880   -2.9210    0.0000 C.ar    1  LIG1        0.0015
      9 C           1.9500   -3.4210    0.0000 C.ar    1  LIG1        0.0001
     10 C           2.8250   -2.9170    0.0000 C.ar    1  LIG1        0.0015
     11 C           2.8250   -1.9250    0.0000 C.ar    1  LIG1        0.0191
     12 C           3.0500    1.9000    0.0000 C.ar    1  LIG1        0.0486
     13 S           4.0500    1.9000    0.0000 S.2     1  LIG1       -0.0849
     14 C           4.3540    2.8420    0.0000 C.ar    1  LIG1        0.0355
     15 C           3.5380    3.4250    0.0000 C.ar    1  LIG1        0.0075
     16 C           2.7290    2.8420    0.0000 C.ar    1  LIG1        0.0086
     17 C           0.8630    1.9000    0.0000 C.3     1  LIG1        0.1248
     18 N          -0.1380    1.7920    0.0000 N.am    1  LIG1       -0.2583
     19 C          -0.5420    0.8880    0.0000 C.2     1  LIG1        0.3277
     20 N          -1.5420    0.7790    0.0000 N.am    1  LIG1       -0.1622
     21 C          -1.9630   -0.1380    0.0000 C.ar    1  LIG1        0.0743
     22 C          -2.9630   -0.2330    0.0000 C.ar    1  LIG1        0.0124
     23 C          -3.3710   -1.1380    0.0000 C.ar    1  LIG1       -0.0209
     24 C          -2.7790   -1.9500    0.0000 C.ar    1  LIG1       -0.0084
     25 C          -1.7710   -1.8460    0.0000 C.ar    1  LIG1       -0.0209
     26 C          -1.3580   -0.9290    0.0000 C.ar    1  LIG1        0.0124
     27 C          -1.1830   -2.6500    0.0000 C.3     1  LIG1        0.0311
     28 C          -4.3580   -1.2460    0.0000 C.3     1  LIG1        0.0311
     29 O           0.0460    0.0750    0.0000 O.2     1  LIG1       -0.2504
     30 C          -0.7250    2.5960    0.0000 C.3     1  LIG1        0.0979
     31 C          -1.7290    2.4880    0.0000 C.3     1  LIG1        0.0536
     32 C          -2.3250    3.2960    0.0000 C.3     1  LIG1        0.1440
     33 O          -3.3250    3.1880    0.0000 O.3     1  LIG1       -0.3510
     34 C          -3.7210    2.2830    0.0000 C.3     1  LIG1        0.1741
@<TRIPOS>BOND
     1     1     2   ar
     2     1     5   ar
     3     1    17    1
     4     2     3   ar
     5     2    12    1
     6     3     4   ar
     7     4     5   ar
     8     4     6    1
     9     6     7   ar
    10     6    11   ar
    11     7     8   ar
    12     8     9   ar
    13     9    10   ar
    14    10    11   ar
    15    12    13   ar
    16    12    16   ar
    17    13    14   ar
    18    14    15   ar
    19    15    16   ar
    20    17    18    1
    21    18    19   am
    22    18    30    1
    23    19    20   am
    24    19    29    2
    25    20    21    1
    26    21    22   ar
    27    21    26   ar
    28    22    23   ar
    29    23    24   ar
    30    23    28    1
    31    24    25   ar
    32    25    26   ar
    33    25    27    1
    34    30    31    1
    35    31    32    1
    36    32    33    1
    37    33    34    1
