@<TRIPOS>MOLECULE
38032_ChemDiv_C797-1061
 28 31 0 0 0
SMALL
GASTEIGER
Energy = 0

@<TRIPOS>ATOM
      1 N           0.8080    2.0250    0.0000 N.ar    1  LIG1       -0.2533
      2 C           1.4000    2.8290    0.0000 C.ar    1  LIG1        0.1817
      3 S           0.8080    3.6420    0.0000 S.2     1  LIG1       -0.0484
      4 C          -0.1460    3.3290    0.0000 C.ar    1  LIG1        0.0515
      5 C          -0.1460    2.3290    0.0000 C.ar    1  LIG1        0.0749
      6 C          -1.0080    1.8250    0.0000 C.ar    1  LIG1        0.0213
      7 C          -1.8670    2.3250    0.0000 C.ar    1  LIG1        0.0384
      8 C          -1.8670    3.3290    0.0000 C.ar    1  LIG1        0.1393
      9 C          -1.0080    3.8290    0.0000 C.ar    1  LIG1        0.0449
     10 O          -2.7420    3.8290    0.0000 O.3     1  LIG1       -0.4714
     11 C          -3.6000    3.3290    0.0000 C.3     1  LIG1        0.2525
     12 N           2.3920    2.7380    0.0000 N.ar    1  LIG1       -0.2202
     13 C           2.7920    1.8130    0.0000 C.ar    1  LIG1        0.1104
     14 C           2.1960    1.0000    0.0000 C.ar    1  LIG1        0.1305
     15 C           1.2000    1.1130    0.0000 C.ar    1  LIG1        0.2721
     16 O           0.6080    0.3130    0.0000 O.2     1  LIG1       -0.2664
     17 C           2.6040    0.0880    0.0000 C.2     1  LIG1        0.2710
     18 O           3.6000   -0.0330    0.0000 O.2     1  LIG1       -0.2681
     19 N           2.0080   -0.7250    0.0000 N.am    1  LIG1       -0.2015
     20 C           1.0210   -0.6130    0.0000 C.3     1  LIG1        0.1158
     21 C           0.4290   -1.4130    0.0000 C.3     1  LIG1        0.0281
     22 C          -0.5670   -1.3130    0.0000 C.3     1  LIG1        0.0282
     23 C          -1.1630   -2.1130    0.0000 C.ar    1  LIG1       -0.0221
     24 C          -2.1500   -2.0000    0.0000 C.ar    1  LIG1       -0.0043
     25 C          -2.7540   -2.8000    0.0000 C.ar    1  LIG1       -0.0003
     26 C          -2.3380   -3.7210    0.0000 C.ar    1  LIG1       -0.0000
     27 C          -1.3380   -3.8250    0.0000 C.ar    1  LIG1       -0.0003
     28 C          -0.7540   -3.0210    0.0000 C.ar    1  LIG1       -0.0043
@<TRIPOS>BOND
     1     1     2   ar
     2     1     5   ar
     3     1    15   ar
     4     2     3   ar
     5     2    12   ar
     6     3     4   ar
     7     4     5   ar
     8     4     9   ar
     9     5     6   ar
    10     6     7   ar
    11     7     8   ar
    12     8     9   ar
    13     8    10    1
    14    10    11    1
    15    12    13   ar
    16    13    14   ar
    17    14    15   ar
    18    14    17    1
    19    15    16    2
    20    17    18    2
    21    17    19   am
    22    19    20    1
    23    20    21    1
    24    21    22    1
    25    22    23    1
    26    23    24   ar
    27    23    28   ar
    28    24    25   ar
    29    25    26   ar
    30    26    27   ar
    31    27    28   ar
