@<TRIPOS>MOLECULE
38033_ChemDiv_C767-0123
 21 24 0 0 0
SMALL
GASTEIGER
Energy = 0

@<TRIPOS>ATOM
      1 C           1.1960   -2.5040    0.0000 C.ar    1  LIG1        0.1794
      2 N           0.5290   -1.7630    0.0000 N.ar    1  LIG1       -0.2846
      3 C           1.0250   -0.8880    0.0000 C.ar    1  LIG1        0.0723
      4 C           2.0000   -1.0960    0.0000 C.ar    1  LIG1        0.0559
      5 S           2.1040   -2.0830    0.0000 S.2     1  LIG1       -0.0480
      6 C           0.6040    0.0210    0.0000 C.ar    1  LIG1        0.0169
      7 C           1.1960    0.8250    0.0000 C.ar    1  LIG1        0.0046
      8 C           0.7880    1.7420    0.0000 C.ar    1  LIG1        0.0369
      9 C          -0.2130    1.8420    0.0000 C.ar    1  LIG1        0.1386
     10 C          -0.7960    1.0210    0.0000 C.ar    1  LIG1        0.0369
     11 C          -0.3790    0.1130    0.0000 C.ar    1  LIG1        0.0046
     12 O          -0.6290    2.7500    0.0000 O.3     1  LIG1       -0.4755
     13 C          -1.6250    2.8420    0.0000 C.3     1  LIG1        0.2055
     14 C          -2.0330    3.7540    0.0000 C.3     1  LIG1        0.0512
     15 C          -0.3880   -2.1710    0.0000 C.ar    1  LIG1        0.0834
     16 C          -0.2790   -3.1630    0.0000 C.ar    1  LIG1        0.0995
     17 N           0.6960   -3.3710    0.0000 N.ar    1  LIG1       -0.2206
     18 C          -1.0830   -3.7500    0.0000 C.ar    1  LIG1        0.0207
     19 C          -2.0040   -3.3580    0.0000 C.ar    1  LIG1        0.0016
     20 C          -2.1080   -2.3580    0.0000 C.ar    1  LIG1        0.0016
     21 C          -1.3040   -1.7670    0.0000 C.ar    1  LIG1        0.0191
@<TRIPOS>BOND
     1     1     2   ar
     2     1     5   ar
     3     1    17   ar
     4     2     3   ar
     5     2    15   ar
     6     3     4   ar
     7     3     6    1
     8     4     5   ar
     9     6     7   ar
    10     6    11   ar
    11     7     8   ar
    12     8     9   ar
    13     9    10   ar
    14     9    12    1
    15    10    11   ar
    16    12    13    1
    17    13    14    1
    18    15    16   ar
    19    15    21   ar
    20    16    17   ar
    21    16    18   ar
    22    18    19   ar
    23    19    20   ar
    24    20    21   ar
