@<TRIPOS>MOLECULE
38037_ChemDiv_C797-0892
 33 37 0 0 0
SMALL
GASTEIGER
Energy = 0

@<TRIPOS>ATOM
      1 C           0.7630    1.0250    0.0000 C.ar    1  LIG1        0.4007
      2 N           0.1750    1.8420    0.0000 N.ar    1  LIG1       -0.2357
      3 C           0.7630    2.6420    0.0000 C.ar    1  LIG1        0.1623
      4 C           1.7130    2.3210    0.0000 C.ar    1  LIG1        0.3168
      5 N           1.7130    1.3290    0.0000 N.ar    1  LIG1        0.1046
      6 C           2.5290    2.9130    0.0000 C.ar    1  LIG1        0.0749
      7 C           3.4500    2.4960    0.0000 C.ar    1  LIG1        0.0431
      8 C           4.2580    3.0790    0.0000 C.ar    1  LIG1        0.1389
      9 O           5.1630    2.6710    0.0000 O.3     1  LIG1       -0.4714
     10 C           5.9670    3.2580    0.0000 C.3     1  LIG1        0.2525
     11 C           4.1580    4.0710    0.0000 C.ar    1  LIG1        0.0369
     12 C           3.2380    4.4830    0.0000 C.ar    1  LIG1        0.0033
     13 C           2.4330    3.8960    0.0000 C.ar    1  LIG1        0.0064
     14 C          -0.7750    1.5250    0.0000 C.ar    1  LIG1        0.0764
     15 C          -0.7750    0.5170    0.0000 C.ar    1  LIG1        0.0531
     16 S           0.1750    0.2130    0.0000 S.2     1  LIG1        0.0088
     17 C          -1.6420    0.0170    0.0000 C.ar    1  LIG1        0.0127
     18 C          -2.5130    0.5130    0.0000 C.ar    1  LIG1        0.0542
     19 C          -3.3750    0.0170    0.0000 C.2     1  LIG1        0.2491
     20 N          -3.3750   -0.9830    0.0000 N.am    1  LIG1       -0.2726
     21 C          -2.5130   -1.4790    0.0000 C.3     1  LIG1        0.1153
     22 C          -2.5130   -2.4830    0.0000 C.3     1  LIG1        0.1182
     23 N          -3.3880   -2.9830    0.0000 N.am    1  LIG1       -0.2425
     24 C          -3.3880   -3.9830    0.0000 C.2     1  LIG1        0.4050
     25 O          -2.5250   -4.4830    0.0000 O.2     1  LIG1       -0.2262
     26 O          -4.2460   -4.4750    0.0000 O.3     1  LIG1       -0.4345
     27 C          -5.1080   -3.9670    0.0000 C.3     1  LIG1        0.2102
     28 C          -5.9710   -4.4670    0.0000 C.3     1  LIG1        0.0513
     29 C          -4.2460   -2.4750    0.0000 C.3     1  LIG1        0.1182
     30 C          -4.2460   -1.4790    0.0000 C.3     1  LIG1        0.1153
     31 O          -4.2460    0.5130    0.0000 O.2     1  LIG1       -0.2699
     32 C          -2.5130    1.5130    0.0000 C.ar    1  LIG1        0.0060
     33 C          -1.6420    2.0210    0.0000 C.ar    1  LIG1        0.0184
@<TRIPOS>BOND
     1     1     2   ar
     2     1     5   ar
     3     1    16   ar
     4     2     3   ar
     5     2    14   ar
     6     3     4   ar
     7     4     5   ar
     8     4     6    1
     9     6     7   ar
    10     6    13   ar
    11     7     8   ar
    12     8     9    1
    13     8    11   ar
    14     9    10    1
    15    11    12   ar
    16    12    13   ar
    17    14    15   ar
    18    14    33   ar
    19    15    16   ar
    20    15    17   ar
    21    17    18   ar
    22    18    19    1
    23    18    32   ar
    24    19    20   am
    25    19    31    2
    26    20    21    1
    27    20    30    1
    28    21    22    1
    29    22    23    1
    30    23    24   am
    31    23    29    1
    32    24    25    2
    33    24    26    1
    34    26    27    1
    35    27    28    1
    36    29    30    1
    37    32    33   ar
