@<TRIPOS>MOLECULE
38034_ChemDiv_C791-0459
 21 23 0 0 0
SMALL
GASTEIGER
Energy = 0

@<TRIPOS>ATOM
      1 N          -1.1130    1.1420    0.0000 N.ar    1  LIG1       -0.2414
      2 N          -0.5130    1.9580    0.0000 N.ar    1  LIG1       -0.1672
      3 C          -1.1130    2.7750    0.0000 C.ar    1  LIG1        0.1216
      4 C          -2.0670    2.4580    0.0000 C.ar    1  LIG1        0.0382
      5 C          -2.0670    1.4630    0.0000 C.ar    1  LIG1        0.0799
      6 C          -2.9290    0.9630    0.0000 C.ar    1  LIG1        0.0188
      7 C          -3.7880    1.4630    0.0000 C.ar    1  LIG1        0.0015
      8 C          -3.7880    2.4580    0.0000 C.ar    1  LIG1        0.0001
      9 C          -2.9290    2.9580    0.0000 C.ar    1  LIG1        0.0031
     10 C          -0.7960    0.1960    0.0000 C.3     1  LIG1        0.2139
     11 C           0.1670   -0.0630    0.0000 C.2     1  LIG1        0.2704
     12 N           0.4250   -1.0170    0.0000 N.am    1  LIG1       -0.1778
     13 C           1.3920   -1.2750    0.0000 C.ar    1  LIG1        0.0691
     14 C           1.6380   -2.2380    0.0000 C.ar    1  LIG1       -0.0065
     15 C           2.6040   -2.4960    0.0000 C.ar    1  LIG1       -0.0033
     16 C           3.3250   -1.7880    0.0000 C.ar    1  LIG1       -0.0045
     17 C           3.0580   -0.8210    0.0000 C.ar    1  LIG1       -0.0206
     18 C           2.1000   -0.5790    0.0000 C.ar    1  LIG1        0.0120
     19 C           3.7830   -0.1250    0.0000 C.3     1  LIG1        0.0311
     20 C           0.9290   -2.9540    0.0000 C.3     1  LIG1        0.0324
     21 O           0.8670    0.6500    0.0000 O.2     1  LIG1       -0.2708
@<TRIPOS>BOND
     1     1     2   ar
     2     1     5   ar
     3     1    10    1
     4     2     3   ar
     5     3     4   ar
     6     4     5   ar
     7     4     9   ar
     8     5     6   ar
     9     6     7   ar
    10     7     8   ar
    11     8     9   ar
    12    10    11    1
    13    11    12   am
    14    11    21    2
    15    12    13    1
    16    13    14   ar
    17    13    18   ar
    18    14    15   ar
    19    14    20    1
    20    15    16   ar
    21    16    17   ar
    22    17    18   ar
    23    17    19    1
