@<TRIPOS>MOLECULE
38030_ChemDiv_C797-1060
 28 31 0 0 0
SMALL
GASTEIGER
Energy = 0

@<TRIPOS>ATOM
      1 N           0.8000    2.7080    0.0000 N.ar    1  LIG1       -0.2533
      2 C           1.3920    3.5130    0.0000 C.ar    1  LIG1        0.1817
      3 S           0.8040    4.3210    0.0000 S.2     1  LIG1       -0.0484
      4 C          -0.1500    4.0080    0.0000 C.ar    1  LIG1        0.0515
      5 C          -0.1500    3.0130    0.0000 C.ar    1  LIG1        0.0749
      6 C          -1.0130    2.5080    0.0000 C.ar    1  LIG1        0.0213
      7 C          -1.8750    3.0080    0.0000 C.ar    1  LIG1        0.0384
      8 C          -1.8750    4.0080    0.0000 C.ar    1  LIG1        0.1393
      9 C          -1.0130    4.5080    0.0000 C.ar    1  LIG1        0.0449
     10 O          -2.7460    4.5080    0.0000 O.3     1  LIG1       -0.4714
     11 C          -3.6080    4.0080    0.0000 C.3     1  LIG1        0.2525
     12 N           2.3920    3.4210    0.0000 N.ar    1  LIG1       -0.2202
     13 C           2.7920    2.4960    0.0000 C.ar    1  LIG1        0.1104
     14 C           2.2000    1.6830    0.0000 C.ar    1  LIG1        0.1305
     15 C           1.2000    1.7960    0.0000 C.ar    1  LIG1        0.2721
     16 O           0.6040    0.9960    0.0000 O.2     1  LIG1       -0.2664
     17 C           2.6040    0.7630    0.0000 C.2     1  LIG1        0.2710
     18 N           2.0130   -0.0500    0.0000 N.am    1  LIG1       -0.2011
     19 C           2.4130   -0.9670    0.0000 C.3     1  LIG1        0.1198
     20 C           1.8170   -1.7710    0.0000 C.3     1  LIG1        0.0440
     21 C           2.2130   -2.6830    0.0000 C.ar    1  LIG1       -0.0208
     22 C           1.6250   -3.4920    0.0000 C.ar    1  LIG1       -0.0042
     23 C           2.0290   -4.4040    0.0000 C.ar    1  LIG1       -0.0003
     24 C           3.0170   -4.5080    0.0000 C.ar    1  LIG1       -0.0000
     25 C           3.6040   -3.7080    0.0000 C.ar    1  LIG1       -0.0003
     26 C           3.2040   -2.7960    0.0000 C.ar    1  LIG1       -0.0042
     27 C           0.8170   -1.6580    0.0000 C.3     1  LIG1        0.0065
     28 O           3.5920    0.6500    0.0000 O.2     1  LIG1       -0.2681
@<TRIPOS>BOND
     1     1     2   ar
     2     1     5   ar
     3     1    15   ar
     4     2     3   ar
     5     2    12   ar
     6     3     4   ar
     7     4     5   ar
     8     4     9   ar
     9     5     6   ar
    10     6     7   ar
    11     7     8   ar
    12     8     9   ar
    13     8    10    1
    14    10    11    1
    15    12    13   ar
    16    13    14   ar
    17    14    15   ar
    18    14    17    1
    19    15    16    2
    20    17    18   am
    21    17    28    2
    22    18    19    1
    23    19    20    1
    24    20    21    1
    25    20    27    1
    26    21    22   ar
    27    21    26   ar
    28    22    23   ar
    29    23    24   ar
    30    24    25   ar
    31    25    26   ar
