@<TRIPOS>MOLECULE
38038_ChemDiv_C791-0825
 25 28 0 0 0
SMALL
GASTEIGER
Energy = 0

@<TRIPOS>ATOM
      1 N          -2.2580    1.9420    0.0000 N.ar    1  LIG1       -0.2414
      2 N          -1.6580    2.7630    0.0000 N.ar    1  LIG1       -0.1672
      3 C          -2.2580    3.5750    0.0000 C.ar    1  LIG1        0.1216
      4 C          -3.2130    3.2580    0.0000 C.ar    1  LIG1        0.0382
      5 C          -3.2130    2.2580    0.0000 C.ar    1  LIG1        0.0799
      6 C          -4.0710    1.7630    0.0000 C.ar    1  LIG1        0.0188
      7 C          -4.9330    2.2580    0.0000 C.ar    1  LIG1        0.0015
      8 C          -4.9330    3.2580    0.0000 C.ar    1  LIG1        0.0001
      9 C          -4.0710    3.7580    0.0000 C.ar    1  LIG1        0.0031
     10 C          -1.9420    0.9960    0.0000 C.3     1  LIG1        0.2140
     11 C          -0.9790    0.7420    0.0000 C.2     1  LIG1        0.2730
     12 N          -0.7250   -0.2170    0.0000 N.am    1  LIG1       -0.1407
     13 C           0.2290   -0.4710    0.0000 C.ar    1  LIG1        0.2524
     14 C           0.5960   -1.3960    0.0000 C.ar    1  LIG1        0.0803
     15 C           1.5960   -1.3330    0.0000 C.ar    1  LIG1        0.1245
     16 N           1.8540   -0.3540    0.0000 N.ar    1  LIG1       -0.0753
     17 O           1.0040    0.1630    0.0000 O.2     1  LIG1       -0.3364
     18 C           2.2750   -2.0750    0.0000 C.ar    1  LIG1        0.0232
     19 C           3.2580   -1.8580    0.0000 C.ar    1  LIG1        0.0312
     20 C           3.9330   -2.6040    0.0000 C.ar    1  LIG1        0.1402
     21 F           4.9290   -2.3710    0.0000 F       1  LIG1       -0.2042
     22 C           3.6210   -3.5420    0.0000 C.ar    1  LIG1        0.0296
     23 C           2.6540   -3.7540    0.0000 C.ar    1  LIG1        0.0024
     24 C           1.9750   -3.0210    0.0000 C.ar    1  LIG1        0.0017
     25 O          -0.2790    1.4500    0.0000 O.2     1  LIG1       -0.2707
@<TRIPOS>BOND
     1     1     2   ar
     2     1     5   ar
     3     1    10    1
     4     2     3   ar
     5     3     4   ar
     6     4     5   ar
     7     4     9   ar
     8     5     6   ar
     9     6     7   ar
    10     7     8   ar
    11     8     9   ar
    12    10    11    1
    13    11    12   am
    14    11    25    2
    15    12    13    1
    16    13    14   ar
    17    13    17   ar
    18    14    15   ar
    19    15    16   ar
    20    15    18    1
    21    16    17   ar
    22    18    19   ar
    23    18    24   ar
    24    19    20   ar
    25    20    21    1
    26    20    22   ar
    27    22    23   ar
    28    23    24   ar
