@<TRIPOS>MOLECULE
38035_ChemDiv_C767-0131
 20 23 0 0 0
SMALL
GASTEIGER
Energy = 0

@<TRIPOS>ATOM
      1 C           1.1960   -2.4040    0.0000 C.ar    1  LIG1        0.1794
      2 N           0.5290   -1.6580    0.0000 N.ar    1  LIG1       -0.2846
      3 C           1.0250   -0.7960    0.0000 C.ar    1  LIG1        0.0723
      4 C           2.0000   -0.9920    0.0000 C.ar    1  LIG1        0.0559
      5 S           2.1040   -1.9920    0.0000 S.2     1  LIG1       -0.0480
      6 C           0.6040    0.1130    0.0000 C.ar    1  LIG1        0.0167
      7 C           1.1960    0.9210    0.0000 C.ar    1  LIG1        0.0011
      8 C           0.7880    1.8420    0.0000 C.ar    1  LIG1       -0.0042
      9 C          -0.2130    1.9330    0.0000 C.ar    1  LIG1       -0.0222
     10 C          -0.7960    1.1130    0.0000 C.ar    1  LIG1       -0.0042
     11 C          -0.3790    0.2080    0.0000 C.ar    1  LIG1        0.0011
     12 C          -0.6250    2.8460    0.0000 C.3     1  LIG1        0.0264
     13 C          -0.0460    3.6580    0.0000 C.3     1  LIG1        0.0050
     14 C          -0.3880   -2.0710    0.0000 C.ar    1  LIG1        0.0834
     15 C          -0.2790   -3.0630    0.0000 C.ar    1  LIG1        0.0995
     16 N           0.6960   -3.2750    0.0000 N.ar    1  LIG1       -0.2206
     17 C          -1.0830   -3.6540    0.0000 C.ar    1  LIG1        0.0207
     18 C          -2.0040   -3.2630    0.0000 C.ar    1  LIG1        0.0016
     19 C          -2.1080   -2.2630    0.0000 C.ar    1  LIG1        0.0016
     20 C          -1.3040   -1.6710    0.0000 C.ar    1  LIG1        0.0191
@<TRIPOS>BOND
     1     1     2   ar
     2     1     5   ar
     3     1    16   ar
     4     2     3   ar
     5     2    14   ar
     6     3     4   ar
     7     3     6    1
     8     4     5   ar
     9     6     7   ar
    10     6    11   ar
    11     7     8   ar
    12     8     9   ar
    13     9    10   ar
    14     9    12    1
    15    10    11   ar
    16    12    13    1
    17    14    15   ar
    18    14    20   ar
    19    15    16   ar
    20    15    17   ar
    21    17    18   ar
    22    18    19   ar
    23    19    20   ar
