@<TRIPOS>MOLECULE
38039_ChemDiv_C797-0986
 36 41 0 0 0
SMALL
GASTEIGER
Energy = 0

@<TRIPOS>ATOM
      1 C           0.0420    0.7460    0.0000 C.ar    1  LIG1        0.4007
      2 N          -0.5460    1.5580    0.0000 N.ar    1  LIG1       -0.2357
      3 C           0.0500    2.3710    0.0000 C.ar    1  LIG1        0.1623
      4 C           1.0000    2.0500    0.0000 C.ar    1  LIG1        0.3167
      5 N           0.9960    1.0540    0.0000 N.ar    1  LIG1        0.1046
      6 C           1.8130    2.6420    0.0000 C.ar    1  LIG1        0.0721
      7 C           1.7080    3.6210    0.0000 C.ar    1  LIG1        0.0093
      8 C           2.5250    4.2130    0.0000 C.ar    1  LIG1        0.0371
      9 C           3.4380    3.8040    0.0000 C.ar    1  LIG1        0.1386
     10 C           3.5330    2.8080    0.0000 C.ar    1  LIG1        0.0371
     11 C           2.7290    2.2250    0.0000 C.ar    1  LIG1        0.0093
     12 O           4.2540    4.3790    0.0000 O.3     1  LIG1       -0.4755
     13 C           4.1500    5.3670    0.0000 C.3     1  LIG1        0.2055
     14 C           4.9630    5.9580    0.0000 C.3     1  LIG1        0.0512
     15 C          -1.4920    1.2540    0.0000 C.ar    1  LIG1        0.0764
     16 C          -1.4920    0.2460    0.0000 C.ar    1  LIG1        0.0531
     17 S          -0.5460   -0.0630    0.0000 S.2     1  LIG1        0.0088
     18 C          -2.3670   -0.2580    0.0000 C.ar    1  LIG1        0.0127
     19 C          -3.2250    0.2420    0.0000 C.ar    1  LIG1        0.0542
     20 C          -4.1040   -0.2580    0.0000 C.2     1  LIG1        0.2491
     21 N          -4.1040   -1.2630    0.0000 N.am    1  LIG1       -0.2726
     22 C          -3.2250   -1.7500    0.0000 C.3     1  LIG1        0.1152
     23 C          -3.2330   -2.7630    0.0000 C.3     1  LIG1        0.1153
     24 N          -4.1040   -3.2630    0.0000 N.am    1  LIG1       -0.2701
     25 C          -4.1040   -4.2580    0.0000 C.2     1  LIG1        0.2839
     26 C          -3.2420   -4.7540    0.0000 C.ar    1  LIG1        0.1987
     27 O          -3.1420   -5.7460    0.0000 O.2     1  LIG1       -0.4458
     28 C          -2.1710   -5.9580    0.0000 C.ar    1  LIG1        0.1798
     29 C          -1.6710   -5.0960    0.0000 C.ar    1  LIG1        0.0440
     30 C          -2.3380   -4.3460    0.0000 C.ar    1  LIG1        0.0455
     31 O          -4.9670   -4.7540    0.0000 O.2     1  LIG1       -0.2666
     32 C          -4.9630   -2.7580    0.0000 C.3     1  LIG1        0.1153
     33 C          -4.9630   -1.7630    0.0000 C.3     1  LIG1        0.1152
     34 O          -4.9670    0.2420    0.0000 O.2     1  LIG1       -0.2699
     35 C          -3.2250    1.2420    0.0000 C.ar    1  LIG1        0.0060
     36 C          -2.3670    1.7500    0.0000 C.ar    1  LIG1        0.0184
@<TRIPOS>BOND
     1     1     2   ar
     2     1     5   ar
     3     1    17   ar
     4     2     3   ar
     5     2    15   ar
     6     3     4   ar
     7     4     5   ar
     8     4     6    1
     9     6     7   ar
    10     6    11   ar
    11     7     8   ar
    12     8     9   ar
    13     9    10   ar
    14     9    12    1
    15    10    11   ar
    16    12    13    1
    17    13    14    1
    18    15    16   ar
    19    15    36   ar
    20    16    17   ar
    21    16    18   ar
    22    18    19   ar
    23    19    20    1
    24    19    35   ar
    25    20    21   am
    26    20    34    2
    27    21    22    1
    28    21    33    1
    29    22    23    1
    30    23    24    1
    31    24    25   am
    32    24    32    1
    33    25    26    1
    34    25    31    2
    35    26    27   ar
    36    26    30   ar
    37    27    28   ar
    38    28    29   ar
    39    29    30   ar
    40    32    33    1
    41    35    36   ar
