@<TRIPOS>MOLECULE
38036_ChemDiv_C791-0694
 30 32 0 0 0
SMALL
GASTEIGER
Energy = 0

@<TRIPOS>ATOM
      1 C           0.7500    3.0630    0.0000 C.ar    1  LIG1        0.0778
      2 C           0.7670    2.0500    0.0000 C.ar    1  LIG1        0.1174
      3 N           1.6330    1.5460    0.0000 N.ar    1  LIG1       -0.2256
      4 C           2.5080    2.0540    0.0000 C.ar    1  LIG1        0.1230
      5 N           2.5080    3.0630    0.0000 N.ar    1  LIG1       -0.2840
      6 C           1.6330    3.5830    0.0000 C.ar    1  LIG1        0.2634
      7 O           1.6420    4.5790    0.0000 O.2     1  LIG1       -0.2669
      8 C           3.1460    3.6670    0.0000 C.3     1  LIG1        0.1102
      9 C           4.1130    3.4790    0.0000 C.3     1  LIG1        0.0246
     10 C           4.5500    2.5290    0.0000 C.3     1  LIG1        0.0024
     11 C           4.0790    1.6170    0.0000 C.3     1  LIG1        0.0080
     12 C           3.1080    1.4670    0.0000 C.3     1  LIG1        0.0640
     13 C           5.5630    2.5080    0.0000 C.3     1  LIG1        0.0001
     14 S          -0.2000    1.7290    0.0000 S.2     1  LIG1       -0.0515
     15 C          -0.8000    2.5540    0.0000 C.ar    1  LIG1        0.1019
     16 C          -0.2080    3.3710    0.0000 C.ar    1  LIG1        0.0063
     17 C          -0.5250    4.3290    0.0000 C.3     1  LIG1        0.0332
     18 N          -1.8130    2.5540    0.0000 N.am    1  LIG1       -0.1546
     19 C          -2.5330    1.8330    0.0000 C.2     1  LIG1        0.3440
     20 O          -2.2880    0.8500    0.0000 O.2     1  LIG1       -0.2488
     21 N          -3.5000    2.1000    0.0000 N.am    1  LIG1       -0.1867
     22 C          -4.2210    1.3920    0.0000 C.3     1  LIG1        0.1230
     23 C          -3.9500    0.4250    0.0000 C.3     1  LIG1        0.0861
     24 C          -4.6670   -0.2710    0.0000 C.3     1  LIG1        0.1407
     25 N          -4.4040   -1.2380    0.0000 N.4     1  LIG1        0.3820
     26 C          -5.1290   -1.9420    0.0000 C.3     1  LIG1        0.1389
     27 C          -4.8540   -2.9080    0.0000 C.3     1  LIG1        0.0627
     28 C          -5.5670   -3.6130    0.0000 C.3     1  LIG1        0.0061
     29 C          -5.2920   -4.5790    0.0000 C.3     1  LIG1        0.0002
     30 C          -3.4380   -1.4960    0.0000 C.3     1  LIG1        0.2022
@<TRIPOS>BOND
     1     1     2   ar
     2     1     6   ar
     3     1    16   ar
     4     2     3   ar
     5     2    14   ar
     6     3     4   ar
     7     4     5   ar
     8     4    12    1
     9     5     6   ar
    10     5     8    1
    11     6     7    2
    12     8     9    1
    13     9    10    1
    14    10    11    1
    15    10    13    1
    16    11    12    1
    17    14    15   ar
    18    15    16   ar
    19    15    18    1
    20    16    17    1
    21    18    19   am
    22    19    20    2
    23    19    21   am
    24    21    22    1
    25    22    23    1
    26    23    24    1
    27    24    25    1
    28    25    26    1
    29    25    30    1
    30    26    27    1
    31    27    28    1
    32    28    29    1
