@<TRIPOS>MOLECULE
38042_ChemDiv_C791-0872
 28 31 0 0 0
SMALL
GASTEIGER
Energy = 0

@<TRIPOS>ATOM
      1 N          -0.5500    2.3040    0.0000 N.ar    1  LIG1       -0.1979
      2 N           0.0380    3.1210    0.0000 N.ar    1  LIG1       -0.1612
      3 C          -0.5580    3.9330    0.0000 C.ar    1  LIG1        0.1217
      4 C          -1.5130    3.6130    0.0000 C.ar    1  LIG1        0.0347
      5 C          -1.5130    2.6080    0.0000 C.ar    1  LIG1        0.0869
      6 C          -2.3880    2.1000    0.0000 C.ar    1  LIG1        0.0193
      7 C          -3.2540    2.6080    0.0000 C.ar    1  LIG1        0.0012
      8 C          -3.2540    3.6130    0.0000 C.ar    1  LIG1       -0.0041
      9 C          -2.3880    4.1040    0.0000 C.ar    1  LIG1       -0.0188
     10 C          -2.3880    5.1170    0.0000 C.3     1  LIG1        0.0311
     11 C          -0.2460    1.3420    0.0000 C.2     1  LIG1        0.2573
     12 C           0.6290    0.8540    0.0000 C.3     1  LIG1        0.0995
     13 C           1.4920    1.3540    0.0000 C.3     1  LIG1        0.0951
     14 C           2.3540    0.8540    0.0000 C.2     1  LIG1        0.2262
     15 N           2.3670   -0.1420    0.0000 N.am    1  LIG1       -0.2760
     16 C           1.5130   -0.6380    0.0000 C.3     1  LIG1        0.1149
     17 C           1.5130   -1.6250    0.0000 C.3     1  LIG1        0.1137
     18 N           2.3710   -2.1250    0.0000 N.pl3   1  LIG1       -0.2897
     19 C           2.3830   -3.1170    0.0000 C.ar    1  LIG1        0.1318
     20 N           1.5130   -3.6250    0.0000 N.ar    1  LIG1       -0.2292
     21 C           1.5210   -4.6130    0.0000 C.ar    1  LIG1        0.1003
     22 C           2.3830   -5.1170    0.0000 C.ar    1  LIG1        0.0208
     23 C           3.2500   -4.6040    0.0000 C.ar    1  LIG1        0.0045
     24 C           3.2460   -3.6080    0.0000 C.ar    1  LIG1        0.0343
     25 C           3.2330   -1.6250    0.0000 C.3     1  LIG1        0.1137
     26 C           3.2330   -0.6380    0.0000 C.3     1  LIG1        0.1149
     27 O           3.2210    1.3580    0.0000 O.2     1  LIG1       -0.2749
     28 O          -0.9540    0.6420    0.0000 O.2     1  LIG1       -0.2701
@<TRIPOS>BOND
     1     1     2   ar
     2     1     5   ar
     3     1    11   am
     4     2     3   ar
     5     3     4   ar
     6     4     5   ar
     7     4     9   ar
     8     5     6   ar
     9     6     7   ar
    10     7     8   ar
    11     8     9   ar
    12     9    10    1
    13    11    12    1
    14    11    28    2
    15    12    13    1
    16    13    14    1
    17    14    15   am
    18    14    27    2
    19    15    16    1
    20    15    26    1
    21    16    17    1
    22    17    18    1
    23    18    19    1
    24    18    25    1
    25    19    20   ar
    26    19    24   ar
    27    20    21   ar
    28    21    22   ar
    29    22    23   ar
    30    23    24   ar
    31    25    26    1
