@<TRIPOS>MOLECULE
38040_ChemDiv_C791-0837
 23 26 0 0 0
SMALL
GASTEIGER
Energy = 0

@<TRIPOS>ATOM
      1 C           0.9500   -1.3290    0.0000 C.ar    1  LIG1        0.2243
      2 N           1.2960   -2.2500    0.0000 N.ar    1  LIG1       -0.2120
      3 C           2.3040   -2.1880    0.0000 C.ar    1  LIG1        0.1000
      4 C           2.5670   -1.2210    0.0000 C.ar    1  LIG1        0.0800
      5 N           1.7170   -0.6790    0.0000 N.ar    1  LIG1       -0.2961
      6 C           1.6540    0.3040    0.0000 C.3     1  LIG1        0.1333
      7 C           3.5210   -0.9500    0.0000 C.ar    1  LIG1        0.0188
      8 C           4.2290   -1.6630    0.0000 C.ar    1  LIG1        0.0016
      9 C           3.9880   -2.6290    0.0000 C.ar    1  LIG1        0.0016
     10 C           3.0170   -2.9000    0.0000 C.ar    1  LIG1        0.0207
     11 N          -0.0210   -1.0710    0.0000 N.am    1  LIG1       -0.1429
     12 C          -0.2790   -0.1130    0.0000 C.2     1  LIG1        0.2729
     13 C          -1.2420    0.1420    0.0000 C.3     1  LIG1        0.2140
     14 N          -1.5580    1.0920    0.0000 N.ar    1  LIG1       -0.2414
     15 N          -0.9580    1.9080    0.0000 N.ar    1  LIG1       -0.1672
     16 C          -1.5580    2.7210    0.0000 C.ar    1  LIG1        0.1216
     17 C          -2.5130    2.4040    0.0000 C.ar    1  LIG1        0.0382
     18 C          -2.5130    1.4080    0.0000 C.ar    1  LIG1        0.0799
     19 C          -3.3710    0.9080    0.0000 C.ar    1  LIG1        0.0188
     20 C          -4.2330    1.4080    0.0000 C.ar    1  LIG1        0.0015
     21 C          -4.2330    2.4040    0.0000 C.ar    1  LIG1        0.0001
     22 C          -3.3710    2.9040    0.0000 C.ar    1  LIG1        0.0031
     23 O           0.4210    0.5960    0.0000 O.2     1  LIG1       -0.2707
@<TRIPOS>BOND
     1     1     2   ar
     2     1     5   ar
     3     1    11    1
     4     2     3   ar
     5     3     4   ar
     6     3    10   ar
     7     4     5   ar
     8     4     7   ar
     9     5     6    1
    10     7     8   ar
    11     8     9   ar
    12     9    10   ar
    13    11    12   am
    14    12    13    1
    15    12    23    2
    16    13    14    1
    17    14    15   ar
    18    14    18   ar
    19    15    16   ar
    20    16    17   ar
    21    17    18   ar
    22    17    22   ar
    23    18    19   ar
    24    19    20   ar
    25    20    21   ar
    26    21    22   ar
