@<TRIPOS>MOLECULE
38048_ChemDiv_C794-0219
 14 15 0 0 0
SMALL
GASTEIGER
Energy = 0

@<TRIPOS>ATOM
      1 C          -0.7290    0.0380    0.0000 C.ar    1  LIG1        0.0663
      2 C          -0.4290    0.9960    0.0000 C.ar    1  LIG1        0.0466
      3 C           0.5750    0.9880    0.0000 C.ar    1  LIG1        0.0317
      4 C           0.8880    0.0380    0.0000 C.ar    1  LIG1        0.1372
      5 N           0.0710   -0.5500    0.0000 N.ar    1  LIG1       -0.3197
      6 C           0.0630   -1.5500    0.0000 C.3     1  LIG1        0.1306
      7 C           1.8290   -0.2790    0.0000 C.2     1  LIG1        0.3574
      8 O           2.5790    0.3830    0.0000 O.2     1  LIG1       -0.2433
      9 O           2.0380   -1.2630    0.0000 O.3     1  LIG1       -0.4403
     10 C           2.9880   -1.5750    0.0000 C.3     1  LIG1        0.2560
     11 S          -1.2380    1.5790    0.0000 S.2     1  LIG1       -0.0897
     12 C          -2.0420    0.9960    0.0000 C.ar    1  LIG1        0.0091
     13 C          -1.7380    0.0380    0.0000 C.ar    1  LIG1        0.0199
     14 C          -2.9880    1.3040    0.0000 C.3     1  LIG1        0.0382
@<TRIPOS>BOND
     1     1     2   ar
     2     1     5   ar
     3     1    13   ar
     4     2     3   ar
     5     2    11   ar
     6     3     4   ar
     7     4     5   ar
     8     4     7    1
     9     5     6    1
    10     7     8    2
    11     7     9    1
    12     9    10    1
    13    11    12   ar
    14    12    13   ar
    15    12    14    1
