@<TRIPOS>MOLECULE
38043_ChemDiv_E235-1201
 31 35 0 0 0
SMALL
GASTEIGER
Energy = 0

@<TRIPOS>ATOM
      1 C           1.5960   -2.0290    0.0000 C.ar    1  LIG1        0.4007
      2 N           1.4960   -1.0290    0.0000 N.ar    1  LIG1       -0.2357
      3 C           2.4250   -0.6290    0.0000 C.ar    1  LIG1        0.1623
      4 C           3.0790   -1.3790    0.0000 C.ar    1  LIG1        0.3168
      5 N           2.5750   -2.2420    0.0000 N.ar    1  LIG1        0.1046
      6 C           4.0750   -1.3290    0.0000 C.ar    1  LIG1        0.0749
      7 C           4.5290   -0.4460    0.0000 C.ar    1  LIG1        0.0431
      8 C           5.5330   -0.3960    0.0000 C.ar    1  LIG1        0.1389
      9 O           5.9920    0.5210    0.0000 O.3     1  LIG1       -0.4714
     10 C           5.4330    1.3500    0.0000 C.3     1  LIG1        0.2525
     11 C           6.0830   -1.2460    0.0000 C.ar    1  LIG1        0.0369
     12 C           5.6170   -2.1290    0.0000 C.ar    1  LIG1        0.0033
     13 C           4.6130   -2.1750    0.0000 C.ar    1  LIG1        0.0064
     14 C           0.5130   -0.8250    0.0000 C.ar    1  LIG1        0.0764
     15 C           0.0130   -1.6790    0.0000 C.ar    1  LIG1        0.0531
     16 S           0.6790   -2.4290    0.0000 S.2     1  LIG1        0.0088
     17 C          -0.9880   -1.6790    0.0000 C.ar    1  LIG1        0.0127
     18 C          -1.4880   -0.8250    0.0000 C.ar    1  LIG1        0.0556
     19 C          -2.4920   -0.8250    0.0000 C.2     1  LIG1        0.2650
     20 N          -2.9920    0.0380    0.0000 N.am    1  LIG1       -0.1955
     21 C          -3.9920    0.0380    0.0000 C.3     1  LIG1        0.1717
     22 C          -4.4920    0.9000    0.0000 C.3     1  LIG1        0.1092
     23 N          -5.4880    0.9000    0.0000 N.4     1  LIG1        0.3743
     24 C          -5.7880    1.8500    0.0000 C.3     1  LIG1        0.1385
     25 C          -5.0080    2.4330    0.0000 C.3     1  LIG1        0.0687
     26 C          -4.1920    1.8500    0.0000 C.3     1  LIG1        0.0647
     27 C          -6.0830    0.1040    0.0000 C.3     1  LIG1        0.1385
     28 C          -5.6960   -0.8250    0.0000 C.3     1  LIG1        0.0688
     29 O          -2.9920   -1.6790    0.0000 O.2     1  LIG1       -0.2684
     30 C          -0.9880    0.0460    0.0000 C.ar    1  LIG1        0.0061
     31 C           0.0130    0.0460    0.0000 C.ar    1  LIG1        0.0184
@<TRIPOS>BOND
     1     1     2   ar
     2     1     5   ar
     3     1    16   ar
     4     2     3   ar
     5     2    14   ar
     6     3     4   ar
     7     4     5   ar
     8     4     6    1
     9     6     7   ar
    10     6    13   ar
    11     7     8   ar
    12     8     9    1
    13     8    11   ar
    14     9    10    1
    15    11    12   ar
    16    12    13   ar
    17    14    15   ar
    18    14    31   ar
    19    15    16   ar
    20    15    17   ar
    21    17    18   ar
    22    18    19    1
    23    18    30   ar
    24    19    20   am
    25    19    29    2
    26    20    21    1
    27    21    22    1
    28    22    23    1
    29    22    26    1
    30    23    24    1
    31    23    27    1
    32    24    25    1
    33    25    26    1
    34    27    28    1
    35    30    31   ar
