@<TRIPOS>MOLECULE
38045_ChemDiv_E235-1322
 29 34 0 0 0
SMALL
GASTEIGER
Energy = 0

@<TRIPOS>ATOM
      1 C           1.5250   -1.6000    0.0000 C.ar    1  LIG1        0.4007
      2 N           1.4250   -0.5960    0.0000 N.ar    1  LIG1       -0.2357
      3 C           2.3540   -0.1960    0.0000 C.ar    1  LIG1        0.1623
      4 C           3.0080   -0.9460    0.0000 C.ar    1  LIG1        0.3167
      5 N           2.5040   -1.8080    0.0000 N.ar    1  LIG1        0.1046
      6 C           4.0040   -0.8960    0.0000 C.ar    1  LIG1        0.0719
      7 C           4.4630   -0.0130    0.0000 C.ar    1  LIG1        0.0062
      8 C           5.4630    0.0380    0.0000 C.ar    1  LIG1        0.0002
      9 C           6.0170   -0.8130    0.0000 C.ar    1  LIG1        0.0000
     10 C           5.5460   -1.7000    0.0000 C.ar    1  LIG1        0.0002
     11 C           4.5460   -1.7420    0.0000 C.ar    1  LIG1        0.0062
     12 C           0.4380   -0.3920    0.0000 C.ar    1  LIG1        0.0764
     13 C          -0.0630   -1.2460    0.0000 C.ar    1  LIG1        0.0531
     14 S           0.6040   -2.0000    0.0000 S.2     1  LIG1        0.0088
     15 C          -1.0670   -1.2460    0.0000 C.ar    1  LIG1        0.0127
     16 C          -1.5670   -0.3920    0.0000 C.ar    1  LIG1        0.0545
     17 C          -2.5670   -0.3920    0.0000 C.2     1  LIG1        0.2527
     18 N          -3.0710    0.4710    0.0000 N.am    1  LIG1       -0.2551
     19 C          -4.0710    0.4710    0.0000 C.ar    1  LIG1        0.0502
     20 C          -4.3790    1.4170    0.0000 C.ar    1  LIG1       -0.0067
     21 C          -3.5880    2.0040    0.0000 C.3     1  LIG1        0.0495
     22 C          -2.7670    1.4170    0.0000 C.3     1  LIG1        0.1032
     23 C          -5.3580    1.6380    0.0000 C.ar    1  LIG1       -0.0030
     24 C          -6.0170    0.9080    0.0000 C.ar    1  LIG1       -0.0002
     25 C          -5.7170   -0.0460    0.0000 C.ar    1  LIG1        0.0013
     26 C          -4.7460   -0.2630    0.0000 C.ar    1  LIG1        0.0146
     27 O          -3.0710   -1.2460    0.0000 O.2     1  LIG1       -0.2696
     28 C          -1.0670    0.4790    0.0000 C.ar    1  LIG1        0.0061
     29 C          -0.0630    0.4790    0.0000 C.ar    1  LIG1        0.0184
@<TRIPOS>BOND
     1     1     2   ar
     2     1     5   ar
     3     1    14   ar
     4     2     3   ar
     5     2    12   ar
     6     3     4   ar
     7     4     5   ar
     8     4     6    1
     9     6     7   ar
    10     6    11   ar
    11     7     8   ar
    12     8     9   ar
    13     9    10   ar
    14    10    11   ar
    15    12    13   ar
    16    12    29   ar
    17    13    14   ar
    18    13    15   ar
    19    15    16   ar
    20    16    17    1
    21    16    28   ar
    22    17    18   am
    23    17    27    2
    24    18    19    1
    25    18    22    1
    26    19    20   ar
    27    19    26   ar
    28    20    21    1
    29    20    23   ar
    30    21    22    1
    31    23    24   ar
    32    24    25   ar
    33    25    26   ar
    34    28    29   ar
