@<TRIPOS>MOLECULE
38044_ChemDiv_C793-0349
 13 13 0 0 0
SMALL
GASTEIGER
Energy = 0

@<TRIPOS>ATOM
      1 C          -0.8670   -0.0040    0.0000 C.ar    1  LIG1        0.0246
      2 C          -0.0040    0.5080    0.0000 C.ar    1  LIG1        0.0598
      3 C           0.8580    0.0080    0.0000 C.ar    1  LIG1        0.0246
      4 C           1.7210    0.5080    0.0000 C.2     1  LIG1        0.0737
      5 O           1.7210    1.5040    0.0000 O.co2   1  LIG1       -0.5446
      6 O           2.5960    0.0130    0.0000 O.co2   1  LIG1       -0.5446
      7 C           0.8580   -1.0040    0.0000 C.ar    1  LIG1        0.0020
      8 C          -0.0040   -1.5000    0.0000 C.ar    1  LIG1        0.0001
      9 C          -0.8670   -1.0040    0.0000 C.ar    1  LIG1        0.0020
     10 CL         -0.0080    1.5040    0.0000 Cl      1  LIG1       -0.0822
     11 C          -1.7290    0.4960    0.0000 C.2     1  LIG1        0.0737
     12 O          -1.7290    1.4960    0.0000 O.co2   1  LIG1       -0.5446
     13 O          -2.6000   -0.0040    0.0000 O.co2   1  LIG1       -0.5446
@<TRIPOS>BOND
     1     1     2   ar
     2     1     9   ar
     3     1    11    1
     4     2     3   ar
     5     2    10    1
     6     3     4    1
     7     3     7   ar
     8     4     5   ar
     9     4     6   ar
    10     7     8   ar
    11     8     9   ar
    12    11    12   ar
    13    11    13   ar
