@<TRIPOS>MOLECULE
38041_ChemDiv_E235-0152
 30 34 0 0 0
SMALL
GASTEIGER
Energy = 0

@<TRIPOS>ATOM
      1 C           1.0960   -2.0330    0.0000 C.ar    1  LIG1        0.4007
      2 N           0.9960   -1.0290    0.0000 N.ar    1  LIG1       -0.2357
      3 C           1.9250   -0.6290    0.0000 C.ar    1  LIG1        0.1623
      4 C           2.5830   -1.3790    0.0000 C.ar    1  LIG1        0.3167
      5 N           2.0750   -2.2420    0.0000 N.ar    1  LIG1        0.1046
      6 C           3.5790   -1.3290    0.0000 C.ar    1  LIG1        0.0719
      7 C           4.1170   -2.1750    0.0000 C.ar    1  LIG1        0.0059
      8 C           5.1170   -2.1330    0.0000 C.ar    1  LIG1       -0.0041
      9 C           5.5880   -1.2460    0.0000 C.ar    1  LIG1       -0.0218
     10 C           5.0330   -0.3960    0.0000 C.ar    1  LIG1       -0.0041
     11 C           4.0330   -0.4460    0.0000 C.ar    1  LIG1        0.0059
     12 C           6.5880   -1.2290    0.0000 C.3     1  LIG1        0.0310
     13 C           0.0130   -0.8250    0.0000 C.ar    1  LIG1        0.0764
     14 C          -0.4880   -1.6790    0.0000 C.ar    1  LIG1        0.0531
     15 S           0.1790   -2.4330    0.0000 S.2     1  LIG1        0.0088
     16 C          -1.4920   -1.6790    0.0000 C.ar    1  LIG1        0.0127
     17 C          -1.9920   -0.8250    0.0000 C.ar    1  LIG1        0.0556
     18 C          -2.9920   -0.8250    0.0000 C.2     1  LIG1        0.2650
     19 N          -3.4920    0.0380    0.0000 N.am    1  LIG1       -0.1955
     20 C          -4.4960    0.0380    0.0000 C.3     1  LIG1        0.1717
     21 C          -4.9960    0.9000    0.0000 C.3     1  LIG1        0.1092
     22 N          -5.9920    0.9000    0.0000 N.4     1  LIG1        0.3743
     23 C          -6.2880    1.8500    0.0000 C.3     1  LIG1        0.1385
     24 C          -5.5130    2.4380    0.0000 C.3     1  LIG1        0.0687
     25 C          -4.6960    1.8500    0.0000 C.3     1  LIG1        0.0647
     26 C          -6.5880    0.1040    0.0000 C.3     1  LIG1        0.1385
     27 C          -6.2000   -0.8250    0.0000 C.3     1  LIG1        0.0688
     28 O          -3.4920   -1.6790    0.0000 O.2     1  LIG1       -0.2684
     29 C          -1.4920    0.0460    0.0000 C.ar    1  LIG1        0.0061
     30 C          -0.4880    0.0460    0.0000 C.ar    1  LIG1        0.0184
@<TRIPOS>BOND
     1     1     2   ar
     2     1     5   ar
     3     1    15   ar
     4     2     3   ar
     5     2    13   ar
     6     3     4   ar
     7     4     5   ar
     8     4     6    1
     9     6     7   ar
    10     6    11   ar
    11     7     8   ar
    12     8     9   ar
    13     9    10   ar
    14     9    12    1
    15    10    11   ar
    16    13    14   ar
    17    13    30   ar
    18    14    15   ar
    19    14    16   ar
    20    16    17   ar
    21    17    18    1
    22    17    29   ar
    23    18    19   am
    24    18    28    2
    25    19    20    1
    26    20    21    1
    27    21    22    1
    28    21    25    1
    29    22    23    1
    30    22    26    1
    31    23    24    1
    32    24    25    1
    33    26    27    1
    34    29    30   ar
