@<TRIPOS>MOLECULE
38056_ChemDiv_C798-0151
 28 31 0 0 0
SMALL
GASTEIGER
Energy = 0

@<TRIPOS>ATOM
      1 C          -3.7460    1.6790    0.0000 C.ar    1  LIG1        0.1552
      2 C          -2.7630    1.5750    0.0000 C.ar    1  LIG1        0.0170
      3 C          -2.5500    0.6040    0.0000 C.ar    1  LIG1        0.0393
      4 C          -1.6790    0.1080    0.0000 C.ar    1  LIG1        0.0715
      5 C          -0.8080    0.6170    0.0000 C.2     1  LIG1        0.1796
      6 C           0.0630    0.1080    0.0000 C.3     1  LIG1        0.1092
      7 C           0.0630   -0.8960    0.0000 C.3     1  LIG1        0.1436
      8 O          -0.8170   -1.3960    0.0000 O.3     1  LIG1       -0.4819
      9 C          -1.6880   -0.8960    0.0000 C.ar    1  LIG1        0.1411
     10 C          -2.5500   -1.3960    0.0000 C.ar    1  LIG1        0.0401
     11 C          -3.4130   -0.8960    0.0000 C.ar    1  LIG1        0.0406
     12 C          -3.4130    0.1080    0.0000 C.ar    1  LIG1        0.1453
     13 O          -4.1460    0.7710    0.0000 O.2     1  LIG1       -0.4527
     14 C           0.0540   -1.8960    0.0000 C.3     1  LIG1        0.0621
     15 C           0.9170   -2.3960    0.0000 C.3     1  LIG1        0.1003
     16 N           1.7790   -1.9040    0.0000 N.am    1  LIG1       -0.2458
     17 C           2.6420   -2.4040    0.0000 C.2     1  LIG1        0.4049
     18 O           2.6420   -3.4040    0.0000 O.2     1  LIG1       -0.2262
     19 O           3.5040   -1.8960    0.0000 O.3     1  LIG1       -0.4345
     20 C           4.3670   -2.3960    0.0000 C.3     1  LIG1        0.2102
     21 C           5.2420   -1.8960    0.0000 C.3     1  LIG1        0.0513
     22 C           1.7880   -0.9080    0.0000 C.3     1  LIG1        0.1003
     23 C           0.9250   -0.3960    0.0000 C.3     1  LIG1        0.0621
     24 O          -0.8170    1.6170    0.0000 O.2     1  LIG1       -0.2911
     25 C          -2.0500    2.2880    0.0000 C.3     1  LIG1        0.0344
     26 C          -4.2460    2.5420    0.0000 C.2     1  LIG1        0.1073
     27 O          -5.2460    2.5420    0.0000 O.co2   1  LIG1       -0.5416
     28 O          -3.7460    3.4080    0.0000 O.co2   1  LIG1       -0.5416
@<TRIPOS>BOND
     1     1     2   ar
     2     1    13   ar
     3     1    26    1
     4     2     3   ar
     5     2    25    1
     6     3     4   ar
     7     3    12   ar
     8     4     5    1
     9     4     9   ar
    10     5     6    1
    11     5    24    2
    12     6     7    1
    13     7     8    1
    14     7    14    1
    15     7    23    1
    16     8     9    1
    17     9    10   ar
    18    10    11   ar
    19    11    12   ar
    20    12    13   ar
    21    14    15    1
    22    15    16    1
    23    16    17   am
    24    16    22    1
    25    17    18    2
    26    17    19    1
    27    19    20    1
    28    20    21    1
    29    22    23    1
    30    26    27   ar
    31    26    28   ar
