@<TRIPOS>MOLECULE
38050_ChemDiv_C797-1212
 31 34 0 0 0
SMALL
GASTEIGER
Energy = 0

@<TRIPOS>ATOM
      1 S           1.2500    0.2960    0.0000 S.O2    1  LIG1        0.0792
      2 N           2.2540    0.2880    0.0000 N.am    1  LIG1       -0.1472
      3 C           2.5630    1.2500    0.0000 C.2     1  LIG1        0.2653
      4 C           1.7460    1.8380    0.0000 C.2     1  LIG1        0.0520
      5 C           0.9420    1.2500    0.0000 C.2     1  LIG1        0.1259
      6 C          -0.0130    1.5500    0.0000 C.ar    1  LIG1        0.0187
      7 C          -0.2170    2.5330    0.0000 C.ar    1  LIG1        0.0010
      8 C          -1.1710    2.8540    0.0000 C.ar    1  LIG1       -0.0042
      9 C          -1.9130    2.1750    0.0000 C.ar    1  LIG1       -0.0218
     10 C          -1.7000    1.1880    0.0000 C.ar    1  LIG1       -0.0042
     11 C          -0.7500    0.8880    0.0000 C.ar    1  LIG1        0.0010
     12 C          -2.8670    2.4790    0.0000 C.3     1  LIG1        0.0310
     13 C           1.7460    2.8380    0.0000 C.3     1  LIG1        0.0373
     14 O           3.5170    1.5500    0.0000 O.2     1  LIG1       -0.2686
     15 C           2.8380   -0.5210    0.0000 C.3     1  LIG1        0.2037
     16 C           2.4250   -1.4250    0.0000 C.2     1  LIG1        0.2479
     17 N           1.4380   -1.5330    0.0000 N.am    1  LIG1       -0.2746
     18 C           0.8540   -0.7250    0.0000 C.3     1  LIG1        0.1149
     19 C          -0.1330   -0.8210    0.0000 C.3     1  LIG1        0.1137
     20 N          -0.5420   -1.7380    0.0000 N.pl3   1  LIG1       -0.2897
     21 C          -1.5330   -1.8330    0.0000 C.ar    1  LIG1        0.1318
     22 N          -1.9420   -2.7420    0.0000 N.ar    1  LIG1       -0.2292
     23 C          -2.9290   -2.8500    0.0000 C.ar    1  LIG1        0.1003
     24 C          -3.5210   -2.0330    0.0000 C.ar    1  LIG1        0.0208
     25 C          -3.1080   -1.1250    0.0000 C.ar    1  LIG1        0.0045
     26 C          -2.1130   -1.0290    0.0000 C.ar    1  LIG1        0.0343
     27 C           0.0380   -2.5460    0.0000 C.3     1  LIG1        0.1137
     28 C           1.0380   -2.4500    0.0000 C.3     1  LIG1        0.1149
     29 O           3.0130   -2.2420    0.0000 O.2     1  LIG1       -0.2729
     30 O           0.2500    0.1380    0.0000 O.2     1  LIG1       -0.1496
     31 O           1.5920   -0.6420    0.0000 O.2     1  LIG1       -0.1496
@<TRIPOS>BOND
     1     1     2    1
     2     1     5    1
     3     1    30    2
     4     1    31    2
     5     2     3   am
     6     2    15    1
     7     3     4    1
     8     3    14    2
     9     4     5    2
    10     4    13    1
    11     5     6    1
    12     6     7   ar
    13     6    11   ar
    14     7     8   ar
    15     8     9   ar
    16     9    10   ar
    17     9    12    1
    18    10    11   ar
    19    15    16    1
    20    16    17   am
    21    16    29    2
    22    17    18    1
    23    17    28    1
    24    18    19    1
    25    19    20    1
    26    20    21    1
    27    20    27    1
    28    21    22   ar
    29    21    26   ar
    30    22    23   ar
    31    23    24   ar
    32    24    25   ar
    33    25    26   ar
    34    27    28    1
