@<TRIPOS>MOLECULE
38059_ChemDiv_C707-0599
 28 31 0 0 0
SMALL
GASTEIGER
Energy = 0

@<TRIPOS>ATOM
      1 N          -0.1330    0.2250    0.0000 N.ar    1  LIG1       -0.2440
      2 N           0.4460    1.0210    0.0000 N.ar    1  LIG1       -0.1689
      3 C          -0.1330    1.8380    0.0000 C.ar    1  LIG1        0.1023
      4 C          -1.0830    1.5290    0.0000 C.ar    1  LIG1        0.0375
      5 C          -1.0830    0.5330    0.0000 C.ar    1  LIG1        0.0798
      6 C          -1.9500    0.0330    0.0000 C.ar    1  LIG1        0.0197
      7 C          -2.8170    0.5330    0.0000 C.ar    1  LIG1        0.0129
      8 C          -2.8170    1.5290    0.0000 C.ar    1  LIG1        0.0578
      9 C          -1.9500    2.0330    0.0000 C.ar    1  LIG1        0.0144
     10 CL         -3.6920    2.0380    0.0000 Cl      1  LIG1       -0.0822
     11 C           0.2250    2.7710    0.0000 C.ar    1  LIG1        0.0194
     12 C           1.2130    2.9330    0.0000 C.ar    1  LIG1        0.0016
     13 C           1.5670    3.8670    0.0000 C.ar    1  LIG1        0.0000
     14 C           0.9330    4.6380    0.0000 C.ar    1  LIG1        0.0000
     15 C          -0.0540    4.4790    0.0000 C.ar    1  LIG1        0.0000
     16 C          -0.4130    3.5500    0.0000 C.ar    1  LIG1        0.0016
     17 C           0.1790   -0.7380    0.0000 C.3     1  LIG1        0.1825
     18 C           1.1630   -0.9380    0.0000 C.2     1  LIG1        0.2641
     19 N           1.4750   -1.8880    0.0000 N.am    1  LIG1       -0.1955
     20 C           2.4540   -2.0830    0.0000 C.3     1  LIG1        0.1792
     21 C           2.7710   -3.0250    0.0000 C.ar    1  LIG1        0.1449
     22 O           3.6880   -3.4330    0.0000 O.2     1  LIG1       -0.4529
     23 C           3.5790   -4.4290    0.0000 C.ar    1  LIG1        0.1792
     24 C           2.6040   -4.6380    0.0000 C.ar    1  LIG1        0.0435
     25 C           2.1040   -3.7750    0.0000 C.ar    1  LIG1        0.0380
     26 O           1.8290   -0.1920    0.0000 O.2     1  LIG1       -0.2712
     27 C          -0.4830   -1.4750    0.0000 C.3     1  LIG1        0.0338
     28 C          -1.4670   -1.2750    0.0000 C.3     1  LIG1        0.0026
@<TRIPOS>BOND
     1     1     2   ar
     2     1     5   ar
     3     1    17    1
     4     2     3   ar
     5     3     4   ar
     6     3    11    1
     7     4     5   ar
     8     4     9   ar
     9     5     6   ar
    10     6     7   ar
    11     7     8   ar
    12     8     9   ar
    13     8    10    1
    14    11    12   ar
    15    11    16   ar
    16    12    13   ar
    17    13    14   ar
    18    14    15   ar
    19    15    16   ar
    20    17    18    1
    21    17    27    1
    22    18    19   am
    23    18    26    2
    24    19    20    1
    25    20    21    1
    26    21    22   ar
    27    21    25   ar
    28    22    23   ar
    29    23    24   ar
    30    24    25   ar
    31    27    28    1
