@<TRIPOS>MOLECULE
38054_ChemDiv_C798-0146
 30 33 0 0 0
SMALL
GASTEIGER
Energy = 0

@<TRIPOS>ATOM
      1 C          -2.4540    2.2210    0.0000 C.ar    1  LIG1        0.2165
      2 C          -1.4630    2.1170    0.0000 C.ar    1  LIG1        0.0223
      3 C          -1.2500    1.1460    0.0000 C.ar    1  LIG1        0.0394
      4 C          -0.3880    0.6460    0.0000 C.ar    1  LIG1        0.0715
      5 C           0.4830    1.1630    0.0000 C.2     1  LIG1        0.1796
      6 C           1.3540    0.6460    0.0000 C.3     1  LIG1        0.1092
      7 C           1.3540   -0.3630    0.0000 C.3     1  LIG1        0.1436
      8 O           0.4750   -0.8630    0.0000 O.3     1  LIG1       -0.4819
      9 C          -0.3880   -0.3630    0.0000 C.ar    1  LIG1        0.1411
     10 C          -1.2500   -0.8540    0.0000 C.ar    1  LIG1        0.0401
     11 C          -2.1170   -0.3540    0.0000 C.ar    1  LIG1        0.0406
     12 C          -2.1170    0.6460    0.0000 C.ar    1  LIG1        0.1456
     13 O          -2.8580    1.3130    0.0000 O.2     1  LIG1       -0.4473
     14 C           1.3540   -1.3630    0.0000 C.3     1  LIG1        0.0621
     15 C           2.2130   -1.8630    0.0000 C.3     1  LIG1        0.1003
     16 N           3.0790   -1.3670    0.0000 N.am    1  LIG1       -0.2458
     17 C           3.9420   -1.8670    0.0000 C.2     1  LIG1        0.4049
     18 O           4.8080   -1.3630    0.0000 O.2     1  LIG1       -0.2262
     19 O           4.2000   -2.8330    0.0000 O.3     1  LIG1       -0.4345
     20 C           5.2000   -2.8330    0.0000 C.3     1  LIG1        0.2102
     21 C           5.4580   -3.7920    0.0000 C.3     1  LIG1        0.0513
     22 C           3.0790   -0.3710    0.0000 C.3     1  LIG1        0.1003
     23 C           2.2170    0.1380    0.0000 C.3     1  LIG1        0.0621
     24 O           0.4750    2.1580    0.0000 O.2     1  LIG1       -0.2911
     25 C          -0.7580    2.8250    0.0000 C.3     1  LIG1        0.0346
     26 C          -2.9630    3.0830    0.0000 C.2     1  LIG1        0.3760
     27 O          -2.2500    3.7960    0.0000 O.2     1  LIG1       -0.2414
     28 O          -3.9630    3.0830    0.0000 O.3     1  LIG1       -0.4433
     29 C          -4.4630    2.2210    0.0000 C.3     1  LIG1        0.2090
     30 C          -5.4630    2.2210    0.0000 C.3     1  LIG1        0.0513
@<TRIPOS>BOND
     1     1     2   ar
     2     1    13   ar
     3     1    26    1
     4     2     3   ar
     5     2    25    1
     6     3     4   ar
     7     3    12   ar
     8     4     5    1
     9     4     9   ar
    10     5     6    1
    11     5    24    2
    12     6     7    1
    13     7     8    1
    14     7    14    1
    15     7    23    1
    16     8     9    1
    17     9    10   ar
    18    10    11   ar
    19    11    12   ar
    20    12    13   ar
    21    14    15    1
    22    15    16    1
    23    16    17   am
    24    16    22    1
    25    17    18    2
    26    17    19    1
    27    19    20    1
    28    20    21    1
    29    22    23    1
    30    26    27    2
    31    26    28    1
    32    28    29    1
    33    29    30    1
