@<TRIPOS>MOLECULE
38052_ChemDiv_C798-0111
 25 27 0 0 0
SMALL
GASTEIGER
Energy = 0

@<TRIPOS>ATOM
      1 N          -1.2630    1.3170    0.0000 N.am    1  LIG1       -0.2736
      2 C          -0.4630    1.9000    0.0000 C.2     1  LIG1        0.2277
      3 C           0.3500    1.3170    0.0000 C.3     1  LIG1        0.1087
      4 C           0.0380    0.3630    0.0000 C.3     1  LIG1        0.1258
      5 N           0.6290   -0.4500    0.0000 N.am    1  LIG1       -0.1864
      6 C           1.6290   -0.4500    0.0000 C.2     1  LIG1        0.3435
      7 N           1.8880   -1.4080    0.0000 N.am    1  LIG1       -0.1613
      8 C           2.8500   -1.6670    0.0000 C.ar    1  LIG1        0.0707
      9 C           3.5500   -0.9670    0.0000 C.ar    1  LIG1       -0.0104
     10 C           4.5080   -1.2130    0.0000 C.ar    1  LIG1       -0.0245
     11 C           4.7750   -2.1830    0.0000 C.ar    1  LIG1       -0.0045
     12 C           4.0710   -2.8960    0.0000 C.ar    1  LIG1        0.0010
     13 C           3.1000   -2.6380    0.0000 C.ar    1  LIG1        0.0163
     14 C           5.2170   -0.5130    0.0000 C.3     1  LIG1        0.0307
     15 C           3.2790    0.0000    0.0000 C.3     1  LIG1        0.0321
     16 O           2.1250    0.4250    0.0000 O.2     1  LIG1       -0.2488
     17 C          -0.9630    0.3630    0.0000 C.3     1  LIG1        0.1158
     18 O          -0.4670    2.9000    0.0000 O.2     1  LIG1       -0.2748
     19 C          -2.2210    1.6210    0.0000 C.3     1  LIG1        0.1202
     20 C          -3.2210    1.6210    0.0000 C.ar    1  LIG1       -0.0023
     21 C          -3.7080    2.5000    0.0000 C.ar    1  LIG1       -0.0026
     22 C          -4.7080    2.5000    0.0000 C.ar    1  LIG1       -0.0003
     23 C          -5.2210    1.6380    0.0000 C.ar    1  LIG1       -0.0000
     24 C          -4.7210    0.7630    0.0000 C.ar    1  LIG1       -0.0003
     25 C          -3.7210    0.7630    0.0000 C.ar    1  LIG1       -0.0026
@<TRIPOS>BOND
     1     1     2   am
     2     1    17    1
     3     1    19    1
     4     2     3    1
     5     2    18    2
     6     3     4    1
     7     4     5    1
     8     4    17    1
     9     5     6   am
    10     6     7   am
    11     6    16    2
    12     7     8    1
    13     8     9   ar
    14     8    13   ar
    15     9    10   ar
    16     9    15    1
    17    10    11   ar
    18    10    14    1
    19    11    12   ar
    20    12    13   ar
    21    19    20    1
    22    20    21   ar
    23    20    25   ar
    24    21    22   ar
    25    22    23   ar
    26    23    24   ar
    27    24    25   ar
