@<TRIPOS>MOLECULE
38067_ChemDiv_E235-1491
 33 37 0 0 0
SMALL
GASTEIGER
Energy = 0

@<TRIPOS>ATOM
      1 C           3.3000   -1.7630    0.0000 C.ar    1  LIG1        0.4007
      2 N           3.2000   -0.7630    0.0000 N.ar    1  LIG1       -0.2357
      3 C           4.1290   -0.3630    0.0000 C.ar    1  LIG1        0.1623
      4 C           4.7830   -1.1130    0.0000 C.ar    1  LIG1        0.3167
      5 N           4.2790   -1.9750    0.0000 N.ar    1  LIG1        0.1046
      6 C           5.7790   -1.0630    0.0000 C.ar    1  LIG1        0.0719
      7 C           6.2330   -0.1790    0.0000 C.ar    1  LIG1        0.0062
      8 C           7.2460   -0.1290    0.0000 C.ar    1  LIG1        0.0002
      9 C           7.7790   -0.9790    0.0000 C.ar    1  LIG1        0.0000
     10 C           7.3210   -1.8630    0.0000 C.ar    1  LIG1        0.0002
     11 C           6.3170   -1.9130    0.0000 C.ar    1  LIG1        0.0062
     12 C           2.2170   -0.5580    0.0000 C.ar    1  LIG1        0.0764
     13 C           1.7170   -1.4130    0.0000 C.ar    1  LIG1        0.0531
     14 S           2.3830   -2.1630    0.0000 S.2     1  LIG1        0.0088
     15 C           0.7170   -1.4130    0.0000 C.ar    1  LIG1        0.0127
     16 C           0.2170   -0.5580    0.0000 C.ar    1  LIG1        0.0556
     17 C          -0.7880   -0.5580    0.0000 C.2     1  LIG1        0.2648
     18 O          -1.2880   -1.4130    0.0000 O.2     1  LIG1       -0.2684
     19 N          -1.2880    0.3040    0.0000 N.am    1  LIG1       -0.2013
     20 C          -2.2880    0.3040    0.0000 C.3     1  LIG1        0.1201
     21 C          -2.7880    1.1670    0.0000 C.3     1  LIG1        0.0498
     22 C          -3.7830    1.1670    0.0000 C.ar    1  LIG1       -0.0203
     23 C          -4.2830    2.0330    0.0000 C.ar    1  LIG1       -0.0028
     24 C          -5.2830    2.0330    0.0000 C.ar    1  LIG1        0.0197
     25 C          -5.7830    1.1670    0.0000 C.ar    1  LIG1        0.1250
     26 S          -6.7790    1.1670    0.0000 S.O2    1  LIG1        0.0935
     27 O          -6.7790    2.1670    0.0000 O.2     1  LIG1       -0.1503
     28 O          -6.7790    0.1710    0.0000 O.2     1  LIG1       -0.1503
     29 N          -7.7790    1.1670    0.0000 N.3     1  LIG1        0.0392
     30 C          -5.2830    0.3040    0.0000 C.ar    1  LIG1        0.0197
     31 C          -4.2830    0.3040    0.0000 C.ar    1  LIG1       -0.0028
     32 C           0.7170    0.3130    0.0000 C.ar    1  LIG1        0.0061
     33 C           1.7170    0.3130    0.0000 C.ar    1  LIG1        0.0184
@<TRIPOS>BOND
     1     1     2   ar
     2     1     5   ar
     3     1    14   ar
     4     2     3   ar
     5     2    12   ar
     6     3     4   ar
     7     4     5   ar
     8     4     6    1
     9     6     7   ar
    10     6    11   ar
    11     7     8   ar
    12     8     9   ar
    13     9    10   ar
    14    10    11   ar
    15    12    13   ar
    16    12    33   ar
    17    13    14   ar
    18    13    15   ar
    19    15    16   ar
    20    16    17    1
    21    16    32   ar
    22    17    18    2
    23    17    19   am
    24    19    20    1
    25    20    21    1
    26    21    22    1
    27    22    23   ar
    28    22    31   ar
    29    23    24   ar
    30    24    25   ar
    31    25    26    1
    32    25    30   ar
    33    26    27    2
    34    26    28    2
    35    26    29    1
    36    30    31   ar
    37    32    33   ar
