@<TRIPOS>MOLECULE
38065_ChemDiv_E235-1472
 32 37 0 0 0
SMALL
GASTEIGER
Energy = 0

@<TRIPOS>ATOM
      1 C           2.3750   -2.5460    0.0000 C.ar    1  LIG1        0.4007
      2 N           2.2750   -1.5420    0.0000 N.ar    1  LIG1       -0.2357
      3 C           3.2040   -1.1420    0.0000 C.ar    1  LIG1        0.1623
      4 C           3.8580   -1.8960    0.0000 C.ar    1  LIG1        0.3167
      5 N           3.3540   -2.7540    0.0000 N.ar    1  LIG1        0.1046
      6 C           4.8540   -1.8460    0.0000 C.ar    1  LIG1        0.0719
      7 C           5.3960   -2.6960    0.0000 C.ar    1  LIG1        0.0062
      8 C           6.3960   -2.6460    0.0000 C.ar    1  LIG1        0.0002
      9 C           6.8540   -1.7630    0.0000 C.ar    1  LIG1        0.0000
     10 C           6.3210   -0.9080    0.0000 C.ar    1  LIG1        0.0002
     11 C           5.3080   -0.9580    0.0000 C.ar    1  LIG1        0.0062
     12 C           1.2920   -1.3380    0.0000 C.ar    1  LIG1        0.0764
     13 C           0.7920   -2.1960    0.0000 C.ar    1  LIG1        0.0531
     14 S           1.4580   -2.9460    0.0000 S.2     1  LIG1        0.0088
     15 C          -0.2130   -2.1960    0.0000 C.ar    1  LIG1        0.0127
     16 C          -0.7130   -1.3380    0.0000 C.ar    1  LIG1        0.0556
     17 C          -1.7130   -1.3380    0.0000 C.2     1  LIG1        0.2648
     18 O          -2.2130   -2.1960    0.0000 O.2     1  LIG1       -0.2684
     19 N          -2.2130   -0.4750    0.0000 N.am    1  LIG1       -0.2013
     20 C          -3.2130   -0.4750    0.0000 C.3     1  LIG1        0.1202
     21 C          -3.7130    0.3880    0.0000 C.3     1  LIG1        0.0514
     22 C          -4.7080    0.3880    0.0000 C.ar    1  LIG1        0.0002
     23 C          -5.3880   -0.3580    0.0000 C.ar    1  LIG1        0.0946
     24 N          -6.2880    0.0580    0.0000 N.ar    1  LIG1       -0.2442
     25 C          -6.1880    1.0380    0.0000 C.ar    1  LIG1        0.0810
     26 C          -5.2080    1.2380    0.0000 C.ar    1  LIG1        0.0152
     27 C          -4.9040    2.2040    0.0000 C.ar    1  LIG1        0.0012
     28 C          -5.5710    2.9500    0.0000 C.ar    1  LIG1        0.0001
     29 C          -6.5500    2.7210    0.0000 C.ar    1  LIG1        0.0015
     30 C          -6.8540    1.7790    0.0000 C.ar    1  LIG1        0.0191
     31 C          -0.2130   -0.4710    0.0000 C.ar    1  LIG1        0.0061
     32 C           0.7920   -0.4710    0.0000 C.ar    1  LIG1        0.0184
@<TRIPOS>BOND
     1     1     2   ar
     2     1     5   ar
     3     1    14   ar
     4     2     3   ar
     5     2    12   ar
     6     3     4   ar
     7     4     5   ar
     8     4     6    1
     9     6     7   ar
    10     6    11   ar
    11     7     8   ar
    12     8     9   ar
    13     9    10   ar
    14    10    11   ar
    15    12    13   ar
    16    12    32   ar
    17    13    14   ar
    18    13    15   ar
    19    15    16   ar
    20    16    17    1
    21    16    31   ar
    22    17    18    2
    23    17    19   am
    24    19    20    1
    25    20    21    1
    26    21    22    1
    27    22    23   ar
    28    22    26   ar
    29    23    24   ar
    30    24    25   ar
    31    25    26   ar
    32    25    30   ar
    33    26    27   ar
    34    27    28   ar
    35    28    29   ar
    36    29    30   ar
    37    31    32   ar
