@<TRIPOS>MOLECULE
38068_ChemDiv_C794-1406
 32 35 0 0 0
SMALL
GASTEIGER
Energy = 0

@<TRIPOS>ATOM
      1 C          -0.8290   -0.1790    0.0000 C.3     1  LIG1        0.1944
      2 C          -0.8290   -1.1750    0.0000 C.3     1  LIG1        0.1616
      3 O          -1.6880   -1.6750    0.0000 O.3     1  LIG1       -0.4802
      4 C          -2.5540   -1.1750    0.0000 C.ar    1  LIG1        0.1410
      5 C          -2.5460   -0.1790    0.0000 C.ar    1  LIG1        0.0705
      6 C          -1.6880    0.3210    0.0000 C.2     1  LIG1        0.1991
      7 O          -1.6920    1.3170    0.0000 O.2     1  LIG1       -0.2893
      8 C          -3.4130    0.3170    0.0000 C.ar    1  LIG1        0.0059
      9 C          -4.2710   -0.1790    0.0000 C.ar    1  LIG1        0.0003
     10 C          -4.2710   -1.1750    0.0000 C.ar    1  LIG1        0.0031
     11 C          -3.4130   -1.6750    0.0000 C.ar    1  LIG1        0.0370
     12 C           0.1670   -0.7830    0.0000 C.3     1  LIG1        0.0637
     13 C           1.0250   -1.2920    0.0000 C.3     1  LIG1        0.0971
     14 N           1.0210   -2.2880    0.0000 N.am    1  LIG1       -0.2793
     15 C           1.8790   -2.7830    0.0000 C.2     1  LIG1        0.2261
     16 O           2.7290   -2.2880    0.0000 O.2     1  LIG1       -0.2749
     17 C           1.8790   -3.7710    0.0000 C.3     1  LIG1        0.0948
     18 C           0.1500   -2.7750    0.0000 C.3     1  LIG1        0.0971
     19 C          -0.7080   -2.2750    0.0000 C.3     1  LIG1        0.0637
     20 N          -0.1210    0.5290    0.0000 N.am    1  LIG1       -0.1787
     21 C          -0.1250    1.5210    0.0000 C.2     1  LIG1        0.3239
     22 N           0.7250    2.0330    0.0000 N.am    1  LIG1       -0.2587
     23 C           1.6880    1.7790    0.0000 C.3     1  LIG1        0.1217
     24 C           2.5460    2.2750    0.0000 C.ar    1  LIG1       -0.0023
     25 C           3.4080    1.7830    0.0000 C.ar    1  LIG1       -0.0026
     26 C           4.2670    2.2920    0.0000 C.ar    1  LIG1       -0.0003
     27 C           4.2630    3.2880    0.0000 C.ar    1  LIG1       -0.0000
     28 C           3.3920    3.7750    0.0000 C.ar    1  LIG1       -0.0003
     29 C           2.5330    3.2710    0.0000 C.ar    1  LIG1       -0.0026
     30 C           1.2210    2.8960    0.0000 C.3     1  LIG1        0.0954
     31 C           0.7210    3.7580    0.0000 C.3     1  LIG1        0.0233
     32 O          -0.9960    2.0210    0.0000 O.2     1  LIG1       -0.2507
@<TRIPOS>BOND
     1     1     2    1
     2     1     6    1
     3     1    20    1
     4     2     3    1
     5     2    12    1
     6     2    19    1
     7     3     4    1
     8     4     5   ar
     9     4    11   ar
    10     5     6    1
    11     5     8   ar
    12     6     7    2
    13     8     9   ar
    14     9    10   ar
    15    10    11   ar
    16    12    13    1
    17    13    14    1
    18    14    15   am
    19    14    18    1
    20    15    16    2
    21    15    17    1
    22    18    19    1
    23    20    21   am
    24    21    22   am
    25    21    32    2
    26    22    23    1
    27    22    30    1
    28    23    24    1
    29    24    25   ar
    30    24    29   ar
    31    25    26   ar
    32    26    27   ar
    33    27    28   ar
    34    28    29   ar
    35    30    31    1
