@<TRIPOS>MOLECULE
38066_ChemDiv_C794-1405
 29 31 0 0 0
SMALL
GASTEIGER
Energy = 0

@<TRIPOS>ATOM
      1 C          -0.2750   -0.0960    0.0000 C.3     1  LIG1        0.1944
      2 C          -0.2750   -1.0960    0.0000 C.3     1  LIG1        0.1616
      3 O          -1.1380   -1.5920    0.0000 O.3     1  LIG1       -0.4802
      4 C          -2.0040   -1.0880    0.0000 C.ar    1  LIG1        0.1410
      5 C          -1.9960   -0.0960    0.0000 C.ar    1  LIG1        0.0705
      6 C          -1.1380    0.4130    0.0000 C.2     1  LIG1        0.1991
      7 O          -1.1460    1.4040    0.0000 O.2     1  LIG1       -0.2893
      8 C          -2.8630    0.4000    0.0000 C.ar    1  LIG1        0.0059
      9 C          -3.7210   -0.0960    0.0000 C.ar    1  LIG1        0.0003
     10 C          -3.7210   -1.0960    0.0000 C.ar    1  LIG1        0.0031
     11 C          -2.8630   -1.5920    0.0000 C.ar    1  LIG1        0.0370
     12 C          -0.1540   -2.1920    0.0000 C.3     1  LIG1        0.0637
     13 C           0.7040   -2.6920    0.0000 C.3     1  LIG1        0.0971
     14 N           1.5630   -2.1920    0.0000 N.am    1  LIG1       -0.2793
     15 C           2.4210   -2.6920    0.0000 C.2     1  LIG1        0.2261
     16 O           3.2790   -2.1920    0.0000 O.2     1  LIG1       -0.2749
     17 C           2.4210   -3.6790    0.0000 C.3     1  LIG1        0.0948
     18 C           1.5750   -1.2000    0.0000 C.3     1  LIG1        0.0971
     19 C           0.7170   -0.7040    0.0000 C.3     1  LIG1        0.0637
     20 N           0.4290    0.6130    0.0000 N.am    1  LIG1       -0.1787
     21 C           0.4210    1.6040    0.0000 C.2     1  LIG1        0.3237
     22 N           1.2790    2.1130    0.0000 N.am    1  LIG1       -0.2629
     23 C           2.2380    1.8580    0.0000 C.3     1  LIG1        0.0950
     24 C           2.7210    1.0000    0.0000 C.3     1  LIG1        0.0216
     25 C           3.7170    1.0000    0.0000 C.3     1  LIG1        0.0018
     26 C           1.7710    2.9750    0.0000 C.3     1  LIG1        0.0950
     27 C           2.7630    2.9750    0.0000 C.3     1  LIG1        0.0216
     28 C           3.4580    3.6830    0.0000 C.3     1  LIG1        0.0018
     29 O          -0.4420    2.1000    0.0000 O.2     1  LIG1       -0.2508
@<TRIPOS>BOND
     1     1     2    1
     2     1     6    1
     3     1    20    1
     4     2     3    1
     5     2    12    1
     6     2    19    1
     7     3     4    1
     8     4     5   ar
     9     4    11   ar
    10     5     6    1
    11     5     8   ar
    12     6     7    2
    13     8     9   ar
    14     9    10   ar
    15    10    11   ar
    16    12    13    1
    17    13    14    1
    18    14    15   am
    19    14    18    1
    20    15    16    2
    21    15    17    1
    22    18    19    1
    23    20    21   am
    24    21    22   am
    25    21    29    2
    26    22    23    1
    27    22    26    1
    28    23    24    1
    29    24    25    1
    30    26    27    1
    31    27    28    1
