@<TRIPOS>MOLECULE
38061_ChemDiv_C707-0914
 30 33 0 0 0
SMALL
GASTEIGER
Energy = 0

@<TRIPOS>ATOM
      1 N          -1.2040    1.5000    0.0000 N.ar    1  LIG1       -0.1693
      2 C          -1.7830    2.3170    0.0000 C.ar    1  LIG1        0.1023
      3 C          -2.7330    2.0130    0.0000 C.ar    1  LIG1        0.0375
      4 C          -2.7330    1.0130    0.0000 C.ar    1  LIG1        0.0794
      5 N          -1.7830    0.7040    0.0000 N.ar    1  LIG1       -0.2509
      6 C          -1.4710   -0.2580    0.0000 C.3     1  LIG1        0.1279
      7 C          -0.4880   -0.4630    0.0000 C.3     1  LIG1        0.0360
      8 C          -0.1830   -1.4170    0.0000 C.3     1  LIG1        0.0889
      9 C           0.8040   -1.6330    0.0000 C.2     1  LIG1        0.2414
     10 O           1.4710   -0.8880    0.0000 O.2     1  LIG1       -0.2733
     11 N           1.1130   -2.5880    0.0000 N.am    1  LIG1       -0.2051
     12 C           2.0960   -2.7960    0.0000 C.3     1  LIG1        0.1195
     13 C           2.4040   -3.7500    0.0000 C.3     1  LIG1        0.0451
     14 C           3.3880   -3.9630    0.0000 C.2     1  LIG1       -0.0467
     15 C           3.6920   -4.9000    0.0000 C.2     1  LIG1       -0.0346
     16 C           4.6710   -5.1130    0.0000 C.3     1  LIG1        0.0254
     17 C           5.3420   -4.3710    0.0000 C.3     1  LIG1        0.0050
     18 C           5.0290   -3.4290    0.0000 C.3     1  LIG1        0.0047
     19 C           4.0540   -3.2210    0.0000 C.3     1  LIG1        0.0218
     20 C          -3.6000    0.5130    0.0000 C.ar    1  LIG1        0.0196
     21 C          -4.4710    1.0130    0.0000 C.ar    1  LIG1        0.0129
     22 C          -4.4710    2.0130    0.0000 C.ar    1  LIG1        0.0578
     23 C          -3.6000    2.5130    0.0000 C.ar    1  LIG1        0.0144
     24 CL         -5.3460    2.5170    0.0000 Cl      1  LIG1       -0.0822
     25 C          -1.4250    3.2500    0.0000 C.ar    1  LIG1        0.0194
     26 C          -0.4460    3.4130    0.0000 C.ar    1  LIG1        0.0016
     27 C          -0.0960    4.3420    0.0000 C.ar    1  LIG1        0.0000
     28 C          -0.7250    5.1130    0.0000 C.ar    1  LIG1        0.0000
     29 C          -1.7130    4.9540    0.0000 C.ar    1  LIG1        0.0000
     30 C          -2.0630    4.0250    0.0000 C.ar    1  LIG1        0.0016
@<TRIPOS>BOND
     1     1     2   ar
     2     1     5   ar
     3     2     3   ar
     4     2    25    1
     5     3     4   ar
     6     3    23   ar
     7     4     5   ar
     8     4    20   ar
     9     5     6    1
    10     6     7    1
    11     7     8    1
    12     8     9    1
    13     9    10    2
    14     9    11   am
    15    11    12    1
    16    12    13    1
    17    13    14    1
    18    14    15    2
    19    14    19    1
    20    15    16    1
    21    16    17    1
    22    17    18    1
    23    18    19    1
    24    20    21   ar
    25    21    22   ar
    26    22    23   ar
    27    22    24    1
    28    25    26   ar
    29    25    30   ar
    30    26    27   ar
    31    27    28   ar
    32    28    29   ar
    33    29    30   ar
