@<TRIPOS>MOLECULE
38062_ChemDiv_C798-0159
 26 29 0 0 0
SMALL
GASTEIGER
Energy = 0

@<TRIPOS>ATOM
      1 C          -3.0500    0.8460    0.0000 C.ar    1  LIG1        0.1552
      2 C          -2.0670    0.7500    0.0000 C.ar    1  LIG1        0.0170
      3 C          -1.8540   -0.2330    0.0000 C.ar    1  LIG1        0.0393
      4 C          -0.9920   -0.7330    0.0000 C.ar    1  LIG1        0.0715
      5 C          -0.1290   -0.2330    0.0000 C.2     1  LIG1        0.1799
      6 C           0.7460   -0.7330    0.0000 C.3     1  LIG1        0.1134
      7 C           0.7460   -1.7290    0.0000 C.3     1  LIG1        0.1591
      8 O          -0.1290   -2.2290    0.0000 O.3     1  LIG1       -0.4780
      9 C          -0.9920   -1.7290    0.0000 C.ar    1  LIG1        0.1415
     10 C          -1.8540   -2.2290    0.0000 C.ar    1  LIG1        0.0401
     11 C          -2.7170   -1.7290    0.0000 C.ar    1  LIG1        0.0406
     12 C          -2.7170   -0.7330    0.0000 C.ar    1  LIG1        0.1453
     13 O          -3.4630   -0.0500    0.0000 O.2     1  LIG1       -0.4527
     14 C           1.6880   -1.4250    0.0000 C.ar    1  LIG1        0.0140
     15 C           2.4290   -2.0960    0.0000 C.ar    1  LIG1       -0.0001
     16 C           3.3830   -1.7880    0.0000 C.ar    1  LIG1        0.0112
     17 C           3.5960   -0.8080    0.0000 C.ar    1  LIG1        0.0577
     18 C           2.8540   -0.1420    0.0000 C.ar    1  LIG1        0.0112
     19 C           1.9000   -0.4460    0.0000 C.ar    1  LIG1       -0.0001
     20 CL          4.5500   -0.5040    0.0000 Cl      1  LIG1       -0.0822
     21 C           1.2460   -2.5960    0.0000 C.3     1  LIG1        0.0487
     22 O          -0.1290    0.7670    0.0000 O.2     1  LIG1       -0.2911
     23 C          -1.4000    1.4920    0.0000 C.3     1  LIG1        0.0344
     24 C          -3.5500    1.7330    0.0000 C.2     1  LIG1        0.1073
     25 O          -4.5540    1.7420    0.0000 O.co2   1  LIG1       -0.5416
     26 O          -3.0420    2.6000    0.0000 O.co2   1  LIG1       -0.5416
@<TRIPOS>BOND
     1     1     2   ar
     2     1    13   ar
     3     1    24    1
     4     2     3   ar
     5     2    23    1
     6     3     4   ar
     7     3    12   ar
     8     4     5    1
     9     4     9   ar
    10     5     6    1
    11     5    22    2
    12     6     7    1
    13     7     8    1
    14     7    14    1
    15     7    21    1
    16     8     9    1
    17     9    10   ar
    18    10    11   ar
    19    11    12   ar
    20    12    13   ar
    21    14    15   ar
    22    14    19   ar
    23    15    16   ar
    24    16    17   ar
    25    17    18   ar
    26    17    20    1
    27    18    19   ar
    28    24    25   ar
    29    24    26   ar
