@<TRIPOS>MOLECULE
38063_ChemDiv_C707-1030
 33 37 0 0 0
SMALL
GASTEIGER
Energy = 0

@<TRIPOS>ATOM
      1 N          -0.1960    2.6250    0.0000 N.ar    1  LIG1       -0.1693
      2 C          -0.7790    3.4380    0.0000 C.ar    1  LIG1        0.1023
      3 C          -1.7290    3.1380    0.0000 C.ar    1  LIG1        0.0375
      4 C          -1.7290    2.1380    0.0000 C.ar    1  LIG1        0.0794
      5 N          -0.7790    1.8290    0.0000 N.ar    1  LIG1       -0.2509
      6 C          -0.4630    0.8630    0.0000 C.3     1  LIG1        0.1279
      7 C           0.5170    0.6580    0.0000 C.3     1  LIG1        0.0359
      8 C           0.8250   -0.2920    0.0000 C.3     1  LIG1        0.0873
      9 C           1.8080   -0.5080    0.0000 C.2     1  LIG1        0.2258
     10 N           2.1210   -1.4630    0.0000 N.am    1  LIG1       -0.2760
     11 C           1.4540   -2.2000    0.0000 C.3     1  LIG1        0.1149
     12 C           1.7630   -3.1460    0.0000 C.3     1  LIG1        0.1137
     13 N           2.7460   -3.3710    0.0000 N.pl3   1  LIG1       -0.2897
     14 C           3.0460   -4.3290    0.0000 C.ar    1  LIG1        0.1318
     15 N           4.0170   -4.5380    0.0000 N.ar    1  LIG1       -0.2292
     16 C           4.3250   -5.4960    0.0000 C.ar    1  LIG1        0.1003
     17 C           3.6460   -6.2330    0.0000 C.ar    1  LIG1        0.0208
     18 C           2.6750   -6.0130    0.0000 C.ar    1  LIG1        0.0045
     19 C           2.3710   -5.0670    0.0000 C.ar    1  LIG1        0.0343
     20 C           3.4170   -2.6250    0.0000 C.3     1  LIG1        0.1137
     21 C           3.1040   -1.6750    0.0000 C.3     1  LIG1        0.1149
     22 O           2.4750    0.2330    0.0000 O.2     1  LIG1       -0.2749
     23 C          -2.5880    1.6330    0.0000 C.ar    1  LIG1        0.0196
     24 C          -3.4580    2.1380    0.0000 C.ar    1  LIG1        0.0129
     25 C          -3.4580    3.1380    0.0000 C.ar    1  LIG1        0.0578
     26 C          -2.5880    3.6330    0.0000 C.ar    1  LIG1        0.0144
     27 CL         -4.3290    3.6380    0.0000 Cl      1  LIG1       -0.0822
     28 C          -0.4170    4.3710    0.0000 C.ar    1  LIG1        0.0194
     29 C           0.5630    4.5290    0.0000 C.ar    1  LIG1        0.0016
     30 C           0.9130    5.4630    0.0000 C.ar    1  LIG1        0.0000
     31 C           0.2880    6.2330    0.0000 C.ar    1  LIG1        0.0000
     32 C          -0.7080    6.0750    0.0000 C.ar    1  LIG1        0.0000
     33 C          -1.0540    5.1420    0.0000 C.ar    1  LIG1        0.0016
@<TRIPOS>BOND
     1     1     2   ar
     2     1     5   ar
     3     2     3   ar
     4     2    28    1
     5     3     4   ar
     6     3    26   ar
     7     4     5   ar
     8     4    23   ar
     9     5     6    1
    10     6     7    1
    11     7     8    1
    12     8     9    1
    13     9    10   am
    14     9    22    2
    15    10    11    1
    16    10    21    1
    17    11    12    1
    18    12    13    1
    19    13    14    1
    20    13    20    1
    21    14    15   ar
    22    14    19   ar
    23    15    16   ar
    24    16    17   ar
    25    17    18   ar
    26    18    19   ar
    27    20    21    1
    28    23    24   ar
    29    24    25   ar
    30    25    26   ar
    31    25    27    1
    32    28    29   ar
    33    28    33   ar
    34    29    30   ar
    35    30    31   ar
    36    31    32   ar
    37    32    33   ar
