@<TRIPOS>MOLECULE
38064_ChemDiv_C798-0217
 20 22 0 0 0
SMALL
GASTEIGER
Energy = 0

@<TRIPOS>ATOM
      1 C          -1.5920    0.9250    0.0000 C.ar    1  LIG1        0.1552
      2 C          -0.6000    0.8250    0.0000 C.ar    1  LIG1        0.0166
      3 C          -0.3880   -0.1500    0.0000 C.ar    1  LIG1        0.0349
      4 C           0.4790   -0.6420    0.0000 C.ar    1  LIG1        0.0445
      5 C           0.4750   -1.6540    0.0000 C.ar    1  LIG1        0.1367
      6 O           1.3420   -2.1540    0.0000 O.3     1  LIG1       -0.4827
      7 C           2.2210   -1.6540    0.0000 C.3     1  LIG1        0.1361
      8 C           2.2210   -0.6420    0.0000 C.3     1  LIG1        0.0775
      9 C           1.3460   -0.1330    0.0000 C.3     1  LIG1        0.1807
     10 O           1.3460    0.8670    0.0000 O.3     1  LIG1       -0.2181
     11 C           2.2170   -2.6460    0.0000 C.3     1  LIG1        0.0437
     12 C           3.0830   -2.1580    0.0000 C.3     1  LIG1        0.0437
     13 C          -0.3880   -2.1460    0.0000 C.ar    1  LIG1        0.0398
     14 C          -1.2500   -1.6460    0.0000 C.ar    1  LIG1        0.0406
     15 C          -1.2500   -0.6420    0.0000 C.ar    1  LIG1        0.1450
     16 O          -1.9920    0.0170    0.0000 O.2     1  LIG1       -0.4527
     17 C           0.0710    1.5670    0.0000 C.3     1  LIG1        0.0344
     18 C          -2.0920    1.7880    0.0000 C.2     1  LIG1        0.1073
     19 O          -3.0880    1.7830    0.0000 O.co2   1  LIG1       -0.5416
     20 O          -1.5920    2.6500    0.0000 O.co2   1  LIG1       -0.5416
@<TRIPOS>BOND
     1     1     2   ar
     2     1    16   ar
     3     1    18    1
     4     2     3   ar
     5     2    17    1
     6     3     4   ar
     7     3    15   ar
     8     4     5   ar
     9     4     9    1
    10     5     6    1
    11     5    13   ar
    12     6     7    1
    13     7     8    1
    14     7    11    1
    15     7    12    1
    16     8     9    1
    17     9    10    1
    18    13    14   ar
    19    14    15   ar
    20    15    16   ar
    21    18    19   ar
    22    18    20   ar
