@<TRIPOS>MOLECULE
38076_ChemDiv_C796-0011
 18 20 0 0 0
SMALL
GASTEIGER
Energy = 0

@<TRIPOS>ATOM
      1 C          -1.1130    0.3670    0.0000 C.ar    1  LIG1        0.1904
      2 N          -1.7000    1.1790    0.0000 N.ar    1  LIG1       -0.2196
      3 C          -2.6540    0.8670    0.0000 C.ar    1  LIG1        0.1042
      4 C          -2.6540   -0.1380    0.0000 C.ar    1  LIG1        0.1202
      5 N          -1.7000   -0.4500    0.0000 N.ar    1  LIG1       -0.2181
      6 C          -3.5210   -0.6380    0.0000 C.ar    1  LIG1        0.1195
      7 N          -4.3830   -0.1380    0.0000 N.ar    1  LIG1       -0.2406
      8 C          -4.3830    0.8670    0.0000 C.ar    1  LIG1        0.1005
      9 C          -3.5210    1.3670    0.0000 C.ar    1  LIG1        0.0414
     10 S          -0.1130    0.3670    0.0000 S.3     1  LIG1       -0.0709
     11 C           0.3880   -0.5000    0.0000 C.3     1  LIG1        0.0913
     12 C           1.3830   -0.5000    0.0000 C.ar    1  LIG1       -0.0108
     13 C           1.8790    0.3630    0.0000 C.ar    1  LIG1       -0.0025
     14 C           2.8790    0.3670    0.0000 C.ar    1  LIG1        0.0111
     15 C           3.3830   -0.5000    0.0000 C.ar    1  LIG1        0.0577
     16 CL          4.3790   -0.5000    0.0000 Cl      1  LIG1       -0.0822
     17 C           2.8830   -1.3630    0.0000 C.ar    1  LIG1        0.0111
     18 C           1.8830   -1.3630    0.0000 C.ar    1  LIG1       -0.0025
@<TRIPOS>BOND
     1     1     2   ar
     2     1     5   ar
     3     1    10    1
     4     2     3   ar
     5     3     4   ar
     6     3     9   ar
     7     4     5   ar
     8     4     6   ar
     9     6     7   ar
    10     7     8   ar
    11     8     9   ar
    12    10    11    1
    13    11    12    1
    14    12    13   ar
    15    12    18   ar
    16    13    14   ar
    17    14    15   ar
    18    15    16    1
    19    15    17   ar
    20    17    18   ar
