@<TRIPOS>MOLECULE
38078_ChemDiv_C797-0080
 21 23 0 0 0
SMALL
GASTEIGER
Energy = 0

@<TRIPOS>ATOM
      1 C          -1.3630    0.8000    0.0000 C.ar    1  LIG1        0.1904
      2 N          -1.9540    1.6080    0.0000 N.ar    1  LIG1       -0.2196
      3 C          -2.9000    1.3000    0.0000 C.ar    1  LIG1        0.1042
      4 C          -2.9000    0.3040    0.0000 C.ar    1  LIG1        0.1202
      5 N          -1.9540   -0.0130    0.0000 N.ar    1  LIG1       -0.2181
      6 C          -3.7710   -0.2080    0.0000 C.ar    1  LIG1        0.1195
      7 N          -4.6330    0.2920    0.0000 N.ar    1  LIG1       -0.2406
      8 C          -4.6330    1.2920    0.0000 C.ar    1  LIG1        0.1005
      9 C          -3.7710    1.8000    0.0000 C.ar    1  LIG1        0.0414
     10 S          -0.3670    0.8000    0.0000 S.3     1  LIG1       -0.0709
     11 C           0.1330   -0.0630    0.0000 C.3     1  LIG1        0.0913
     12 C           1.1330   -0.0630    0.0000 C.ar    1  LIG1       -0.0109
     13 C           1.6290    0.8000    0.0000 C.ar    1  LIG1       -0.0032
     14 C           2.6250    0.8000    0.0000 C.ar    1  LIG1        0.0061
     15 C           3.1290   -0.0630    0.0000 C.ar    1  LIG1        0.0756
     16 C           4.1290   -0.0630    0.0000 C.2     1  LIG1        0.3413
     17 O           4.6290    0.8000    0.0000 O.2     1  LIG1       -0.2449
     18 O           4.6290   -0.9250    0.0000 O.3     1  LIG1       -0.4413
     19 C           4.1290   -1.7960    0.0000 C.3     1  LIG1        0.2560
     20 C           2.6330   -0.9330    0.0000 C.ar    1  LIG1        0.0061
     21 C           1.6330   -0.9330    0.0000 C.ar    1  LIG1       -0.0032
@<TRIPOS>BOND
     1     1     2   ar
     2     1     5   ar
     3     1    10    1
     4     2     3   ar
     5     3     4   ar
     6     3     9   ar
     7     4     5   ar
     8     4     6   ar
     9     6     7   ar
    10     7     8   ar
    11     8     9   ar
    12    10    11    1
    13    11    12    1
    14    12    13   ar
    15    12    21   ar
    16    13    14   ar
    17    14    15   ar
    18    15    16    1
    19    15    20   ar
    20    16    17    2
    21    16    18    1
    22    18    19    1
    23    20    21   ar
