@<TRIPOS>MOLECULE
38079_ChemDiv_C768-0228
 29 33 0 0 0
SMALL
GASTEIGER
Energy = 0

@<TRIPOS>ATOM
      1 C           0.3290   -1.1170    0.0000 C.ar    1  LIG1        0.1289
      2 C          -0.5290   -0.6210    0.0000 C.ar    1  LIG1        0.0632
      3 C          -1.3920   -1.1170    0.0000 C.ar    1  LIG1        0.0870
      4 C          -1.3920   -2.1130    0.0000 C.ar    1  LIG1        0.3013
      5 N          -0.5290   -2.6250    0.0000 N.ar    1  LIG1        0.0828
      6 C           0.3290   -2.1130    0.0000 C.ar    1  LIG1        0.3699
      7 C          -2.2670   -2.6250    0.0000 C.ar    1  LIG1        0.1162
      8 C          -3.1290   -2.1130    0.0000 C.ar    1  LIG1        0.1826
      9 C          -3.1290   -1.1170    0.0000 C.ar    1  LIG1        0.1769
     10 C          -2.2670   -0.6210    0.0000 C.ar    1  LIG1        0.0476
     11 O          -4.0790   -0.8130    0.0000 O.3     1  LIG1       -0.4346
     12 C          -4.6710   -1.6170    0.0000 C.3     1  LIG1        0.4294
     13 O          -4.0790   -2.4330    0.0000 O.3     1  LIG1       -0.4344
     14 N          -0.5290    0.3920    0.0000 N.pl3   1  LIG1       -0.3071
     15 C           0.4210    0.6960    0.0000 C.3     1  LIG1        0.0908
     16 C           0.7670    1.6460    0.0000 C.3     1  LIG1        0.0214
     17 C           0.2540    2.4920    0.0000 C.3     1  LIG1        0.0018
     18 C          -0.7130    2.6290    0.0000 C.3     1  LIG1        0.0018
     19 C          -1.4500    1.9500    0.0000 C.3     1  LIG1        0.0214
     20 C          -1.3630    0.9380    0.0000 C.3     1  LIG1        0.0908
     21 C           1.2210   -0.6210    0.0000 C.2     1  LIG1        0.2029
     22 C           2.0830   -1.1170    0.0000 C.ar    1  LIG1        0.0392
     23 C           2.9420   -0.6210    0.0000 C.ar    1  LIG1        0.0029
     24 C           3.8040   -1.1170    0.0000 C.ar    1  LIG1       -0.0042
     25 C           3.8040   -2.1250    0.0000 C.ar    1  LIG1       -0.0218
     26 C           2.9420   -2.6250    0.0000 C.ar    1  LIG1       -0.0042
     27 C           2.0830   -2.1250    0.0000 C.ar    1  LIG1        0.0029
     28 C           4.6670   -2.6250    0.0000 C.3     1  LIG1        0.0310
     29 O           1.2210    0.3750    0.0000 O.2     1  LIG1       -0.2863
@<TRIPOS>BOND
     1     1     2   ar
     2     1     6   ar
     3     1    21    1
     4     2     3   ar
     5     2    14    1
     6     3     4   ar
     7     3    10   ar
     8     4     5   ar
     9     4     7   ar
    10     5     6   ar
    11     7     8   ar
    12     8     9   ar
    13     8    13    1
    14     9    10   ar
    15     9    11    1
    16    11    12    1
    17    12    13    1
    18    14    15    1
    19    14    20    1
    20    15    16    1
    21    16    17    1
    22    17    18    1
    23    18    19    1
    24    19    20    1
    25    21    22    1
    26    21    29    2
    27    22    23   ar
    28    22    27   ar
    29    23    24   ar
    30    24    25   ar
    31    25    26   ar
    32    25    28    1
    33    26    27   ar
