@<TRIPOS>MOLECULE
38077_ChemDiv_K290-0008
 24 28 0 0 0
SMALL
GASTEIGER
Energy = 0

@<TRIPOS>ATOM
      1 C           1.5130    1.2330    0.0000 C.ar    1  LIG1        0.4007
      2 N           1.9790    0.3580    0.0000 N.ar    1  LIG1       -0.2357
      3 C           1.2830   -0.3670    0.0000 C.ar    1  LIG1        0.1625
      4 C           0.3790    0.0630    0.0000 C.ar    1  LIG1        0.3230
      5 C          -0.4920   -0.4250    0.0000 C.ar    1  LIG1        0.1477
      6 C          -0.4920   -1.4290    0.0000 C.ar    1  LIG1        0.3518
      7 O          -1.3630   -1.9330    0.0000 O.2     1  LIG1       -0.4209
      8 C          -2.2250   -1.4290    0.0000 C.ar    1  LIG1        0.1487
      9 C          -2.2250   -0.4250    0.0000 C.ar    1  LIG1        0.0359
     10 C          -1.3630    0.0710    0.0000 C.ar    1  LIG1        0.0158
     11 C          -3.0880    0.0710    0.0000 C.ar    1  LIG1        0.0144
     12 C          -3.9580   -0.4250    0.0000 C.ar    1  LIG1        0.0579
     13 C          -3.9580   -1.4290    0.0000 C.ar    1  LIG1        0.0145
     14 C          -3.0880   -1.9330    0.0000 C.ar    1  LIG1        0.0385
     15 CL         -4.8170    0.0710    0.0000 Cl      1  LIG1       -0.0822
     16 O           0.3830   -1.9420    0.0000 O.2     1  LIG1       -0.2443
     17 N           0.5210    1.0670    0.0000 N.ar    1  LIG1        0.1048
     18 C           2.9630    0.5290    0.0000 C.ar    1  LIG1        0.0764
     19 C           3.1000    1.5080    0.0000 C.ar    1  LIG1        0.0530
     20 S           2.2080    1.9460    0.0000 S.2     1  LIG1        0.0088
     21 C           4.0210    1.8880    0.0000 C.ar    1  LIG1        0.0082
     22 C           4.8130    1.2790    0.0000 C.ar    1  LIG1        0.0006
     23 C           4.6670    0.2880    0.0000 C.ar    1  LIG1        0.0015
     24 C           3.7460   -0.0790    0.0000 C.ar    1  LIG1        0.0182
@<TRIPOS>BOND
     1     1     2   ar
     2     1    17   ar
     3     1    20   ar
     4     2     3   ar
     5     2    18   ar
     6     3     4   ar
     7     4     5    1
     8     4    17   ar
     9     5     6   ar
    10     5    10   ar
    11     6     7   ar
    12     6    16    2
    13     7     8   ar
    14     8     9   ar
    15     8    14   ar
    16     9    10   ar
    17     9    11   ar
    18    11    12   ar
    19    12    13   ar
    20    12    15    1
    21    13    14   ar
    22    18    19   ar
    23    18    24   ar
    24    19    20   ar
    25    19    21   ar
    26    21    22   ar
    27    22    23   ar
    28    23    24   ar
