@<TRIPOS>MOLECULE
38070_ChemDiv_C795-0820
 17 19 0 0 0
SMALL
GASTEIGER
Energy = 0

@<TRIPOS>ATOM
      1 C          -0.2830   -0.2670    0.0000 C.ar    1  LIG1        0.1429
      2 N           0.3080   -1.0670    0.0000 N.ar    1  LIG1       -0.2046
      3 S          -0.2750   -1.8750    0.0000 S.2     1  LIG1        0.0131
      4 C          -1.2250   -1.5710    0.0000 C.ar    1  LIG1        0.0490
      5 C          -1.2290   -0.5790    0.0000 C.ar    1  LIG1        0.0302
      6 C          -2.0960   -0.0710    0.0000 C.ar    1  LIG1        0.0022
      7 C          -2.9580   -0.5790    0.0000 C.ar    1  LIG1        0.0001
      8 C          -2.9580   -1.5830    0.0000 C.ar    1  LIG1        0.0006
      9 C          -2.0960   -2.0750    0.0000 C.ar    1  LIG1        0.0080
     10 C           0.0210    0.6920    0.0000 C.2     1  LIG1        0.2674
     11 N           1.0040    0.9080    0.0000 N.am    1  LIG1       -0.2748
     12 C           1.6750    0.1750    0.0000 C.3     1  LIG1        0.0938
     13 C           2.6500    0.3880    0.0000 C.3     1  LIG1        0.0216
     14 C           2.9540    1.3460    0.0000 C.3     1  LIG1        0.0035
     15 C           2.2790    2.0790    0.0000 C.3     1  LIG1        0.0216
     16 C           1.2960    1.8670    0.0000 C.3     1  LIG1        0.0938
     17 O          -0.6540    1.4330    0.0000 O.2     1  LIG1       -0.2682
@<TRIPOS>BOND
     1     1     2   ar
     2     1     5   ar
     3     1    10    1
     4     2     3   ar
     5     3     4   ar
     6     4     5   ar
     7     4     9   ar
     8     5     6   ar
     9     6     7   ar
    10     7     8   ar
    11     8     9   ar
    12    10    11   am
    13    10    17    2
    14    11    12    1
    15    11    16    1
    16    12    13    1
    17    13    14    1
    18    14    15    1
    19    15    16    1
