@<TRIPOS>MOLECULE
38075_ChemDiv_E235-2892
 31 35 0 0 0
SMALL
GASTEIGER
Energy = 0

@<TRIPOS>ATOM
      1 C           2.1630   -0.8380    0.0000 C.ar    1  LIG1        0.4007
      2 N           1.5670   -0.0290    0.0000 N.ar    1  LIG1       -0.2357
      3 C           2.1460    0.7830    0.0000 C.ar    1  LIG1        0.1623
      4 C           3.1000    0.4830    0.0000 C.ar    1  LIG1        0.3164
      5 N           3.1080   -0.5210    0.0000 N.ar    1  LIG1        0.1046
      6 C           3.9000    1.0750    0.0000 C.ar    1  LIG1        0.0679
      7 C           4.8210    0.6750    0.0000 C.ar    1  LIG1       -0.0162
      8 C           5.6250    1.2670    0.0000 C.ar    1  LIG1       -0.0083
      9 C           5.5080    2.2670    0.0000 C.ar    1  LIG1       -0.0222
     10 C           4.5830    2.6580    0.0000 C.ar    1  LIG1       -0.0041
     11 C           3.7920    2.0710    0.0000 C.ar    1  LIG1        0.0055
     12 C           6.3080    2.8580    0.0000 C.3     1  LIG1        0.0310
     13 C           4.9330   -0.3170    0.0000 C.3     1  LIG1        0.0312
     14 C           0.6170   -0.3500    0.0000 C.ar    1  LIG1        0.0764
     15 C           0.6170   -1.3500    0.0000 C.ar    1  LIG1        0.0531
     16 S           1.5710   -1.6500    0.0000 S.2     1  LIG1        0.0088
     17 C          -0.2500   -1.8540    0.0000 C.ar    1  LIG1        0.0127
     18 C          -1.1170   -1.3540    0.0000 C.ar    1  LIG1        0.0542
     19 C          -1.9880   -1.8540    0.0000 C.2     1  LIG1        0.2490
     20 N          -2.8500   -1.3540    0.0000 N.am    1  LIG1       -0.2761
     21 C          -2.8500   -0.3710    0.0000 C.3     1  LIG1        0.0942
     22 C          -3.7130    0.1460    0.0000 C.3     1  LIG1        0.0307
     23 C          -4.5830   -0.3380    0.0000 C.3     1  LIG1        0.0833
     24 C          -5.4380    0.1750    0.0000 C.2     1  LIG1        0.2604
     25 O          -6.3080   -0.3250    0.0000 O.2     1  LIG1       -0.2717
     26 N          -5.4380    1.1670    0.0000 N.am    1  LIG1       -0.0878
     27 C          -4.5830   -1.3500    0.0000 C.3     1  LIG1        0.0307
     28 C          -3.7290   -1.8540    0.0000 C.3     1  LIG1        0.0942
     29 O          -1.9880   -2.8540    0.0000 O.2     1  LIG1       -0.2699
     30 C          -1.1170   -0.3500    0.0000 C.ar    1  LIG1        0.0060
     31 C          -0.2500    0.1500    0.0000 C.ar    1  LIG1        0.0184
@<TRIPOS>BOND
     1     1     2   ar
     2     1     5   ar
     3     1    16   ar
     4     2     3   ar
     5     2    14   ar
     6     3     4   ar
     7     4     5   ar
     8     4     6    1
     9     6     7   ar
    10     6    11   ar
    11     7     8   ar
    12     7    13    1
    13     8     9   ar
    14     9    10   ar
    15     9    12    1
    16    10    11   ar
    17    14    15   ar
    18    14    31   ar
    19    15    16   ar
    20    15    17   ar
    21    17    18   ar
    22    18    19    1
    23    18    30   ar
    24    19    20   am
    25    19    29    2
    26    20    21    1
    27    20    28    1
    28    21    22    1
    29    22    23    1
    30    23    24    1
    31    23    27    1
    32    24    25    2
    33    24    26   am
    34    27    28    1
    35    30    31   ar
