@<TRIPOS>MOLECULE
38072_ChemDiv_K780-1142
 22 24 0 0 0
SMALL
GASTEIGER
Energy = 0

@<TRIPOS>ATOM
      1 C          -1.4380   -0.4500    0.0000 C.ar    1  LIG1        0.1429
      2 N          -0.8460   -1.2670    0.0000 N.ar    1  LIG1       -0.2046
      3 S          -1.4380   -2.0710    0.0000 S.2     1  LIG1        0.0131
      4 C          -2.3880   -1.7710    0.0000 C.ar    1  LIG1        0.0490
      5 C          -2.3880   -0.7670    0.0000 C.ar    1  LIG1        0.0302
      6 C          -3.2580   -0.2670    0.0000 C.ar    1  LIG1        0.0022
      7 C          -4.1210   -0.7670    0.0000 C.ar    1  LIG1        0.0001
      8 C          -4.1210   -1.7710    0.0000 C.ar    1  LIG1        0.0006
      9 C          -3.2580   -2.2630    0.0000 C.ar    1  LIG1        0.0080
     10 C          -1.1250    0.5000    0.0000 C.2     1  LIG1        0.2674
     11 N          -0.1460    0.7130    0.0000 N.am    1  LIG1       -0.2748
     12 C           0.1540    1.6630    0.0000 C.3     1  LIG1        0.0943
     13 C           1.1330    1.8630    0.0000 C.3     1  LIG1        0.0327
     14 C           1.8080    1.1210    0.0000 C.3     1  LIG1        0.1025
     15 C           2.7830    1.3250    0.0000 C.2     1  LIG1        0.3165
     16 O           3.0920    2.2670    0.0000 O.2     1  LIG1       -0.2501
     17 O           3.4420    0.5790    0.0000 O.3     1  LIG1       -0.4485
     18 C           4.1170   -0.1670    0.0000 C.3     1  LIG1        0.2086
     19 C           3.8000   -1.1080    0.0000 C.3     1  LIG1        0.0513
     20 C           1.4920    0.1710    0.0000 C.3     1  LIG1        0.0327
     21 C           0.5130   -0.0420    0.0000 C.3     1  LIG1        0.0943
     22 O          -1.7960    1.2420    0.0000 O.2     1  LIG1       -0.2682
@<TRIPOS>BOND
     1     1     2   ar
     2     1     5   ar
     3     1    10    1
     4     2     3   ar
     5     3     4   ar
     6     4     5   ar
     7     4     9   ar
     8     5     6   ar
     9     6     7   ar
    10     7     8   ar
    11     8     9   ar
    12    10    11   am
    13    10    22    2
    14    11    12    1
    15    11    21    1
    16    12    13    1
    17    13    14    1
    18    14    15    1
    19    14    20    1
    20    15    16    2
    21    15    17    1
    22    17    18    1
    23    18    19    1
    24    20    21    1
