@<TRIPOS>MOLECULE
38073_ChemDiv_E235-2075
 31 34 0 0 0
SMALL
GASTEIGER
Energy = 0

@<TRIPOS>ATOM
      1 C           1.5380   -2.1210    0.0000 C.ar    1  LIG1        0.4007
      2 N           1.4380   -1.1210    0.0000 N.ar    1  LIG1       -0.2357
      3 C           2.3670   -0.7210    0.0000 C.ar    1  LIG1        0.1623
      4 C           3.0210   -1.4710    0.0000 C.ar    1  LIG1        0.3167
      5 N           2.5170   -2.3330    0.0000 N.ar    1  LIG1        0.1046
      6 C           4.0170   -1.4210    0.0000 C.ar    1  LIG1        0.0721
      7 C           4.4750   -0.5380    0.0000 C.ar    1  LIG1        0.0093
      8 C           5.4750   -0.4880    0.0000 C.ar    1  LIG1        0.0371
      9 C           6.0250   -1.3380    0.0000 C.ar    1  LIG1        0.1386
     10 C           5.5580   -2.2210    0.0000 C.ar    1  LIG1        0.0371
     11 C           4.5580   -2.2670    0.0000 C.ar    1  LIG1        0.0093
     12 O           7.0250   -1.3210    0.0000 O.3     1  LIG1       -0.4755
     13 C           7.5420   -2.1830    0.0000 C.3     1  LIG1        0.2055
     14 C           8.5420   -2.1710    0.0000 C.3     1  LIG1        0.0512
     15 C           0.4540   -0.9170    0.0000 C.ar    1  LIG1        0.0764
     16 C          -0.0460   -1.7710    0.0000 C.ar    1  LIG1        0.0531
     17 S           0.6210   -2.5210    0.0000 S.2     1  LIG1        0.0088
     18 C          -1.0460   -1.7710    0.0000 C.ar    1  LIG1        0.0127
     19 C          -1.5460   -0.9170    0.0000 C.ar    1  LIG1        0.0556
     20 C          -2.5500   -0.9170    0.0000 C.2     1  LIG1        0.2648
     21 O          -3.0500   -1.7710    0.0000 O.2     1  LIG1       -0.2684
     22 N          -3.0500   -0.0540    0.0000 N.am    1  LIG1       -0.2016
     23 C          -4.0500   -0.0540    0.0000 C.3     1  LIG1        0.1164
     24 C          -4.5500    0.8080    0.0000 C.3     1  LIG1        0.0351
     25 C          -5.5460    0.8080    0.0000 C.3     1  LIG1        0.0594
     26 S          -6.0420    1.6580    0.0000 S.3     1  LIG1       -0.1402
     27 C          -7.0420    1.6580    0.0000 C.3     1  LIG1        0.0576
     28 C          -7.5420    2.5250    0.0000 C.3     1  LIG1        0.0116
     29 C          -8.5420    2.5250    0.0000 C.3     1  LIG1        0.0009
     30 C          -1.0460   -0.0500    0.0000 C.ar    1  LIG1        0.0061
     31 C          -0.0460   -0.0500    0.0000 C.ar    1  LIG1        0.0184
@<TRIPOS>BOND
     1     1     2   ar
     2     1     5   ar
     3     1    17   ar
     4     2     3   ar
     5     2    15   ar
     6     3     4   ar
     7     4     5   ar
     8     4     6    1
     9     6     7   ar
    10     6    11   ar
    11     7     8   ar
    12     8     9   ar
    13     9    10   ar
    14     9    12    1
    15    10    11   ar
    16    12    13    1
    17    13    14    1
    18    15    16   ar
    19    15    31   ar
    20    16    17   ar
    21    16    18   ar
    22    18    19   ar
    23    19    20    1
    24    19    30   ar
    25    20    21    2
    26    20    22   am
    27    22    23    1
    28    23    24    1
    29    24    25    1
    30    25    26    1
    31    26    27    1
    32    27    28    1
    33    28    29    1
    34    30    31   ar
