@<TRIPOS>MOLECULE
38074_ChemDiv_C795-0821
 19 21 0 0 0
SMALL
GASTEIGER
Energy = 0

@<TRIPOS>ATOM
      1 C          -0.4920    0.0580    0.0000 C.ar    1  LIG1        0.1444
      2 N           0.1000   -0.7420    0.0000 N.ar    1  LIG1       -0.2045
      3 S          -0.4790   -1.5580    0.0000 S.2     1  LIG1        0.0131
      4 C          -1.4330   -1.2540    0.0000 C.ar    1  LIG1        0.0490
      5 C          -1.4420   -0.2580    0.0000 C.ar    1  LIG1        0.0302
      6 C          -2.3040    0.2580    0.0000 C.ar    1  LIG1        0.0022
      7 C          -3.1670   -0.2580    0.0000 C.ar    1  LIG1        0.0001
      8 C          -3.1670   -1.2540    0.0000 C.ar    1  LIG1        0.0006
      9 C          -2.3040   -1.7540    0.0000 C.ar    1  LIG1        0.0080
     10 C          -0.1880    1.0170    0.0000 C.2     1  LIG1        0.2831
     11 N           0.7960    1.2380    0.0000 N.am    1  LIG1       -0.2021
     12 C           1.4710    0.5000    0.0000 C.3     1  LIG1        0.0957
     13 C           1.0380   -0.4540    0.0000 C.3     1  LIG1        0.0217
     14 C           1.3540   -1.2670    0.0000 C.3     1  LIG1        0.0018
     15 C           2.3380   -1.5250    0.0000 C.3     1  LIG1        0.0001
     16 C           3.1630   -0.8630    0.0000 C.3     1  LIG1        0.0001
     17 C           3.1500    0.2130    0.0000 C.3     1  LIG1        0.0018
     18 C           2.3210    0.7920    0.0000 C.3     1  LIG1        0.0217
     19 O          -0.8670    1.7580    0.0000 O.2     1  LIG1       -0.2667
@<TRIPOS>BOND
     1     1     2   ar
     2     1     5   ar
     3     1    10    1
     4     2     3   ar
     5     3     4   ar
     6     4     5   ar
     7     4     9   ar
     8     5     6   ar
     9     6     7   ar
    10     7     8   ar
    11     8     9   ar
    12    10    11   am
    13    10    19    2
    14    11    12    1
    15    12    13    1
    16    12    18    1
    17    13    14    1
    18    14    15    1
    19    15    16    1
    20    16    17    1
    21    17    18    1
