@<TRIPOS>MOLECULE
38086_ChemDiv_C798-0394
 26 30 0 0 0
SMALL
GASTEIGER
Energy = 0

@<TRIPOS>ATOM
      1 C          -1.1290    1.0710    0.0000 C.ar    1  LIG1        0.1945
      2 C          -0.1460    0.9790    0.0000 C.ar    1  LIG1        0.0201
      3 C           0.0710   -0.0040    0.0000 C.ar    1  LIG1        0.0350
      4 C           0.9290   -0.5080    0.0000 C.ar    1  LIG1        0.0445
      5 C           0.9290   -1.5000    0.0000 C.ar    1  LIG1        0.1367
      6 O           1.7920   -2.0000    0.0000 O.3     1  LIG1       -0.4827
      7 C           2.6540   -1.5000    0.0000 C.3     1  LIG1        0.1358
      8 C           2.6540   -0.5080    0.0000 C.3     1  LIG1        0.0775
      9 C           1.7920   -0.0040    0.0000 C.3     1  LIG1        0.1807
     10 O           1.7920    0.9920    0.0000 O.3     1  LIG1       -0.2181
     11 C           3.6040   -1.1920    0.0000 C.3     1  LIG1        0.0401
     12 C           4.1790   -2.0040    0.0000 C.3     1  LIG1        0.0037
     13 C           3.5920   -2.8130    0.0000 C.3     1  LIG1        0.0037
     14 C           2.6420   -2.4920    0.0000 C.3     1  LIG1        0.0401
     15 C           0.0710   -2.0000    0.0000 C.ar    1  LIG1        0.0398
     16 C          -0.8000   -1.5000    0.0000 C.ar    1  LIG1        0.0406
     17 C          -0.8000   -0.5080    0.0000 C.ar    1  LIG1        0.1452
     18 O          -1.5420    0.1790    0.0000 O.2     1  LIG1       -0.4492
     19 C           0.5170    1.7170    0.0000 C.3     1  LIG1        0.0345
     20 C          -1.6290    1.9540    0.0000 C.2     1  LIG1        0.2834
     21 N          -2.6290    1.9670    0.0000 N.am    1  LIG1       -0.2736
     22 C          -3.2170    2.7920    0.0000 C.3     1  LIG1        0.0939
     23 C          -4.1670    2.4830    0.0000 C.3     1  LIG1        0.0233
     24 C          -4.1830    1.4710    0.0000 C.3     1  LIG1        0.0233
     25 C          -3.2290    1.1540    0.0000 C.3     1  LIG1        0.0939
     26 O          -1.1170    2.8170    0.0000 O.2     1  LIG1       -0.2666
@<TRIPOS>BOND
     1     1     2   ar
     2     1    18   ar
     3     1    20    1
     4     2     3   ar
     5     2    19    1
     6     3     4   ar
     7     3    17   ar
     8     4     5   ar
     9     4     9    1
    10     5     6    1
    11     5    15   ar
    12     6     7    1
    13     7     8    1
    14     7    11    1
    15     7    14    1
    16     8     9    1
    17     9    10    1
    18    11    12    1
    19    12    13    1
    20    13    14    1
    21    15    16   ar
    22    16    17   ar
    23    17    18   ar
    24    20    21   am
    25    20    26    2
    26    21    22    1
    27    21    25    1
    28    22    23    1
    29    23    24    1
    30    24    25    1
