@<TRIPOS>MOLECULE
38088_ChemDiv_C798-0407
 30 33 0 0 0
SMALL
GASTEIGER
Energy = 0

@<TRIPOS>ATOM
      1 C          -0.0250    1.0750    0.0000 C.ar    1  LIG1        0.1960
      2 C           0.9580    0.9710    0.0000 C.ar    1  LIG1        0.0201
      3 C           1.1710   -0.0040    0.0000 C.ar    1  LIG1        0.0350
      4 C           2.0330   -0.5040    0.0000 C.ar    1  LIG1        0.0445
      5 C           2.0330   -1.5040    0.0000 C.ar    1  LIG1        0.1367
      6 O           2.8960   -2.0040    0.0000 O.3     1  LIG1       -0.4827
      7 C           3.7580   -1.5130    0.0000 C.3     1  LIG1        0.1358
      8 C           3.7710   -0.5040    0.0000 C.3     1  LIG1        0.0775
      9 C           2.8960   -0.0040    0.0000 C.3     1  LIG1        0.1807
     10 O           2.8960    0.9960    0.0000 O.3     1  LIG1       -0.2181
     11 C           4.7130   -1.2040    0.0000 C.3     1  LIG1        0.0401
     12 C           5.3000   -2.0130    0.0000 C.3     1  LIG1        0.0037
     13 C           4.7080   -2.8170    0.0000 C.3     1  LIG1        0.0037
     14 C           3.7580   -2.5040    0.0000 C.3     1  LIG1        0.0401
     15 C           1.1710   -2.0040    0.0000 C.ar    1  LIG1        0.0398
     16 C           0.3080   -1.5040    0.0000 C.ar    1  LIG1        0.0406
     17 C           0.3080   -0.5040    0.0000 C.ar    1  LIG1        0.1452
     18 O          -0.4380    0.1710    0.0000 O.2     1  LIG1       -0.4492
     19 C           1.6250    1.7210    0.0000 C.3     1  LIG1        0.0345
     20 C          -0.5250    1.9580    0.0000 C.2     1  LIG1        0.2992
     21 O          -0.0130    2.8210    0.0000 O.2     1  LIG1       -0.2650
     22 N          -1.5250    1.9710    0.0000 N.am    1  LIG1       -0.1989
     23 C          -2.1250    1.1580    0.0000 C.3     1  LIG1        0.1217
     24 C          -3.1170    1.2710    0.0000 C.3     1  LIG1        0.0861
     25 C          -3.7170    0.4710    0.0000 C.3     1  LIG1        0.1404
     26 N          -4.7040    0.5750    0.0000 N.4     1  LIG1        0.3773
     27 C          -5.3040   -0.2250    0.0000 C.3     1  LIG1        0.1388
     28 C          -4.9000   -1.1420    0.0000 C.3     1  LIG1        0.0688
     29 C          -5.1130    1.4960    0.0000 C.3     1  LIG1        0.1388
     30 C          -4.5130    2.2960    0.0000 C.3     1  LIG1        0.0688
@<TRIPOS>BOND
     1     1     2   ar
     2     1    18   ar
     3     1    20    1
     4     2     3   ar
     5     2    19    1
     6     3     4   ar
     7     3    17   ar
     8     4     5   ar
     9     4     9    1
    10     5     6    1
    11     5    15   ar
    12     6     7    1
    13     7     8    1
    14     7    11    1
    15     7    14    1
    16     8     9    1
    17     9    10    1
    18    11    12    1
    19    12    13    1
    20    13    14    1
    21    15    16   ar
    22    16    17   ar
    23    17    18   ar
    24    20    21    2
    25    20    22   am
    26    22    23    1
    27    23    24    1
    28    24    25    1
    29    25    26    1
    30    26    27    1
    31    26    29    1
    32    27    28    1
    33    29    30    1
