@<TRIPOS>MOLECULE
38083_ChemDiv_C707-1963
 30 34 0 0 0
SMALL
GASTEIGER
Energy = 0

@<TRIPOS>ATOM
      1 N          -0.6330    1.9040    0.0000 N.ar    1  LIG1       -0.1693
      2 C          -1.2670    2.6920    0.0000 C.ar    1  LIG1        0.1023
      3 C          -2.1880    2.3420    0.0000 C.ar    1  LIG1        0.0366
      4 C          -2.1540    1.3380    0.0000 C.ar    1  LIG1        0.0793
      5 N          -1.1830    1.0710    0.0000 N.ar    1  LIG1       -0.2509
      6 C          -0.9420    0.1040    0.0000 C.3     1  LIG1        0.1279
      7 C           0.0170   -0.1670    0.0000 C.3     1  LIG1        0.0359
      8 C           0.2670   -1.1330    0.0000 C.3     1  LIG1        0.0873
      9 C           1.2210   -1.4000    0.0000 C.2     1  LIG1        0.2259
     10 N           1.4710   -2.3880    0.0000 N.am    1  LIG1       -0.2751
     11 C           2.4380   -2.6540    0.0000 C.3     1  LIG1        0.1198
     12 C           2.6880   -3.6040    0.0000 C.ar    1  LIG1       -0.0062
     13 C           1.9880   -4.3170    0.0000 C.ar    1  LIG1       -0.0228
     14 C           1.0290   -4.0540    0.0000 C.3     1  LIG1        0.0476
     15 C           0.7630   -3.1000    0.0000 C.3     1  LIG1        0.0984
     16 C           2.2380   -5.2750    0.0000 C.ar    1  LIG1       -0.0045
     17 C           3.2080   -5.5420    0.0000 C.ar    1  LIG1       -0.0003
     18 C           3.9210   -4.8250    0.0000 C.ar    1  LIG1       -0.0003
     19 C           3.6500   -3.8670    0.0000 C.ar    1  LIG1       -0.0029
     20 O           1.9380   -0.7130    0.0000 O.2     1  LIG1       -0.2749
     21 C          -2.9960    0.8040    0.0000 C.ar    1  LIG1        0.0188
     22 C          -3.8920    1.2710    0.0000 C.ar    1  LIG1        0.0015
     23 C          -3.9250    2.2750    0.0000 C.ar    1  LIG1        0.0001
     24 C          -3.0710    2.8080    0.0000 C.ar    1  LIG1        0.0030
     25 C          -0.9500    3.6420    0.0000 C.ar    1  LIG1        0.0194
     26 C          -1.6210    4.3880    0.0000 C.ar    1  LIG1        0.0016
     27 C          -1.3000    5.3250    0.0000 C.ar    1  LIG1        0.0000
     28 C          -0.3210    5.5420    0.0000 C.ar    1  LIG1        0.0000
     29 C           0.3500    4.7790    0.0000 C.ar    1  LIG1        0.0000
     30 C           0.0330    3.8420    0.0000 C.ar    1  LIG1        0.0016
@<TRIPOS>BOND
     1     1     2   ar
     2     1     5   ar
     3     2     3   ar
     4     2    25    1
     5     3     4   ar
     6     3    24   ar
     7     4     5   ar
     8     4    21   ar
     9     5     6    1
    10     6     7    1
    11     7     8    1
    12     8     9    1
    13     9    10   am
    14     9    20    2
    15    10    11    1
    16    10    15    1
    17    11    12    1
    18    12    13   ar
    19    12    19   ar
    20    13    14    1
    21    13    16   ar
    22    14    15    1
    23    16    17   ar
    24    17    18   ar
    25    18    19   ar
    26    21    22   ar
    27    22    23   ar
    28    23    24   ar
    29    25    26   ar
    30    25    30   ar
    31    26    27   ar
    32    27    28   ar
    33    28    29   ar
    34    29    30   ar
