@<TRIPOS>MOLECULE
38081_ChemDiv_C707-1950
 29 33 0 0 0
SMALL
GASTEIGER
Energy = 0

@<TRIPOS>ATOM
      1 N          -0.9290    1.0420    0.0000 N.ar    1  LIG1       -0.1693
      2 C          -1.5130    1.8580    0.0000 C.ar    1  LIG1        0.1023
      3 C          -2.4630    1.5580    0.0000 C.ar    1  LIG1        0.0366
      4 C          -2.4630    0.5580    0.0000 C.ar    1  LIG1        0.0793
      5 N          -1.5130    0.2460    0.0000 N.ar    1  LIG1       -0.2509
      6 C          -1.1960   -0.7080    0.0000 C.3     1  LIG1        0.1279
      7 C          -0.2130   -0.9250    0.0000 C.3     1  LIG1        0.0359
      8 C           0.1000   -1.8790    0.0000 C.3     1  LIG1        0.0877
      9 C           1.0750   -2.0880    0.0000 C.2     1  LIG1        0.2294
     10 N           1.3920   -3.0420    0.0000 N.am    1  LIG1       -0.2586
     11 C           2.3710   -3.2580    0.0000 C.ar    1  LIG1        0.0499
     12 C           2.4710   -4.2420    0.0000 C.ar    1  LIG1       -0.0068
     13 C           1.5580   -4.6500    0.0000 C.3     1  LIG1        0.0495
     14 C           0.8920   -3.9080    0.0000 C.3     1  LIG1        0.1029
     15 C           3.3790   -4.6580    0.0000 C.ar    1  LIG1       -0.0030
     16 C           4.1960   -4.0750    0.0000 C.ar    1  LIG1       -0.0002
     17 C           4.0960   -3.0790    0.0000 C.ar    1  LIG1        0.0013
     18 C           3.1750   -2.6630    0.0000 C.ar    1  LIG1        0.0146
     19 O           1.7420   -1.3460    0.0000 O.2     1  LIG1       -0.2745
     20 C          -3.3210    0.0580    0.0000 C.ar    1  LIG1        0.0188
     21 C          -4.2000    0.5580    0.0000 C.ar    1  LIG1        0.0015
     22 C          -4.2000    1.5500    0.0000 C.ar    1  LIG1        0.0001
     23 C          -3.3210    2.0580    0.0000 C.ar    1  LIG1        0.0030
     24 C          -1.1500    2.7960    0.0000 C.ar    1  LIG1        0.0194
     25 C          -0.1670    2.9630    0.0000 C.ar    1  LIG1        0.0016
     26 C           0.1830    3.8830    0.0000 C.ar    1  LIG1        0.0000
     27 C          -0.4460    4.6580    0.0000 C.ar    1  LIG1        0.0000
     28 C          -1.4330    4.4920    0.0000 C.ar    1  LIG1        0.0000
     29 C          -1.7830    3.5670    0.0000 C.ar    1  LIG1        0.0016
@<TRIPOS>BOND
     1     1     2   ar
     2     1     5   ar
     3     2     3   ar
     4     2    24    1
     5     3     4   ar
     6     3    23   ar
     7     4     5   ar
     8     4    20   ar
     9     5     6    1
    10     6     7    1
    11     7     8    1
    12     8     9    1
    13     9    10   am
    14     9    19    2
    15    10    11    1
    16    10    14    1
    17    11    12   ar
    18    11    18   ar
    19    12    13    1
    20    12    15   ar
    21    13    14    1
    22    15    16   ar
    23    16    17   ar
    24    17    18   ar
    25    20    21   ar
    26    21    22   ar
    27    22    23   ar
    28    24    25   ar
    29    24    29   ar
    30    25    26   ar
    31    26    27   ar
    32    27    28   ar
    33    28    29   ar
