@<TRIPOS>MOLECULE
38082_ChemDiv_C798-0386
 27 31 0 0 0
SMALL
GASTEIGER
Energy = 0

@<TRIPOS>ATOM
      1 C          -0.9000    1.0540    0.0000 C.ar    1  LIG1        0.1945
      2 C           0.0790    0.9500    0.0000 C.ar    1  LIG1        0.0201
      3 C           0.2920   -0.0210    0.0000 C.ar    1  LIG1        0.0350
      4 C           1.1540   -0.5210    0.0000 C.ar    1  LIG1        0.0445
      5 C           1.1540   -1.5170    0.0000 C.ar    1  LIG1        0.1367
      6 O           2.0170   -2.0170    0.0000 O.3     1  LIG1       -0.4827
      7 C           2.8750   -1.5250    0.0000 C.3     1  LIG1        0.1358
      8 C           2.8880   -0.5210    0.0000 C.3     1  LIG1        0.0775
      9 C           2.0170   -0.0210    0.0000 C.3     1  LIG1        0.1807
     10 O           2.0170    0.9750    0.0000 O.3     1  LIG1       -0.2181
     11 C           3.8290   -1.2130    0.0000 C.3     1  LIG1        0.0401
     12 C           4.4170   -2.0290    0.0000 C.3     1  LIG1        0.0037
     13 C           3.8250   -2.8290    0.0000 C.3     1  LIG1        0.0037
     14 C           2.8750   -2.5250    0.0000 C.3     1  LIG1        0.0401
     15 C           0.2920   -2.0170    0.0000 C.ar    1  LIG1        0.0398
     16 C          -0.5710   -1.5170    0.0000 C.ar    1  LIG1        0.0406
     17 C          -0.5710   -0.5290    0.0000 C.ar    1  LIG1        0.1452
     18 O          -1.3130    0.1500    0.0000 O.2     1  LIG1       -0.4492
     19 C           0.7460    1.7040    0.0000 C.3     1  LIG1        0.0345
     20 C          -1.4000    1.9330    0.0000 C.2     1  LIG1        0.2834
     21 N          -2.4040    1.9460    0.0000 N.am    1  LIG1       -0.2736
     22 C          -2.9000    2.8250    0.0000 C.3     1  LIG1        0.0938
     23 C          -3.9000    2.8330    0.0000 C.3     1  LIG1        0.0216
     24 C          -4.4210    1.9750    0.0000 C.3     1  LIG1        0.0035
     25 C          -3.9250    1.0960    0.0000 C.3     1  LIG1        0.0216
     26 C          -2.9130    1.0830    0.0000 C.3     1  LIG1        0.0938
     27 O          -0.8920    2.7960    0.0000 O.2     1  LIG1       -0.2666
@<TRIPOS>BOND
     1     1     2   ar
     2     1    18   ar
     3     1    20    1
     4     2     3   ar
     5     2    19    1
     6     3     4   ar
     7     3    17   ar
     8     4     5   ar
     9     4     9    1
    10     5     6    1
    11     5    15   ar
    12     6     7    1
    13     7     8    1
    14     7    11    1
    15     7    14    1
    16     8     9    1
    17     9    10    1
    18    11    12    1
    19    12    13    1
    20    13    14    1
    21    15    16   ar
    22    16    17   ar
    23    17    18   ar
    24    20    21   am
    25    20    27    2
    26    21    22    1
    27    21    26    1
    28    22    23    1
    29    23    24    1
    30    24    25    1
    31    25    26    1
