@<TRIPOS>MOLECULE
38089_ChemDiv_C708-0244
 35 39 0 0 0
SMALL
GASTEIGER
Energy = 0

@<TRIPOS>ATOM
      1 S          -0.7830   -1.6080    0.0000 S.O2    1  LIG1        0.0633
      2 N          -1.6500   -1.0960    0.0000 N.3     1  LIG1       -0.1555
      3 C          -1.6500   -0.0960    0.0000 C.3     1  LIG1        0.0963
      4 C          -2.5040    0.4040    0.0000 C.3     1  LIG1        0.0283
      5 C          -3.3830   -0.0960    0.0000 C.3     1  LIG1        0.0796
      6 C          -4.2670    0.4040    0.0000 C.2     1  LIG1        0.2252
      7 N          -4.2710    1.4040    0.0000 N.am    1  LIG1       -0.2795
      8 C          -3.3380    1.7710    0.0000 C.3     1  LIG1        0.0934
      9 C          -3.0500    2.7170    0.0000 C.3     1  LIG1        0.0215
     10 C          -3.6040    3.5500    0.0000 C.3     1  LIG1        0.0018
     11 C          -4.6000    3.6170    0.0000 C.3     1  LIG1        0.0018
     12 C          -5.2830    2.8830    0.0000 C.3     1  LIG1        0.0215
     13 C          -5.1330    1.9040    0.0000 C.3     1  LIG1        0.0934
     14 O          -5.1250   -0.0960    0.0000 O.2     1  LIG1       -0.2749
     15 C          -3.3830   -1.0960    0.0000 C.3     1  LIG1        0.0283
     16 C          -2.5170   -1.5960    0.0000 C.3     1  LIG1        0.0963
     17 C           0.0960   -2.1130    0.0000 C.ar    1  LIG1        0.1223
     18 C           0.9630   -1.6130    0.0000 C.ar    1  LIG1        0.0214
     19 C           1.8170   -2.1130    0.0000 C.ar    1  LIG1        0.0198
     20 C           2.6830   -1.6130    0.0000 C.ar    1  LIG1        0.0126
     21 C           3.5500   -2.1130    0.0000 C.ar    1  LIG1       -0.0075
     22 C           3.5500   -3.1130    0.0000 C.ar    1  LIG1        0.0550
     23 N           2.6830   -3.6130    0.0000 N.ar    1  LIG1       -0.2500
     24 C           1.8170   -3.1130    0.0000 C.ar    1  LIG1        0.0810
     25 C           0.9630   -3.6130    0.0000 C.ar    1  LIG1        0.0205
     26 C           0.0960   -3.1130    0.0000 C.ar    1  LIG1        0.0215
     27 C           4.4130   -3.6130    0.0000 C.3     1  LIG1        0.0455
     28 C           5.2790   -3.1130    0.0000 C.3     1  LIG1        0.0066
     29 C           5.2790   -2.1130    0.0000 C.3     1  LIG1        0.0051
     30 C           4.4130   -1.6130    0.0000 C.3     1  LIG1        0.0276
     31 C           2.6830   -0.6130    0.0000 C.2     1  LIG1        0.0726
     32 O           1.8170   -0.1130    0.0000 O.co2   1  LIG1       -0.5446
     33 O           3.5330   -0.1130    0.0000 O.co2   1  LIG1       -0.5446
     34 O          -0.2710   -0.7290    0.0000 O.2     1  LIG1       -0.1528
     35 O          -1.2830   -2.4790    0.0000 O.2     1  LIG1       -0.1528
@<TRIPOS>BOND
     1     1     2    1
     2     1    17    1
     3     1    34    2
     4     1    35    2
     5     2     3    1
     6     2    16    1
     7     3     4    1
     8     4     5    1
     9     5     6    1
    10     5    15    1
    11     6     7   am
    12     6    14    2
    13     7     8    1
    14     7    13    1
    15     8     9    1
    16     9    10    1
    17    10    11    1
    18    11    12    1
    19    12    13    1
    20    15    16    1
    21    17    18   ar
    22    17    26   ar
    23    18    19   ar
    24    19    20   ar
    25    19    24   ar
    26    20    21   ar
    27    20    31    1
    28    21    22   ar
    29    21    30    1
    30    22    23   ar
    31    22    27    1
    32    23    24   ar
    33    24    25   ar
    34    25    26   ar
    35    27    28    1
    36    28    29    1
    37    29    30    1
    38    31    32   ar
    39    31    33   ar
