@<TRIPOS>MOLECULE
38084_ChemDiv_C798-0389
 25 28 0 0 0
SMALL
GASTEIGER
Energy = 0

@<TRIPOS>ATOM
      1 C          -1.1670    0.6330    0.0000 C.ar    1  LIG1        0.1960
      2 C          -0.1830    0.5380    0.0000 C.ar    1  LIG1        0.0201
      3 C           0.0290   -0.4460    0.0000 C.ar    1  LIG1        0.0350
      4 C           0.8920   -0.9420    0.0000 C.ar    1  LIG1        0.0445
      5 C           0.8920   -1.9420    0.0000 C.ar    1  LIG1        0.1367
      6 O           1.7540   -2.4420    0.0000 O.3     1  LIG1       -0.4827
      7 C           2.6170   -1.9420    0.0000 C.3     1  LIG1        0.1358
      8 C           2.6250   -0.9420    0.0000 C.3     1  LIG1        0.0775
      9 C           1.7540   -0.4460    0.0000 C.3     1  LIG1        0.1807
     10 O           1.7540    0.5540    0.0000 O.3     1  LIG1       -0.2181
     11 C           2.6170   -2.9420    0.0000 C.3     1  LIG1        0.0401
     12 C           3.5630   -3.2580    0.0000 C.3     1  LIG1        0.0037
     13 C           4.1580   -2.4500    0.0000 C.3     1  LIG1        0.0037
     14 C           3.5670   -1.6380    0.0000 C.3     1  LIG1        0.0401
     15 C           0.0290   -2.4420    0.0000 C.ar    1  LIG1        0.0398
     16 C          -0.8330   -1.9420    0.0000 C.ar    1  LIG1        0.0406
     17 C          -0.8330   -0.9420    0.0000 C.ar    1  LIG1        0.1452
     18 O          -1.5920   -0.2630    0.0000 O.2     1  LIG1       -0.4492
     19 C           0.4830    1.2790    0.0000 C.3     1  LIG1        0.0345
     20 C          -1.6670    1.5210    0.0000 C.2     1  LIG1        0.2991
     21 N          -2.6710    1.5290    0.0000 N.am    1  LIG1       -0.2008
     22 C          -3.1630    2.4000    0.0000 C.3     1  LIG1        0.0958
     23 C          -4.1630    2.4040    0.0000 C.3     1  LIG1        0.0234
     24 C          -2.6670    3.2630    0.0000 C.3     1  LIG1        0.0234
     25 O          -1.1580    2.3830    0.0000 O.2     1  LIG1       -0.2650
@<TRIPOS>BOND
     1     1     2   ar
     2     1    18   ar
     3     1    20    1
     4     2     3   ar
     5     2    19    1
     6     3     4   ar
     7     3    17   ar
     8     4     5   ar
     9     4     9    1
    10     5     6    1
    11     5    15   ar
    12     6     7    1
    13     7     8    1
    14     7    11    1
    15     7    14    1
    16     8     9    1
    17     9    10    1
    18    11    12    1
    19    12    13    1
    20    13    14    1
    21    15    16   ar
    22    16    17   ar
    23    17    18   ar
    24    20    21   am
    25    20    25    2
    26    21    22    1
    27    22    23    1
    28    22    24    1
