@<TRIPOS>MOLECULE
38085_ChemDiv_C708-0063
 36 39 0 0 0
SMALL
GASTEIGER
Energy = 0

@<TRIPOS>ATOM
      1 S           0.0000   -0.0080    0.0000 S.O2    1  LIG1        0.0633
      2 N          -0.8750    0.5000    0.0000 N.3     1  LIG1       -0.1555
      3 C          -1.7420    0.0000    0.0000 C.3     1  LIG1        0.0963
      4 C          -2.6080    0.5000    0.0000 C.3     1  LIG1        0.0283
      5 C          -2.6080    1.5000    0.0000 C.3     1  LIG1        0.0811
      6 C          -3.4830    2.0000    0.0000 C.2     1  LIG1        0.2410
      7 O          -3.5000    3.0000    0.0000 O.2     1  LIG1       -0.2734
      8 N          -4.3500    1.5000    0.0000 N.am    1  LIG1       -0.2053
      9 C          -4.3500    0.5000    0.0000 C.3     1  LIG1        0.1177
     10 C          -5.2170    0.0000    0.0000 C.3     1  LIG1        0.0555
     11 C          -5.2170   -0.9960    0.0000 C.3     1  LIG1        0.1440
     12 O          -6.0630   -1.4960    0.0000 O.3     1  LIG1       -0.3537
     13 C          -6.0630   -2.4960    0.0000 C.3     1  LIG1        0.1422
     14 C          -6.9250   -2.9960    0.0000 C.3     1  LIG1        0.0346
     15 C          -1.7330    2.0000    0.0000 C.3     1  LIG1        0.0283
     16 C          -0.8750    1.5000    0.0000 C.3     1  LIG1        0.0963
     17 C           0.8630   -0.5130    0.0000 C.ar    1  LIG1        0.1223
     18 C           1.7290   -0.0170    0.0000 C.ar    1  LIG1        0.0214
     19 C           2.5960   -0.5130    0.0000 C.ar    1  LIG1        0.0198
     20 C           3.4580   -0.0170    0.0000 C.ar    1  LIG1        0.0126
     21 C           4.3250   -0.5130    0.0000 C.ar    1  LIG1       -0.0075
     22 C           4.3250   -1.5130    0.0000 C.ar    1  LIG1        0.0550
     23 N           3.4580   -2.0130    0.0000 N.ar    1  LIG1       -0.2500
     24 C           2.5960   -1.5130    0.0000 C.ar    1  LIG1        0.0810
     25 C           1.7290   -2.0130    0.0000 C.ar    1  LIG1        0.0205
     26 C           0.8630   -1.5130    0.0000 C.ar    1  LIG1        0.0215
     27 C           5.1790   -2.0130    0.0000 C.3     1  LIG1        0.0455
     28 C           6.0460   -1.5130    0.0000 C.3     1  LIG1        0.0066
     29 C           6.0460   -0.5130    0.0000 C.3     1  LIG1        0.0048
     30 C           5.1790   -0.0170    0.0000 C.3     1  LIG1        0.0276
     31 C           6.9250   -0.0080    0.0000 C.3     1  LIG1        0.0004
     32 C           3.4580    0.9830    0.0000 C.2     1  LIG1        0.0726
     33 O           2.5920    1.4830    0.0000 O.co2   1  LIG1       -0.5446
     34 O           4.3130    1.4830    0.0000 O.co2   1  LIG1       -0.5446
     35 O          -0.5080   -0.8790    0.0000 O.2     1  LIG1       -0.1528
     36 O           0.5000    0.8670    0.0000 O.2     1  LIG1       -0.1528
@<TRIPOS>BOND
     1     1     2    1
     2     1    17    1
     3     1    35    2
     4     1    36    2
     5     2     3    1
     6     2    16    1
     7     3     4    1
     8     4     5    1
     9     5     6    1
    10     5    15    1
    11     6     7    2
    12     6     8   am
    13     8     9    1
    14     9    10    1
    15    10    11    1
    16    11    12    1
    17    12    13    1
    18    13    14    1
    19    15    16    1
    20    17    18   ar
    21    17    26   ar
    22    18    19   ar
    23    19    20   ar
    24    19    24   ar
    25    20    21   ar
    26    20    32    1
    27    21    22   ar
    28    21    30    1
    29    22    23   ar
    30    22    27    1
    31    23    24   ar
    32    24    25   ar
    33    25    26   ar
    34    27    28    1
    35    28    29    1
    36    29    30    1
    37    29    31    1
    38    32    33   ar
    39    32    34   ar
