@<TRIPOS>MOLECULE
38094_ChemDiv_E766-0144
 31 35 0 0 0
SMALL
GASTEIGER
Energy = 0

@<TRIPOS>ATOM
      1 C           0.2830    1.1130    0.0000 C.ar    1  LIG1        0.1960
      2 C           1.2750    1.0130    0.0000 C.ar    1  LIG1        0.0201
      3 C           1.4830    0.0380    0.0000 C.ar    1  LIG1        0.0350
      4 C           2.3460   -0.4630    0.0000 C.ar    1  LIG1        0.0445
      5 C           2.3460   -1.4580    0.0000 C.ar    1  LIG1        0.1367
      6 O           3.2080   -1.9580    0.0000 O.3     1  LIG1       -0.4827
      7 C           4.0710   -1.4580    0.0000 C.3     1  LIG1        0.1358
      8 C           4.0710   -0.4630    0.0000 C.3     1  LIG1        0.0775
      9 C           3.2080    0.0380    0.0000 C.3     1  LIG1        0.1807
     10 O           3.2080    1.0380    0.0000 O.3     1  LIG1       -0.2181
     11 C           4.9330   -0.9630    0.0000 C.3     1  LIG1        0.0401
     12 C           5.8040   -1.4580    0.0000 C.3     1  LIG1        0.0036
     13 C           5.8040   -2.4670    0.0000 C.3     1  LIG1        0.0002
     14 C           4.9330   -2.9670    0.0000 C.3     1  LIG1        0.0036
     15 C           4.0710   -2.4670    0.0000 C.3     1  LIG1        0.0401
     16 C           1.4830   -1.9580    0.0000 C.ar    1  LIG1        0.0398
     17 C           0.6170   -1.4580    0.0000 C.ar    1  LIG1        0.0406
     18 C           0.6170   -0.4710    0.0000 C.ar    1  LIG1        0.1452
     19 O          -0.1330    0.2080    0.0000 O.2     1  LIG1       -0.4492
     20 C           1.9330    1.7630    0.0000 C.3     1  LIG1        0.0345
     21 C          -0.2130    1.9920    0.0000 C.2     1  LIG1        0.2992
     22 O           0.2920    2.8540    0.0000 O.2     1  LIG1       -0.2650
     23 N          -1.2210    2.0040    0.0000 N.am    1  LIG1       -0.1987
     24 C          -2.2040    1.7750    0.0000 C.3     1  LIG1        0.1199
     25 C          -2.9000    2.4880    0.0000 C.3     1  LIG1        0.0451
     26 C          -3.8500    2.2460    0.0000 C.2     1  LIG1       -0.0467
     27 C          -4.5540    2.9710    0.0000 C.2     1  LIG1       -0.0346
     28 C          -5.5290    2.7290    0.0000 C.3     1  LIG1        0.0254
     29 C          -5.8080    1.7670    0.0000 C.3     1  LIG1        0.0050
     30 C          -5.1040    1.0670    0.0000 C.3     1  LIG1        0.0047
     31 C          -4.1210    1.2920    0.0000 C.3     1  LIG1        0.0218
@<TRIPOS>BOND
     1     1     2   ar
     2     1    19   ar
     3     1    21    1
     4     2     3   ar
     5     2    20    1
     6     3     4   ar
     7     3    18   ar
     8     4     5   ar
     9     4     9    1
    10     5     6    1
    11     5    16   ar
    12     6     7    1
    13     7     8    1
    14     7    11    1
    15     7    15    1
    16     8     9    1
    17     9    10    1
    18    11    12    1
    19    12    13    1
    20    13    14    1
    21    14    15    1
    22    16    17   ar
    23    17    18   ar
    24    18    19   ar
    25    21    22    2
    26    21    23   am
    27    23    24    1
    28    24    25    1
    29    25    26    1
    30    26    27    2
    31    26    31    1
    32    27    28    1
    33    28    29    1
    34    29    30    1
    35    30    31    1
