@<TRIPOS>MOLECULE
38096_ChemDiv_E766-0777
 27 30 0 0 0
SMALL
GASTEIGER
Energy = 0

@<TRIPOS>ATOM
      1 C           0.2460    1.0210    0.0000 C.ar    1  LIG1        0.1960
      2 C           1.2380    0.9170    0.0000 C.ar    1  LIG1        0.0201
      3 C           1.4500   -0.0540    0.0000 C.ar    1  LIG1        0.0350
      4 C           2.3130   -0.5540    0.0000 C.ar    1  LIG1        0.0445
      5 C           2.3130   -1.5540    0.0000 C.ar    1  LIG1        0.1367
      6 O           3.1750   -2.0540    0.0000 O.3     1  LIG1       -0.4827
      7 C           4.0370   -1.5540    0.0000 C.3     1  LIG1        0.1358
      8 C           4.0370   -0.5540    0.0000 C.3     1  LIG1        0.0775
      9 C           3.1750   -0.0540    0.0000 C.3     1  LIG1        0.1807
     10 O           3.1750    0.9420    0.0000 O.3     1  LIG1       -0.2181
     11 C           4.1420   -2.5540    0.0000 C.3     1  LIG1        0.0401
     12 C           5.1250   -2.7630    0.0000 C.3     1  LIG1        0.0037
     13 C           5.6290   -1.8960    0.0000 C.3     1  LIG1        0.0037
     14 C           4.9580   -1.1460    0.0000 C.3     1  LIG1        0.0401
     15 C           1.4500   -2.0540    0.0000 C.ar    1  LIG1        0.0398
     16 C           0.5790   -1.5540    0.0000 C.ar    1  LIG1        0.0406
     17 C           0.5790   -0.5670    0.0000 C.ar    1  LIG1        0.1452
     18 O          -0.1710    0.1170    0.0000 O.2     1  LIG1       -0.4492
     19 C           1.9000    1.6710    0.0000 C.3     1  LIG1        0.0345
     20 C          -0.2500    1.9040    0.0000 C.2     1  LIG1        0.2992
     21 O           0.2540    2.7670    0.0000 O.2     1  LIG1       -0.2650
     22 N          -1.2630    1.9130    0.0000 N.am    1  LIG1       -0.1990
     23 C          -2.1830    2.3130    0.0000 C.3     1  LIG1        0.1182
     24 C          -2.9960    1.7460    0.0000 C.3     1  LIG1        0.0555
     25 C          -3.8920    2.1380    0.0000 C.3     1  LIG1        0.1441
     26 O          -4.7170    1.5710    0.0000 O.3     1  LIG1       -0.3510
     27 C          -5.6330    1.9790    0.0000 C.3     1  LIG1        0.1741
@<TRIPOS>BOND
     1     1     2   ar
     2     1    18   ar
     3     1    20    1
     4     2     3   ar
     5     2    19    1
     6     3     4   ar
     7     3    17   ar
     8     4     5   ar
     9     4     9    1
    10     5     6    1
    11     5    15   ar
    12     6     7    1
    13     7     8    1
    14     7    11    1
    15     7    14    1
    16     8     9    1
    17     9    10    1
    18    11    12    1
    19    12    13    1
    20    13    14    1
    21    15    16   ar
    22    16    17   ar
    23    17    18   ar
    24    20    21    2
    25    20    22   am
    26    22    23    1
    27    23    24    1
    28    24    25    1
    29    25    26    1
    30    26    27    1
