@<TRIPOS>MOLECULE
38099_ChemDiv_C771-0191
 26 29 0 0 0
SMALL
GASTEIGER
Energy = 0

@<TRIPOS>ATOM
      1 S          -3.3420   -1.6670    0.0000 S.O2    1  LIG1       -0.0011
      2 C          -3.1250   -2.6380    0.0000 C.3     1  LIG1        0.1837
      3 C          -2.1210   -2.7330    0.0000 C.ar    1  LIG1        0.0287
      4 C          -1.7290   -1.8170    0.0000 C.ar    1  LIG1        0.0056
      5 C          -0.7420   -1.9000    0.0000 C.ar    1  LIG1        0.0087
      6 C          -0.5080   -2.8880    0.0000 C.ar    1  LIG1        0.0839
      7 S          -1.3670   -3.4000    0.0000 S.2     1  LIG1       -0.0853
      8 C           0.4380   -3.1710    0.0000 C.2     1  LIG1        0.2708
      9 O           0.6630   -4.1540    0.0000 O.2     1  LIG1       -0.2678
     10 N           1.1630   -2.4880    0.0000 N.am    1  LIG1       -0.2010
     11 C           0.9420   -1.5330    0.0000 C.3     1  LIG1        0.1216
     12 C           1.6670   -0.8540    0.0000 C.3     1  LIG1        0.0861
     13 C           1.4290    0.1170    0.0000 C.3     1  LIG1        0.1409
     14 N           2.1500    0.8000    0.0000 N.4     1  LIG1        0.3810
     15 C           1.9000    1.7710    0.0000 C.3     1  LIG1        0.1659
     16 C           2.6000    2.4750    0.0000 C.ar    1  LIG1        0.0306
     17 C           3.5670    2.2250    0.0000 C.ar    1  LIG1       -0.0147
     18 C           3.8330    1.2540    0.0000 C.3     1  LIG1        0.0889
     19 C           3.1290    0.5330    0.0000 C.3     1  LIG1        0.1438
     20 C           4.2670    2.9250    0.0000 C.ar    1  LIG1       -0.0042
     21 C           4.0040    3.8790    0.0000 C.ar    1  LIG1       -0.0003
     22 C           3.0380    4.1540    0.0000 C.ar    1  LIG1       -0.0001
     23 C           2.3330    3.4460    0.0000 C.ar    1  LIG1        0.0011
     24 C          -2.4830   -1.1500    0.0000 C.3     1  LIG1        0.1778
     25 O          -4.2710   -2.0500    0.0000 O.2     1  LIG1       -0.1723
     26 O          -3.3040   -0.6710    0.0000 O.2     1  LIG1       -0.1723
@<TRIPOS>BOND
     1     1     2    1
     2     1    24    1
     3     1    25    2
     4     1    26    2
     5     2     3    1
     6     3     4   ar
     7     3     7   ar
     8     4     5   ar
     9     4    24    1
    10     5     6   ar
    11     6     7   ar
    12     6     8    1
    13     8     9    2
    14     8    10   am
    15    10    11    1
    16    11    12    1
    17    12    13    1
    18    13    14    1
    19    14    15    1
    20    14    19    1
    21    15    16    1
    22    16    17   ar
    23    16    23   ar
    24    17    18    1
    25    17    20   ar
    26    18    19    1
    27    20    21   ar
    28    21    22   ar
    29    22    23   ar
