@<TRIPOS>MOLECULE
38097_ChemDiv_C768-0340
 29 33 0 0 0
SMALL
GASTEIGER
Energy = 0

@<TRIPOS>ATOM
      1 C           0.3290   -0.9880    0.0000 C.ar    1  LIG1        0.1289
      2 C          -0.5460   -0.4920    0.0000 C.ar    1  LIG1        0.0632
      3 C          -1.4080   -0.9880    0.0000 C.ar    1  LIG1        0.0870
      4 C          -1.4080   -1.9880    0.0000 C.ar    1  LIG1        0.3013
      5 N          -0.5460   -2.4880    0.0000 N.ar    1  LIG1        0.0828
      6 C           0.3290   -1.9880    0.0000 C.ar    1  LIG1        0.3699
      7 C          -2.2710   -2.4880    0.0000 C.ar    1  LIG1        0.1162
      8 C          -3.1330   -1.9880    0.0000 C.ar    1  LIG1        0.1826
      9 C          -3.1330   -0.9880    0.0000 C.ar    1  LIG1        0.1769
     10 C          -2.2710   -0.4920    0.0000 C.ar    1  LIG1        0.0476
     11 O          -4.0920   -0.6790    0.0000 O.3     1  LIG1       -0.4346
     12 C          -4.6670   -1.4880    0.0000 C.3     1  LIG1        0.4294
     13 O          -4.0920   -2.3040    0.0000 O.3     1  LIG1       -0.4344
     14 N          -0.5460    0.5080    0.0000 N.pl3   1  LIG1       -0.3071
     15 C           0.3290    1.0130    0.0000 C.3     1  LIG1        0.0908
     16 C           0.3290    2.0080    0.0000 C.3     1  LIG1        0.0215
     17 C          -0.5460    2.5080    0.0000 C.3     1  LIG1        0.0035
     18 C          -1.4080    2.0080    0.0000 C.3     1  LIG1        0.0215
     19 C          -1.4080    1.0130    0.0000 C.3     1  LIG1        0.0908
     20 C           1.2000   -0.4920    0.0000 C.2     1  LIG1        0.2029
     21 C           2.0630   -1.0040    0.0000 C.ar    1  LIG1        0.0389
     22 C           2.9250   -0.5040    0.0000 C.ar    1  LIG1       -0.0014
     23 C           3.7960   -1.0040    0.0000 C.ar    1  LIG1       -0.0257
     24 C           3.7880   -2.0040    0.0000 C.ar    1  LIG1       -0.0258
     25 C           2.9250   -2.5040    0.0000 C.ar    1  LIG1       -0.0045
     26 C           2.0630   -2.0040    0.0000 C.ar    1  LIG1        0.0028
     27 C           4.6500   -2.5040    0.0000 C.3     1  LIG1        0.0307
     28 C           4.6630   -0.5040    0.0000 C.3     1  LIG1        0.0307
     29 O           1.2080    0.5080    0.0000 O.2     1  LIG1       -0.2863
@<TRIPOS>BOND
     1     1     2   ar
     2     1     6   ar
     3     1    20    1
     4     2     3   ar
     5     2    14    1
     6     3     4   ar
     7     3    10   ar
     8     4     5   ar
     9     4     7   ar
    10     5     6   ar
    11     7     8   ar
    12     8     9   ar
    13     8    13    1
    14     9    10   ar
    15     9    11    1
    16    11    12    1
    17    12    13    1
    18    14    15    1
    19    14    19    1
    20    15    16    1
    21    16    17    1
    22    17    18    1
    23    18    19    1
    24    20    21    1
    25    20    29    2
    26    21    22   ar
    27    21    26   ar
    28    22    23   ar
    29    23    24   ar
    30    23    28    1
    31    24    25   ar
    32    24    27    1
    33    25    26   ar
