@<TRIPOS>MOLECULE
38093_ChemDiv_C800-0014
 39 43 0 0 0
SMALL
GASTEIGER
Energy = 0

@<TRIPOS>ATOM
      1 S           0.8670    0.0080    0.0000 S.O2    1  LIG1        0.0633
      2 N           0.0000    0.5080    0.0000 N.3     1  LIG1       -0.1555
      3 C          -0.8630    0.0000    0.0000 C.3     1  LIG1        0.0963
      4 C          -1.7330    0.4920    0.0000 C.3     1  LIG1        0.0283
      5 C          -1.7500    1.4960    0.0000 C.3     1  LIG1        0.0811
      6 C          -2.6250    1.9960    0.0000 C.2     1  LIG1        0.2409
      7 N          -3.4880    1.4960    0.0000 N.am    1  LIG1       -0.2072
      8 C          -3.4880    0.4920    0.0000 C.3     1  LIG1        0.0957
      9 C          -4.3500   -0.0040    0.0000 C.3     1  LIG1        0.0263
     10 C          -4.3500   -1.0040    0.0000 C.3     1  LIG1        0.0281
     11 C          -5.2130   -1.5040    0.0000 C.ar    1  LIG1       -0.0221
     12 C          -6.0670   -1.0040    0.0000 C.ar    1  LIG1       -0.0043
     13 C          -6.9290   -1.5040    0.0000 C.ar    1  LIG1       -0.0003
     14 C          -6.9290   -2.5130    0.0000 C.ar    1  LIG1       -0.0000
     15 C          -6.0670   -3.0000    0.0000 C.ar    1  LIG1       -0.0003
     16 C          -5.2130   -2.5130    0.0000 C.ar    1  LIG1       -0.0043
     17 C          -2.6170   -0.0040    0.0000 C.3     1  LIG1        0.0234
     18 O          -2.6290    3.0040    0.0000 O.2     1  LIG1       -0.2734
     19 C          -0.8710    2.0040    0.0000 C.3     1  LIG1        0.0283
     20 C          -0.0080    1.5080    0.0000 C.3     1  LIG1        0.0963
     21 C           1.7460   -0.5000    0.0000 C.ar    1  LIG1        0.1223
     22 C           2.6080    0.0080    0.0000 C.ar    1  LIG1        0.0214
     23 C           3.4670   -0.4880    0.0000 C.ar    1  LIG1        0.0198
     24 C           4.3290    0.0080    0.0000 C.ar    1  LIG1        0.0126
     25 C           5.2000   -0.4880    0.0000 C.ar    1  LIG1       -0.0075
     26 C           5.2000   -1.4880    0.0000 C.ar    1  LIG1        0.0550
     27 N           4.3290   -1.9880    0.0000 N.ar    1  LIG1       -0.2500
     28 C           3.4670   -1.4880    0.0000 C.ar    1  LIG1        0.0810
     29 C           2.6080   -1.9880    0.0000 C.ar    1  LIG1        0.0205
     30 C           1.7460   -1.4880    0.0000 C.ar    1  LIG1        0.0215
     31 C           6.0630   -1.9960    0.0000 C.3     1  LIG1        0.0455
     32 C           6.9290   -1.4880    0.0000 C.3     1  LIG1        0.0066
     33 C           6.9290   -0.4880    0.0000 C.3     1  LIG1        0.0051
     34 C           6.0630    0.0080    0.0000 C.3     1  LIG1        0.0276
     35 C           4.3290    1.0080    0.0000 C.2     1  LIG1        0.0726
     36 O           3.4670    1.5080    0.0000 O.co2   1  LIG1       -0.5446
     37 O           5.1920    1.5080    0.0000 O.co2   1  LIG1       -0.5446
     38 O           1.3670    0.8750    0.0000 O.2     1  LIG1       -0.1528
     39 O           0.3670   -0.8670    0.0000 O.2     1  LIG1       -0.1528
@<TRIPOS>BOND
     1     1     2    1
     2     1    21    1
     3     1    38    2
     4     1    39    2
     5     2     3    1
     6     2    20    1
     7     3     4    1
     8     4     5    1
     9     5     6    1
    10     5    19    1
    11     6     7   am
    12     6    18    2
    13     7     8    1
    14     8     9    1
    15     8    17    1
    16     9    10    1
    17    10    11    1
    18    11    12   ar
    19    11    16   ar
    20    12    13   ar
    21    13    14   ar
    22    14    15   ar
    23    15    16   ar
    24    19    20    1
    25    21    22   ar
    26    21    30   ar
    27    22    23   ar
    28    23    24   ar
    29    23    28   ar
    30    24    25   ar
    31    24    35    1
    32    25    26   ar
    33    25    34    1
    34    26    27   ar
    35    26    31    1
    36    27    28   ar
    37    28    29   ar
    38    29    30   ar
    39    31    32    1
    40    32    33    1
    41    33    34    1
    42    35    36   ar
    43    35    37   ar
