@<TRIPOS>MOLECULE
38090_ChemDiv_C798-0432
 30 34 0 0 0
SMALL
GASTEIGER
Energy = 0

@<TRIPOS>ATOM
      1 C          -0.7250    1.0750    0.0000 C.ar    1  LIG1        0.1960
      2 C           0.2580    0.9750    0.0000 C.ar    1  LIG1        0.0201
      3 C           0.4710    0.0000    0.0000 C.ar    1  LIG1        0.0350
      4 C           1.3330   -0.5000    0.0000 C.ar    1  LIG1        0.0445
      5 C           1.3330   -1.5000    0.0000 C.ar    1  LIG1        0.1367
      6 O           2.1960   -2.0000    0.0000 O.3     1  LIG1       -0.4827
      7 C           3.0580   -1.5080    0.0000 C.3     1  LIG1        0.1358
      8 C           3.0670   -0.5000    0.0000 C.3     1  LIG1        0.0775
      9 C           2.1960    0.0000    0.0000 C.3     1  LIG1        0.1807
     10 O           2.1960    1.0000    0.0000 O.3     1  LIG1       -0.2181
     11 C           4.0130   -1.1960    0.0000 C.3     1  LIG1        0.0401
     12 C           4.6000   -2.0130    0.0000 C.3     1  LIG1        0.0037
     13 C           4.0040   -2.8170    0.0000 C.3     1  LIG1        0.0037
     14 C           3.0580   -2.5080    0.0000 C.3     1  LIG1        0.0401
     15 C           0.4710   -2.0000    0.0000 C.ar    1  LIG1        0.0398
     16 C          -0.3920   -1.5000    0.0000 C.ar    1  LIG1        0.0406
     17 C          -0.3920   -0.5080    0.0000 C.ar    1  LIG1        0.1452
     18 O          -1.1420    0.1710    0.0000 O.2     1  LIG1       -0.4492
     19 C           0.9250    1.7250    0.0000 C.3     1  LIG1        0.0345
     20 C          -1.2250    1.9580    0.0000 C.2     1  LIG1        0.2992
     21 O          -0.7170    2.8210    0.0000 O.2     1  LIG1       -0.2650
     22 N          -2.2290    1.9670    0.0000 N.am    1  LIG1       -0.1987
     23 C          -2.8290    1.1670    0.0000 C.3     1  LIG1        0.1202
     24 C          -2.4250    0.2420    0.0000 C.3     1  LIG1        0.0498
     25 C          -3.0250   -0.5630    0.0000 C.ar    1  LIG1       -0.0204
     26 C          -4.0080   -0.4380    0.0000 C.ar    1  LIG1       -0.0042
     27 C          -4.6040   -1.2500    0.0000 C.ar    1  LIG1       -0.0003
     28 C          -4.2080   -2.1670    0.0000 C.ar    1  LIG1       -0.0000
     29 C          -3.2080   -2.2710    0.0000 C.ar    1  LIG1       -0.0003
     30 C          -2.6170   -1.4670    0.0000 C.ar    1  LIG1       -0.0042
@<TRIPOS>BOND
     1     1     2   ar
     2     1    18   ar
     3     1    20    1
     4     2     3   ar
     5     2    19    1
     6     3     4   ar
     7     3    17   ar
     8     4     5   ar
     9     4     9    1
    10     5     6    1
    11     5    15   ar
    12     6     7    1
    13     7     8    1
    14     7    11    1
    15     7    14    1
    16     8     9    1
    17     9    10    1
    18    11    12    1
    19    12    13    1
    20    13    14    1
    21    15    16   ar
    22    16    17   ar
    23    17    18   ar
    24    20    21    2
    25    20    22   am
    26    22    23    1
    27    23    24    1
    28    24    25    1
    29    25    26   ar
    30    25    30   ar
    31    26    27   ar
    32    27    28   ar
    33    28    29   ar
    34    29    30   ar
