@<TRIPOS>MOLECULE
38098_ChemDiv_C875-0073
 20 22 0 0 0
SMALL
GASTEIGER
Energy = 0

@<TRIPOS>ATOM
      1 C          -1.1250   -0.7750    0.0000 C.ar    1  LIG1        0.1904
      2 N          -1.7080    0.0290    0.0000 N.ar    1  LIG1       -0.2196
      3 C          -2.6630   -0.2750    0.0000 C.ar    1  LIG1        0.1042
      4 C          -2.6630   -1.2790    0.0000 C.ar    1  LIG1        0.1202
      5 N          -1.7080   -1.5790    0.0000 N.ar    1  LIG1       -0.2181
      6 C          -3.5250   -1.7790    0.0000 C.ar    1  LIG1        0.1195
      7 N          -4.3920   -1.2790    0.0000 N.ar    1  LIG1       -0.2406
      8 C          -4.3920   -0.2750    0.0000 C.ar    1  LIG1        0.1005
      9 C          -3.5250    0.2250    0.0000 C.ar    1  LIG1        0.0414
     10 S          -0.1250   -0.8040    0.0000 S.3     1  LIG1       -0.0709
     11 C           0.3830    0.0580    0.0000 C.3     1  LIG1        0.0907
     12 C           1.3960    0.0420    0.0000 C.ar    1  LIG1       -0.0188
     13 C           1.8960    0.9040    0.0000 C.ar    1  LIG1       -0.0256
     14 C           2.8960    0.9040    0.0000 C.ar    1  LIG1       -0.0088
     15 C           3.3960    0.0420    0.0000 C.ar    1  LIG1       -0.0225
     16 C           2.8960   -0.8080    0.0000 C.ar    1  LIG1       -0.0088
     17 C           1.8960   -0.8080    0.0000 C.ar    1  LIG1       -0.0256
     18 C           1.3830   -1.6960    0.0000 C.3     1  LIG1        0.0307
     19 C           4.3880    0.0420    0.0000 C.3     1  LIG1        0.0310
     20 C           1.3830    1.7830    0.0000 C.3     1  LIG1        0.0307
@<TRIPOS>BOND
     1     1     2   ar
     2     1     5   ar
     3     1    10    1
     4     2     3   ar
     5     3     4   ar
     6     3     9   ar
     7     4     5   ar
     8     4     6   ar
     9     6     7   ar
    10     7     8   ar
    11     8     9   ar
    12    10    11    1
    13    11    12    1
    14    12    13   ar
    15    12    17   ar
    16    13    14   ar
    17    13    20    1
    18    14    15   ar
    19    15    16   ar
    20    15    19    1
    21    16    17   ar
    22    17    18    1
