@<TRIPOS>MOLECULE
38095_ChemDiv_K783-7002
 29 32 0 0 0
SMALL
GASTEIGER
Energy = 0

@<TRIPOS>ATOM
      1 S          -0.8670   -0.5380    0.0000 S.O2    1  LIG1        0.0633
      2 N          -1.7290   -0.0250    0.0000 N.3     1  LIG1       -0.1555
      3 C          -1.7130    0.9880    0.0000 C.3     1  LIG1        0.0962
      4 C          -2.5670    1.5040    0.0000 C.3     1  LIG1        0.0247
      5 C          -3.4500    1.0210    0.0000 C.3     1  LIG1        0.0394
      6 C          -4.3040    1.5380    0.0000 C.2     1  LIG1        0.0501
      7 O          -5.1790    1.0630    0.0000 O.co2   1  LIG1       -0.5492
      8 O          -4.2830    2.5330    0.0000 O.co2   1  LIG1       -0.5492
      9 C          -3.4670    0.0210    0.0000 C.3     1  LIG1        0.0247
     10 C          -2.6040   -0.5080    0.0000 C.3     1  LIG1        0.0962
     11 C          -0.0080   -1.0380    0.0000 C.ar    1  LIG1        0.1223
     12 C           0.8540   -0.5380    0.0000 C.ar    1  LIG1        0.0214
     13 C           1.7170   -1.0380    0.0000 C.ar    1  LIG1        0.0198
     14 C           2.5750   -0.5330    0.0000 C.ar    1  LIG1        0.0126
     15 C           3.4380   -1.0210    0.0000 C.ar    1  LIG1       -0.0075
     16 C           3.4380   -2.0330    0.0000 C.ar    1  LIG1        0.0550
     17 N           2.5880   -2.5290    0.0000 N.ar    1  LIG1       -0.2500
     18 C           1.7170   -2.0330    0.0000 C.ar    1  LIG1        0.0810
     19 C           0.8540   -2.5290    0.0000 C.ar    1  LIG1        0.0205
     20 C          -0.0080   -2.0330    0.0000 C.ar    1  LIG1        0.0215
     21 C           4.3130   -2.5250    0.0000 C.3     1  LIG1        0.0455
     22 C           5.1750   -2.0290    0.0000 C.3     1  LIG1        0.0066
     23 C           5.1750   -1.0210    0.0000 C.3     1  LIG1        0.0051
     24 C           4.3080   -0.5080    0.0000 C.3     1  LIG1        0.0276
     25 C           2.5710    0.4670    0.0000 C.2     1  LIG1        0.0726
     26 O           1.7000    0.9630    0.0000 O.co2   1  LIG1       -0.5446
     27 O           3.4330    0.9750    0.0000 O.co2   1  LIG1       -0.5446
     28 O          -0.3580    0.3080    0.0000 O.2     1  LIG1       -0.1528
     29 O          -1.3960   -1.4000    0.0000 O.2     1  LIG1       -0.1528
@<TRIPOS>BOND
     1     1     2    1
     2     1    11    1
     3     1    28    2
     4     1    29    2
     5     2     3    1
     6     2    10    1
     7     3     4    1
     8     4     5    1
     9     5     6    1
    10     5     9    1
    11     6     7   ar
    12     6     8   ar
    13     9    10    1
    14    11    12   ar
    15    11    20   ar
    16    12    13   ar
    17    13    14   ar
    18    13    18   ar
    19    14    15   ar
    20    14    25    1
    21    15    16   ar
    22    15    24    1
    23    16    17   ar
    24    16    21    1
    25    17    18   ar
    26    18    19   ar
    27    19    20   ar
    28    21    22    1
    29    22    23    1
    30    23    24    1
    31    25    26   ar
    32    25    27   ar
