@<TRIPOS>MOLECULE
38092_ChemDiv_E765-0082
 28 30 0 0 0
SMALL
GASTEIGER
Energy = 0

@<TRIPOS>ATOM
      1 C           0.6170    0.9000    0.0000 C.ar    1  LIG1        0.1960
      2 C           1.6040    0.8000    0.0000 C.ar    1  LIG1        0.0201
      3 C           1.8210   -0.1830    0.0000 C.ar    1  LIG1        0.0350
      4 C           2.6830   -0.6830    0.0000 C.ar    1  LIG1        0.0445
      5 C           2.6830   -1.6880    0.0000 C.ar    1  LIG1        0.1367
      6 O           3.5420   -2.1880    0.0000 O.3     1  LIG1       -0.4827
      7 C           4.4080   -1.6880    0.0000 C.3     1  LIG1        0.1361
      8 C           4.4080   -0.6830    0.0000 C.3     1  LIG1        0.0775
      9 C           3.5420   -0.1830    0.0000 C.3     1  LIG1        0.1807
     10 O           3.5420    0.8170    0.0000 O.3     1  LIG1       -0.2181
     11 C           4.6670   -2.6420    0.0000 C.3     1  LIG1        0.0437
     12 C           5.3920   -1.8580    0.0000 C.3     1  LIG1        0.0437
     13 C           1.8210   -2.1880    0.0000 C.ar    1  LIG1        0.0398
     14 C           0.9540   -1.6880    0.0000 C.ar    1  LIG1        0.0406
     15 C           0.9540   -0.6830    0.0000 C.ar    1  LIG1        0.1452
     16 O           0.2040   -0.0040    0.0000 O.2     1  LIG1       -0.4492
     17 C           2.2670    1.5500    0.0000 C.3     1  LIG1        0.0345
     18 C           0.1040    1.7790    0.0000 C.2     1  LIG1        0.2992
     19 O           0.6040    2.6460    0.0000 O.2     1  LIG1       -0.2650
     20 N          -0.8960    1.7790    0.0000 N.am    1  LIG1       -0.1989
     21 C          -1.3960    0.9130    0.0000 C.3     1  LIG1        0.1217
     22 C          -2.4000    0.9130    0.0000 C.3     1  LIG1        0.0861
     23 C          -2.9000    0.0500    0.0000 C.3     1  LIG1        0.1404
     24 N          -3.8960    0.0500    0.0000 N.4     1  LIG1        0.3773
     25 C          -4.3960    0.9130    0.0000 C.3     1  LIG1        0.1388
     26 C          -3.8960    1.7790    0.0000 C.3     1  LIG1        0.0688
     27 C          -4.3960   -0.8170    0.0000 C.3     1  LIG1        0.1388
     28 C          -5.3960   -0.8170    0.0000 C.3     1  LIG1        0.0688
@<TRIPOS>BOND
     1     1     2   ar
     2     1    16   ar
     3     1    18    1
     4     2     3   ar
     5     2    17    1
     6     3     4   ar
     7     3    15   ar
     8     4     5   ar
     9     4     9    1
    10     5     6    1
    11     5    13   ar
    12     6     7    1
    13     7     8    1
    14     7    11    1
    15     7    12    1
    16     8     9    1
    17     9    10    1
    18    13    14   ar
    19    14    15   ar
    20    15    16   ar
    21    18    19    2
    22    18    20   am
    23    20    21    1
    24    21    22    1
    25    22    23    1
    26    23    24    1
    27    24    25    1
    28    24    27    1
    29    25    26    1
    30    27    28    1
