@<TRIPOS>MOLECULE
38104_ChemDiv_C796-0068
 30 32 0 0 0
SMALL
GASTEIGER
Energy = 0

@<TRIPOS>ATOM
      1 N          -2.1880   -2.0000    0.0000 N.am    1  LIG1       -0.1716
      2 N          -2.1880   -1.0000    0.0000 N.2     1  LIG1       -0.1797
      3 C          -3.0540   -0.5000    0.0000 C.2     1  LIG1        0.0770
      4 C          -3.0540    0.5040    0.0000 C.ar    1  LIG1        0.0153
      5 C          -2.1880    1.0040    0.0000 C.ar    1  LIG1        0.0043
      6 C          -2.1880    2.0040    0.0000 C.ar    1  LIG1        0.0369
      7 C          -3.0540    2.5040    0.0000 C.ar    1  LIG1        0.1387
      8 C          -3.9170    2.0040    0.0000 C.ar    1  LIG1        0.0369
      9 C          -3.9170    1.0040    0.0000 C.ar    1  LIG1        0.0043
     10 O          -3.0540    3.5080    0.0000 O.3     1  LIG1       -0.4714
     11 C          -3.9170    4.0040    0.0000 C.3     1  LIG1        0.2525
     12 C          -3.9170   -1.0000    0.0000 C.3     1  LIG1        0.0570
     13 C          -3.9170   -2.0000    0.0000 C.3     1  LIG1        0.0934
     14 C          -3.0540   -2.5000    0.0000 C.2     1  LIG1        0.2451
     15 O          -3.0540   -3.5040    0.0000 O.2     1  LIG1       -0.2731
     16 C          -1.3210   -2.5000    0.0000 C.3     1  LIG1        0.2057
     17 C          -1.3210   -3.5040    0.0000 C.2     1  LIG1        0.2679
     18 N          -0.4580   -4.0040    0.0000 N.am    1  LIG1       -0.1777
     19 C           0.4080   -3.5040    0.0000 C.ar    1  LIG1        0.0734
     20 C           0.4210   -2.5000    0.0000 C.ar    1  LIG1        0.0168
     21 C           1.2880   -2.0000    0.0000 C.ar    1  LIG1        0.0078
     22 C           2.1540   -2.5130    0.0000 C.ar    1  LIG1        0.0757
     23 C           3.0130   -2.0170    0.0000 C.2     1  LIG1        0.3412
     24 O           3.8790   -2.5290    0.0000 O.2     1  LIG1       -0.2449
     25 O           3.0290   -1.0250    0.0000 O.3     1  LIG1       -0.4454
     26 C           3.9000   -0.5250    0.0000 C.3     1  LIG1        0.2089
     27 C           3.9130    0.4880    0.0000 C.3     1  LIG1        0.0513
     28 C           2.1460   -3.5000    0.0000 C.ar    1  LIG1        0.0078
     29 C           1.2580   -3.9880    0.0000 C.ar    1  LIG1        0.0168
     30 O          -2.1880   -4.0040    0.0000 O.2     1  LIG1       -0.2710
@<TRIPOS>BOND
     1     1     2    1
     2     1    14   am
     3     1    16    1
     4     2     3    2
     5     3     4    1
     6     3    12    1
     7     4     5   ar
     8     4     9   ar
     9     5     6   ar
    10     6     7   ar
    11     7     8   ar
    12     7    10    1
    13     8     9   ar
    14    10    11    1
    15    12    13    1
    16    13    14    1
    17    14    15    2
    18    16    17    1
    19    17    18   am
    20    17    30    2
    21    18    19    1
    22    19    20   ar
    23    19    29   ar
    24    20    21   ar
    25    21    22   ar
    26    22    23    1
    27    22    28   ar
    28    23    24    2
    29    23    25    1
    30    25    26    1
    31    26    27    1
    32    28    29   ar
