@<TRIPOS>MOLECULE
38106_ChemDiv_K788-3083
 27 29 0 0 0
SMALL
GASTEIGER
Energy = 0

@<TRIPOS>ATOM
      1 N          -1.7330    0.9880    0.0000 N.am    1  LIG1       -0.1716
      2 N          -0.8670    1.4880    0.0000 N.2     1  LIG1       -0.1797
      3 C          -0.8670    2.4920    0.0000 C.2     1  LIG1        0.0770
      4 C           0.0000    2.9880    0.0000 C.ar    1  LIG1        0.0151
      5 C           0.0000    3.9880    0.0000 C.ar    1  LIG1        0.0021
      6 C           0.8630    4.4830    0.0000 C.ar    1  LIG1        0.0114
      7 C           1.7420    3.9830    0.0000 C.ar    1  LIG1        0.0577
      8 C           1.7380    2.9830    0.0000 C.ar    1  LIG1        0.0114
      9 C           0.8630    2.4830    0.0000 C.ar    1  LIG1        0.0021
     10 CL          2.6040    4.4920    0.0000 Cl      1  LIG1       -0.0822
     11 C          -1.7330    2.9960    0.0000 C.3     1  LIG1        0.0570
     12 C          -2.5920    2.4920    0.0000 C.3     1  LIG1        0.0934
     13 C          -2.5920    1.4880    0.0000 C.2     1  LIG1        0.2451
     14 O          -3.4630    0.9880    0.0000 O.2     1  LIG1       -0.2731
     15 C          -1.7330   -0.0130    0.0000 C.3     1  LIG1        0.2057
     16 C          -0.8670   -0.5130    0.0000 C.2     1  LIG1        0.2679
     17 N          -0.8710   -1.5040    0.0000 N.am    1  LIG1       -0.1777
     18 C          -0.0040   -1.9960    0.0000 C.ar    1  LIG1        0.0734
     19 C           0.8540   -1.5000    0.0000 C.ar    1  LIG1        0.0163
     20 C           1.7170   -1.9920    0.0000 C.ar    1  LIG1       -0.0029
     21 C           1.7210   -2.9920    0.0000 C.ar    1  LIG1       -0.0224
     22 C           0.8540   -3.4920    0.0000 C.ar    1  LIG1       -0.0029
     23 C          -0.0130   -2.9920    0.0000 C.ar    1  LIG1        0.0163
     24 C           2.5920   -3.4880    0.0000 C.3     1  LIG1        0.0224
     25 C           3.4580   -2.9830    0.0000 C.3     1  LIG1        0.0047
     26 C           2.5960   -4.4920    0.0000 C.3     1  LIG1        0.0047
     27 O           0.0000   -0.0130    0.0000 O.2     1  LIG1       -0.2710
@<TRIPOS>BOND
     1     1     2    1
     2     1    13   am
     3     1    15    1
     4     2     3    2
     5     3     4    1
     6     3    11    1
     7     4     5   ar
     8     4     9   ar
     9     5     6   ar
    10     6     7   ar
    11     7     8   ar
    12     7    10    1
    13     8     9   ar
    14    11    12    1
    15    12    13    1
    16    13    14    2
    17    15    16    1
    18    16    17   am
    19    16    27    2
    20    17    18    1
    21    18    19   ar
    22    18    23   ar
    23    19    20   ar
    24    20    21   ar
    25    21    22   ar
    26    21    24    1
    27    22    23   ar
    28    24    25    1
    29    24    26    1
