@<TRIPOS>MOLECULE
38101_ChemDiv_C777-0894
 26 29 0 0 0
SMALL
GASTEIGER
Energy = 0

@<TRIPOS>ATOM
      1 N           0.6580   -1.1580    0.0000 N.ar    1  LIG1       -0.3159
      2 C          -0.1540   -1.7670    0.0000 C.ar    1  LIG1        0.0666
      3 C           0.1540   -2.7080    0.0000 C.ar    1  LIG1        0.0466
      4 C           1.1580   -2.7080    0.0000 C.ar    1  LIG1        0.0317
      5 C           1.4710   -1.7500    0.0000 C.ar    1  LIG1        0.1374
      6 C           2.4290   -1.4460    0.0000 C.2     1  LIG1        0.3574
      7 O           2.6330   -0.4790    0.0000 O.2     1  LIG1       -0.2433
      8 O           3.1580   -2.1210    0.0000 O.3     1  LIG1       -0.4403
      9 C           3.1580   -3.1210    0.0000 C.3     1  LIG1        0.2560
     10 S          -0.6540   -3.2960    0.0000 S.2     1  LIG1       -0.0897
     11 C          -1.4670   -2.7080    0.0000 C.ar    1  LIG1        0.0087
     12 C          -1.1540   -1.7500    0.0000 C.ar    1  LIG1        0.0199
     13 C          -2.4170   -3.0170    0.0000 C.3     1  LIG1        0.0330
     14 C          -3.1630   -2.3330    0.0000 C.3     1  LIG1        0.0056
     15 C           0.6580   -0.1790    0.0000 C.3     1  LIG1        0.1522
     16 C          -0.2080    0.3170    0.0000 C.ar    1  LIG1        0.0882
     17 N          -0.2080    1.3170    0.0000 N.ar    1  LIG1       -0.2301
     18 C          -1.0920    1.8080    0.0000 C.ar    1  LIG1        0.1497
     19 N          -1.9460    1.3040    0.0000 N.ar    1  LIG1       -0.2577
     20 C          -1.9420    0.3170    0.0000 C.ar    1  LIG1        0.2672
     21 C          -1.0790   -0.1790    0.0000 C.ar    1  LIG1        0.0778
     22 O          -2.8170   -0.1790    0.0000 O.2     1  LIG1       -0.2665
     23 C          -2.8080    1.8080    0.0000 C.ar    1  LIG1        0.0844
     24 C          -2.8170    2.8040    0.0000 C.ar    1  LIG1        0.0192
     25 C          -1.9460    3.3000    0.0000 C.ar    1  LIG1        0.0046
     26 C          -1.0790    2.8080    0.0000 C.ar    1  LIG1        0.0375
@<TRIPOS>BOND
     1     1     2   ar
     2     1     5   ar
     3     1    15    1
     4     2     3   ar
     5     2    12   ar
     6     3     4   ar
     7     3    10   ar
     8     4     5   ar
     9     5     6    1
    10     6     7    2
    11     6     8    1
    12     8     9    1
    13    10    11   ar
    14    11    12   ar
    15    11    13    1
    16    13    14    1
    17    15    16    1
    18    16    17   ar
    19    16    21   ar
    20    17    18   ar
    21    18    19   ar
    22    18    26   ar
    23    19    20   ar
    24    19    23   ar
    25    20    21   ar
    26    20    22    2
    27    23    24   ar
    28    24    25   ar
    29    25    26   ar
