@<TRIPOS>MOLECULE
38109_ChemDiv_C781-0050
 32 35 0 0 0
SMALL
GASTEIGER
Energy = 0

@<TRIPOS>ATOM
      1 C          -4.5880   -1.6580    0.0000 C.ar    1  LIG1        0.1904
      2 N          -5.1540   -2.4460    0.0000 N.ar    1  LIG1       -0.2181
      3 C          -6.0960   -2.1460    0.0000 C.ar    1  LIG1        0.1202
      4 C          -6.0960   -1.1460    0.0000 C.ar    1  LIG1        0.1042
      5 N          -5.1540   -0.8460    0.0000 N.ar    1  LIG1       -0.2196
      6 C          -6.9540   -0.6460    0.0000 C.ar    1  LIG1        0.0414
      7 C          -7.8250   -1.1460    0.0000 C.ar    1  LIG1        0.1005
      8 N          -7.8250   -2.1460    0.0000 N.ar    1  LIG1       -0.2406
      9 C          -6.9540   -2.6460    0.0000 C.ar    1  LIG1        0.1195
     10 S          -3.5830   -1.6670    0.0000 S.3     1  LIG1       -0.0709
     11 C          -3.0880   -0.7960    0.0000 C.3     1  LIG1        0.0913
     12 C          -2.0960   -0.8170    0.0000 C.ar    1  LIG1       -0.0109
     13 C          -1.5880    0.0500    0.0000 C.ar    1  LIG1       -0.0033
     14 C          -0.5830    0.0500    0.0000 C.ar    1  LIG1        0.0043
     15 C          -0.0880   -0.8040    0.0000 C.ar    1  LIG1        0.0550
     16 C           0.9170   -0.8040    0.0000 C.2     1  LIG1        0.2648
     17 O           1.4080   -1.6670    0.0000 O.2     1  LIG1       -0.2684
     18 N           1.4080    0.0670    0.0000 N.am    1  LIG1       -0.2013
     19 C           2.4130    0.0670    0.0000 C.3     1  LIG1        0.1201
     20 C           2.9080    0.9210    0.0000 C.3     1  LIG1        0.0499
     21 C           3.9130    0.9130    0.0000 C.ar    1  LIG1       -0.0172
     22 C           4.4080    1.7790    0.0000 C.ar    1  LIG1        0.0358
     23 C           5.4130    1.7790    0.0000 C.ar    1  LIG1        0.1721
     24 C           5.9040    0.9210    0.0000 C.ar    1  LIG1        0.1724
     25 C           5.4130    0.0670    0.0000 C.ar    1  LIG1        0.0397
     26 C           4.4080    0.0500    0.0000 C.ar    1  LIG1       -0.0009
     27 O           6.9080    0.9210    0.0000 O.3     1  LIG1       -0.4684
     28 C           7.8250    0.3210    0.0000 C.3     1  LIG1        0.2526
     29 O           5.9210    2.6500    0.0000 O.3     1  LIG1       -0.4684
     30 C           6.9210    2.6460    0.0000 C.3     1  LIG1        0.2526
     31 C          -0.5830   -1.6670    0.0000 C.ar    1  LIG1        0.0043
     32 C          -1.5880   -1.6710    0.0000 C.ar    1  LIG1       -0.0033
@<TRIPOS>BOND
     1     1     2   ar
     2     1     5   ar
     3     1    10    1
     4     2     3   ar
     5     3     4   ar
     6     3     9   ar
     7     4     5   ar
     8     4     6   ar
     9     6     7   ar
    10     7     8   ar
    11     8     9   ar
    12    10    11    1
    13    11    12    1
    14    12    13   ar
    15    12    32   ar
    16    13    14   ar
    17    14    15   ar
    18    15    16    1
    19    15    31   ar
    20    16    17    2
    21    16    18   am
    22    18    19    1
    23    19    20    1
    24    20    21    1
    25    21    22   ar
    26    21    26   ar
    27    22    23   ar
    28    23    24   ar
    29    23    29    1
    30    24    25   ar
    31    24    27    1
    32    25    26   ar
    33    27    28    1
    34    29    30    1
    35    31    32   ar
