@<TRIPOS>MOLECULE
38102_ChemDiv_K783-7010
 18 20 0 0 0
SMALL
GASTEIGER
Energy = 0

@<TRIPOS>ATOM
      1 C          -1.1000    0.3580    0.0000 C.ar    1  LIG1        0.1904
      2 N          -1.7000    1.1750    0.0000 N.ar    1  LIG1       -0.2196
      3 C          -2.6500    0.8580    0.0000 C.ar    1  LIG1        0.1042
      4 C          -2.6500   -0.1460    0.0000 C.ar    1  LIG1        0.1202
      5 N          -1.7000   -0.4630    0.0000 N.ar    1  LIG1       -0.2181
      6 C          -3.5210   -0.6420    0.0000 C.ar    1  LIG1        0.1195
      7 N          -4.3830   -0.1460    0.0000 N.ar    1  LIG1       -0.2406
      8 C          -4.3830    0.8580    0.0000 C.ar    1  LIG1        0.1005
      9 C          -3.5210    1.3630    0.0000 C.ar    1  LIG1        0.0414
     10 S          -0.1000    0.3580    0.0000 S.3     1  LIG1       -0.0709
     11 C           0.3960   -0.5040    0.0000 C.3     1  LIG1        0.0913
     12 C           1.3920   -0.5000    0.0000 C.ar    1  LIG1       -0.0109
     13 C           1.8920   -1.3580    0.0000 C.ar    1  LIG1       -0.0037
     14 C           2.8880   -1.3500    0.0000 C.ar    1  LIG1       -0.0046
     15 C           3.3830   -0.4920    0.0000 C.ar    1  LIG1       -0.0219
     16 C           2.8710    0.3750    0.0000 C.ar    1  LIG1       -0.0046
     17 C           1.8750    0.3710    0.0000 C.ar    1  LIG1       -0.0037
     18 C           4.3790   -0.4880    0.0000 C.3     1  LIG1        0.0310
@<TRIPOS>BOND
     1     1     2   ar
     2     1     5   ar
     3     1    10    1
     4     2     3   ar
     5     3     4   ar
     6     3     9   ar
     7     4     5   ar
     8     4     6   ar
     9     6     7   ar
    10     7     8   ar
    11     8     9   ar
    12    10    11    1
    13    11    12    1
    14    12    13   ar
    15    12    17   ar
    16    13    14   ar
    17    14    15   ar
    18    15    16   ar
    19    15    18    1
    20    16    17   ar
