@<TRIPOS>MOLECULE
38103_ChemDiv_C777-0939
 22 25 0 0 0
SMALL
GASTEIGER
Energy = 0

@<TRIPOS>ATOM
      1 N           1.1790   -1.0210    0.0000 N.ar    1  LIG1       -0.3098
      2 C           1.3790   -0.0210    0.0000 C.ar    1  LIG1        0.1401
      3 C           2.3790    0.0830    0.0000 C.ar    1  LIG1        0.0628
      4 C           2.7920   -0.8170    0.0000 C.ar    1  LIG1        0.1628
      5 C           2.0460   -1.4960    0.0000 C.ar    1  LIG1        0.0987
      6 C           2.4750   -2.4000    0.0000 C.ar    1  LIG1        0.0609
      7 C           3.4630   -2.2750    0.0000 C.ar    1  LIG1        0.1812
      8 O           3.6580   -1.3080    0.0000 O.2     1  LIG1       -0.4488
      9 C           0.7080    0.7170    0.0000 C.2     1  LIG1        0.3575
     10 O          -0.2630    0.5000    0.0000 O.2     1  LIG1       -0.2433
     11 O           1.0290    1.6670    0.0000 O.3     1  LIG1       -0.4403
     12 C           0.3580    2.4040    0.0000 C.3     1  LIG1        0.2560
     13 C           0.3080   -1.5130    0.0000 C.3     1  LIG1        0.2127
     14 C          -0.5750   -1.0210    0.0000 C.ar    1  LIG1        0.3161
     15 N          -0.6750   -0.0330    0.0000 N.ar    1  LIG1        0.0946
     16 C          -1.6580    0.1670    0.0000 C.ar    1  LIG1        0.3688
     17 N          -2.1630   -0.6830    0.0000 N.ar    1  LIG1       -0.2406
     18 C          -1.4920   -1.4290    0.0000 C.ar    1  LIG1        0.1591
     19 C          -3.1630   -0.6830    0.0000 C.ar    1  LIG1        0.0859
     20 C          -3.6630    0.1670    0.0000 C.ar    1  LIG1        0.0194
     21 C          -3.1630    1.0460    0.0000 C.ar    1  LIG1        0.0096
     22 C          -2.1630    1.0460    0.0000 C.ar    1  LIG1        0.0965
@<TRIPOS>BOND
     1     1     2   ar
     2     1     5   ar
     3     1    13    1
     4     2     3   ar
     5     2     9    1
     6     3     4   ar
     7     4     5   ar
     8     4     8   ar
     9     5     6   ar
    10     6     7   ar
    11     7     8   ar
    12     9    10    2
    13     9    11    1
    14    11    12    1
    15    13    14    1
    16    14    15   ar
    17    14    18   ar
    18    15    16   ar
    19    16    17   ar
    20    16    22   ar
    21    17    18   ar
    22    17    19   ar
    23    19    20   ar
    24    20    21   ar
    25    21    22   ar
