@<TRIPOS>MOLECULE
38107_ChemDiv_C781-0043
 25 28 0 0 0
SMALL
GASTEIGER
Energy = 0

@<TRIPOS>ATOM
      1 C          -2.6750   -0.7920    0.0000 C.ar    1  LIG1        0.1904
      2 N          -3.2500   -1.5880    0.0000 N.ar    1  LIG1       -0.2181
      3 C          -4.2170   -1.2830    0.0000 C.ar    1  LIG1        0.1202
      4 C          -4.2170   -0.2790    0.0000 C.ar    1  LIG1        0.1042
      5 N          -3.2500    0.0210    0.0000 N.ar    1  LIG1       -0.2196
      6 C          -5.0710    0.2250    0.0000 C.ar    1  LIG1        0.0414
      7 C          -5.9460   -0.2790    0.0000 C.ar    1  LIG1        0.1005
      8 N          -5.9460   -1.2830    0.0000 N.ar    1  LIG1       -0.2406
      9 C          -5.0710   -1.7880    0.0000 C.ar    1  LIG1        0.1195
     10 S          -1.6830   -0.8040    0.0000 S.3     1  LIG1       -0.0709
     11 C          -1.1670    0.0710    0.0000 C.3     1  LIG1        0.0913
     12 C          -0.1750    0.0540    0.0000 C.ar    1  LIG1       -0.0109
     13 C           0.3420   -0.8040    0.0000 C.ar    1  LIG1       -0.0033
     14 C           1.3380   -0.8040    0.0000 C.ar    1  LIG1        0.0043
     15 C           1.8500    0.0420    0.0000 C.ar    1  LIG1        0.0550
     16 C           2.8460    0.0420    0.0000 C.2     1  LIG1        0.2647
     17 N           3.3580    0.9170    0.0000 N.am    1  LIG1       -0.2034
     18 C           4.3540    0.9170    0.0000 C.3     1  LIG1        0.0956
     19 C           5.0380    0.1750    0.0000 C.3     1  LIG1        0.0217
     20 C           5.9420    0.5830    0.0000 C.3     1  LIG1        0.0018
     21 C           5.8290    1.5630    0.0000 C.3     1  LIG1        0.0018
     22 C           4.8670    1.7920    0.0000 C.3     1  LIG1        0.0217
     23 O           3.3580   -0.8040    0.0000 O.2     1  LIG1       -0.2684
     24 C           1.3380    0.9170    0.0000 C.ar    1  LIG1        0.0043
     25 C           0.3420    0.9170    0.0000 C.ar    1  LIG1       -0.0033
@<TRIPOS>BOND
     1     1     2   ar
     2     1     5   ar
     3     1    10    1
     4     2     3   ar
     5     3     4   ar
     6     3     9   ar
     7     4     5   ar
     8     4     6   ar
     9     6     7   ar
    10     7     8   ar
    11     8     9   ar
    12    10    11    1
    13    11    12    1
    14    12    13   ar
    15    12    25   ar
    16    13    14   ar
    17    14    15   ar
    18    15    16    1
    19    15    24   ar
    20    16    17   am
    21    16    23    2
    22    17    18    1
    23    18    19    1
    24    18    22    1
    25    19    20    1
    26    20    21    1
    27    21    22    1
    28    24    25   ar
