@<TRIPOS>MOLECULE
38105_ChemDiv_C781-0006
 31 34 0 0 0
SMALL
GASTEIGER
Energy = 0

@<TRIPOS>ATOM
      1 C          -3.6330   -0.8040    0.0000 C.ar    1  LIG1        0.1904
      2 N          -4.2040   -1.5960    0.0000 N.ar    1  LIG1       -0.2181
      3 C          -5.1670   -1.2960    0.0000 C.ar    1  LIG1        0.1202
      4 C          -5.1670   -0.2920    0.0000 C.ar    1  LIG1        0.1042
      5 N          -4.2040    0.0080    0.0000 N.ar    1  LIG1       -0.2196
      6 C          -6.0170    0.2080    0.0000 C.ar    1  LIG1        0.0414
      7 C          -6.8880   -0.2920    0.0000 C.ar    1  LIG1        0.1005
      8 N          -6.8880   -1.2960    0.0000 N.ar    1  LIG1       -0.2406
      9 C          -6.0170   -1.7960    0.0000 C.ar    1  LIG1        0.1195
     10 S          -2.6420   -0.8170    0.0000 S.3     1  LIG1       -0.0709
     11 C          -2.1330    0.0580    0.0000 C.3     1  LIG1        0.0913
     12 C          -1.1380    0.0380    0.0000 C.ar    1  LIG1       -0.0109
     13 C          -0.6290   -0.8170    0.0000 C.ar    1  LIG1       -0.0033
     14 C           0.3630   -0.8170    0.0000 C.ar    1  LIG1        0.0043
     15 C           0.8750    0.0580    0.0000 C.ar    1  LIG1        0.0550
     16 C           1.8670    0.0580    0.0000 C.2     1  LIG1        0.2647
     17 N           2.3790    0.9290    0.0000 N.am    1  LIG1       -0.2033
     18 C           3.3710    0.9290    0.0000 C.3     1  LIG1        0.0990
     19 C           3.8790    1.8000    0.0000 C.3     1  LIG1        0.0433
     20 C           4.8710    1.7710    0.0000 C.3     1  LIG1        0.0985
     21 N           5.3830    0.9080    0.0000 N.am    1  LIG1       -0.2459
     22 C           6.3750    0.9080    0.0000 C.2     1  LIG1        0.4049
     23 O           6.8880    1.8000    0.0000 O.2     1  LIG1       -0.2262
     24 O           6.8880    0.0580    0.0000 O.3     1  LIG1       -0.4345
     25 C           6.3750   -0.8170    0.0000 C.3     1  LIG1        0.2102
     26 C           6.8880   -1.6880    0.0000 C.3     1  LIG1        0.0513
     27 C           4.8710    0.0580    0.0000 C.3     1  LIG1        0.0985
     28 C           3.8790    0.0580    0.0000 C.3     1  LIG1        0.0433
     29 O           2.3790   -0.8170    0.0000 O.2     1  LIG1       -0.2684
     30 C           0.3630    0.9080    0.0000 C.ar    1  LIG1        0.0043
     31 C          -0.6290    0.9080    0.0000 C.ar    1  LIG1       -0.0033
@<TRIPOS>BOND
     1     1     2   ar
     2     1     5   ar
     3     1    10    1
     4     2     3   ar
     5     3     4   ar
     6     3     9   ar
     7     4     5   ar
     8     4     6   ar
     9     6     7   ar
    10     7     8   ar
    11     8     9   ar
    12    10    11    1
    13    11    12    1
    14    12    13   ar
    15    12    31   ar
    16    13    14   ar
    17    14    15   ar
    18    15    16    1
    19    15    30   ar
    20    16    17   am
    21    16    29    2
    22    17    18    1
    23    18    19    1
    24    18    28    1
    25    19    20    1
    26    20    21    1
    27    21    22   am
    28    21    27    1
    29    22    23    2
    30    22    24    1
    31    24    25    1
    32    25    26    1
    33    27    28    1
    34    30    31   ar
