@<TRIPOS>MOLECULE
38111_ChemDiv_C781-0088
 28 31 0 0 0
SMALL
GASTEIGER
Energy = 0

@<TRIPOS>ATOM
      1 C          -3.6330   -1.2250    0.0000 C.ar    1  LIG1        0.1904
      2 N          -4.2040   -2.0170    0.0000 N.ar    1  LIG1       -0.2181
      3 C          -5.1670   -1.7170    0.0000 C.ar    1  LIG1        0.1202
      4 C          -5.1670   -0.7170    0.0000 C.ar    1  LIG1        0.1042
      5 N          -4.2040   -0.4130    0.0000 N.ar    1  LIG1       -0.2196
      6 C          -6.0170   -0.2130    0.0000 C.ar    1  LIG1        0.0414
      7 C          -6.8880   -0.7170    0.0000 C.ar    1  LIG1        0.1005
      8 N          -6.8880   -1.7170    0.0000 N.ar    1  LIG1       -0.2406
      9 C          -6.0170   -2.2170    0.0000 C.ar    1  LIG1        0.1195
     10 S          -2.6420   -1.2380    0.0000 S.3     1  LIG1       -0.0709
     11 C          -2.1330   -0.3630    0.0000 C.3     1  LIG1        0.0913
     12 C          -1.1380   -0.3830    0.0000 C.ar    1  LIG1       -0.0109
     13 C          -0.6290    0.4880    0.0000 C.ar    1  LIG1       -0.0033
     14 C           0.3630    0.4880    0.0000 C.ar    1  LIG1        0.0043
     15 C           0.8750   -0.3630    0.0000 C.ar    1  LIG1        0.0550
     16 C           1.8670   -0.3630    0.0000 C.2     1  LIG1        0.2648
     17 O           2.3790   -1.2380    0.0000 O.2     1  LIG1       -0.2684
     18 N           2.3790    0.5080    0.0000 N.am    1  LIG1       -0.2013
     19 C           3.3710    0.5080    0.0000 C.3     1  LIG1        0.1201
     20 C           3.8830    1.3790    0.0000 C.3     1  LIG1        0.0498
     21 C           4.8750    1.3500    0.0000 C.ar    1  LIG1       -0.0204
     22 C           5.3830    0.4790    0.0000 C.ar    1  LIG1       -0.0042
     23 C           6.3750    0.4790    0.0000 C.ar    1  LIG1       -0.0003
     24 C           6.8880    1.3500    0.0000 C.ar    1  LIG1       -0.0000
     25 C           6.3750    2.2210    0.0000 C.ar    1  LIG1       -0.0003
     26 C           5.3830    2.2210    0.0000 C.ar    1  LIG1       -0.0042
     27 C           0.3630   -1.2380    0.0000 C.ar    1  LIG1        0.0043
     28 C          -0.6290   -1.2380    0.0000 C.ar    1  LIG1       -0.0033
@<TRIPOS>BOND
     1     1     2   ar
     2     1     5   ar
     3     1    10    1
     4     2     3   ar
     5     3     4   ar
     6     3     9   ar
     7     4     5   ar
     8     4     6   ar
     9     6     7   ar
    10     7     8   ar
    11     8     9   ar
    12    10    11    1
    13    11    12    1
    14    12    13   ar
    15    12    28   ar
    16    13    14   ar
    17    14    15   ar
    18    15    16    1
    19    15    27   ar
    20    16    17    2
    21    16    18   am
    22    18    19    1
    23    19    20    1
    24    20    21    1
    25    21    22   ar
    26    21    26   ar
    27    22    23   ar
    28    23    24   ar
    29    24    25   ar
    30    25    26   ar
    31    27    28   ar
