@<TRIPOS>MOLECULE
38114_ChemDiv_C798-0438
 27 30 0 0 0
SMALL
GASTEIGER
Energy = 0

@<TRIPOS>ATOM
      1 N           0.2380    3.6500    0.0000 N.ar    1  LIG1       -0.3138
      2 C           0.8130    4.4670    0.0000 C.ar    1  LIG1        0.0411
      3 C           0.2380    5.2630    0.0000 C.ar    1  LIG1        0.0099
      4 C          -0.7290    4.9580    0.0000 C.ar    1  LIG1       -0.0091
      5 C          -0.7290    3.9710    0.0000 C.ar    1  LIG1        0.0371
      6 C          -1.5920    3.4630    0.0000 C.3     1  LIG1        0.0438
      7 C          -2.4540    3.9710    0.0000 C.3     1  LIG1        0.0066
      8 C          -2.4540    4.9580    0.0000 C.3     1  LIG1        0.0051
      9 C          -1.5920    5.4580    0.0000 C.3     1  LIG1        0.0275
     10 C           1.8210    4.4670    0.0000 C.3     1  LIG1        0.0503
     11 C           0.5460    2.7080    0.0000 C.ar    1  LIG1        0.0634
     12 C           1.5130    2.5000    0.0000 C.ar    1  LIG1        0.0176
     13 C           1.8330    1.5580    0.0000 C.ar    1  LIG1        0.0061
     14 C           1.1630    0.8000    0.0000 C.ar    1  LIG1        0.0551
     15 C           1.4710   -0.1460    0.0000 C.2     1  LIG1        0.2648
     16 O           2.4500   -0.3580    0.0000 O.2     1  LIG1       -0.2684
     17 N           0.8000   -0.8960    0.0000 N.am    1  LIG1       -0.2013
     18 C           1.1210   -1.8580    0.0000 C.3     1  LIG1        0.1198
     19 C           0.4710   -2.6080    0.0000 C.3     1  LIG1        0.0451
     20 C           0.7830   -3.5330    0.0000 C.2     1  LIG1       -0.0467
     21 C           0.1170   -4.3040    0.0000 C.2     1  LIG1       -0.0346
     22 C           0.4380   -5.2460    0.0000 C.3     1  LIG1        0.0254
     23 C           1.4250   -5.4580    0.0000 C.3     1  LIG1        0.0050
     24 C           2.0630   -4.6960    0.0000 C.3     1  LIG1        0.0047
     25 C           1.7500   -3.7420    0.0000 C.3     1  LIG1        0.0218
     26 C           0.1750    1.0130    0.0000 C.ar    1  LIG1        0.0061
     27 C          -0.1330    1.9630    0.0000 C.ar    1  LIG1        0.0176
@<TRIPOS>BOND
     1     1     2   ar
     2     1     5   ar
     3     1    11    1
     4     2     3   ar
     5     2    10    1
     6     3     4   ar
     7     4     5   ar
     8     4     9    1
     9     5     6    1
    10     6     7    1
    11     7     8    1
    12     8     9    1
    13    11    12   ar
    14    11    27   ar
    15    12    13   ar
    16    13    14   ar
    17    14    15    1
    18    14    26   ar
    19    15    16    2
    20    15    17   am
    21    17    18    1
    22    18    19    1
    23    19    20    1
    24    20    21    2
    25    20    25    1
    26    21    22    1
    27    22    23    1
    28    23    24    1
    29    24    25    1
    30    26    27   ar
