@<TRIPOS>MOLECULE
38116_ChemDiv_E644-0110
 27 30 0 0 0
SMALL
GASTEIGER
Energy = 0

@<TRIPOS>ATOM
      1 N           0.2290    3.1210    0.0000 N.ar    1  LIG1       -0.3138
      2 C           0.8130    3.9330    0.0000 C.ar    1  LIG1        0.0411
      3 C           0.2290    4.7420    0.0000 C.ar    1  LIG1        0.0099
      4 C          -0.7250    4.4330    0.0000 C.ar    1  LIG1       -0.0091
      5 C          -0.7250    3.4330    0.0000 C.ar    1  LIG1        0.0371
      6 C          -1.5920    2.9330    0.0000 C.3     1  LIG1        0.0438
      7 C          -2.4500    3.4330    0.0000 C.3     1  LIG1        0.0066
      8 C          -2.4500    4.4330    0.0000 C.3     1  LIG1        0.0051
      9 C          -1.5920    4.9330    0.0000 C.3     1  LIG1        0.0275
     10 C           1.8170    3.9330    0.0000 C.3     1  LIG1        0.0503
     11 C           0.5420    2.1750    0.0000 C.ar    1  LIG1        0.0634
     12 C          -0.1330    1.4290    0.0000 C.ar    1  LIG1        0.0176
     13 C           0.1750    0.4790    0.0000 C.ar    1  LIG1        0.0061
     14 C           1.1580    0.2670    0.0000 C.ar    1  LIG1        0.0551
     15 C           1.4670   -0.6830    0.0000 C.2     1  LIG1        0.2650
     16 N           0.7960   -1.4250    0.0000 N.am    1  LIG1       -0.1955
     17 C           1.0880   -2.3040    0.0000 C.3     1  LIG1        0.1717
     18 C           0.4630   -3.0000    0.0000 C.3     1  LIG1        0.1092
     19 N           0.7540   -3.8710    0.0000 N.4     1  LIG1        0.3743
     20 C           0.1460   -4.5540    0.0000 C.3     1  LIG1        0.1385
     21 C          -0.7670   -4.3670    0.0000 C.3     1  LIG1        0.0687
     22 C          -0.4330   -2.8040    0.0000 C.3     1  LIG1        0.0647
     23 C           1.6500   -4.0540    0.0000 C.3     1  LIG1        0.1385
     24 C           1.9460   -4.9330    0.0000 C.3     1  LIG1        0.0688
     25 O           2.4460   -0.8960    0.0000 O.2     1  LIG1       -0.2684
     26 C           1.8290    1.0210    0.0000 C.ar    1  LIG1        0.0061
     27 C           1.5130    1.9670    0.0000 C.ar    1  LIG1        0.0176
@<TRIPOS>BOND
     1     1     2   ar
     2     1     5   ar
     3     1    11    1
     4     2     3   ar
     5     2    10    1
     6     3     4   ar
     7     4     5   ar
     8     4     9    1
     9     5     6    1
    10     6     7    1
    11     7     8    1
    12     8     9    1
    13    11    12   ar
    14    11    27   ar
    15    12    13   ar
    16    13    14   ar
    17    14    15    1
    18    14    26   ar
    19    15    16   am
    20    15    25    2
    21    16    17    1
    22    17    18    1
    23    18    19    1
    24    18    22    1
    25    19    20    1
    26    19    23    1
    27    20    21    1
    28    21    22    1
    29    23    24    1
    30    26    27   ar
