@<TRIPOS>MOLECULE
38110_ChemDiv_K788-3444
 25 27 0 0 0
SMALL
GASTEIGER
Energy = 0

@<TRIPOS>ATOM
      1 N          -1.3040    0.4960    0.0000 N.am    1  LIG1       -0.1716
      2 N          -0.4420    0.9960    0.0000 N.2     1  LIG1       -0.1797
      3 C          -0.4420    1.9960    0.0000 C.2     1  LIG1        0.0770
      4 C           0.4250    2.4960    0.0000 C.ar    1  LIG1        0.0151
      5 C           0.4250    3.4960    0.0000 C.ar    1  LIG1        0.0021
      6 C           1.2880    3.9920    0.0000 C.ar    1  LIG1        0.0114
      7 C           2.1670    3.4920    0.0000 C.ar    1  LIG1        0.0577
      8 C           2.1630    2.4880    0.0000 C.ar    1  LIG1        0.0114
      9 C           1.2880    1.9920    0.0000 C.ar    1  LIG1        0.0021
     10 CL          3.0330    3.9880    0.0000 Cl      1  LIG1       -0.0822
     11 C          -1.3040    2.5000    0.0000 C.3     1  LIG1        0.0570
     12 C          -2.1670    1.9960    0.0000 C.3     1  LIG1        0.0934
     13 C          -2.1670    0.9960    0.0000 C.2     1  LIG1        0.2451
     14 O          -3.0380    0.4960    0.0000 O.2     1  LIG1       -0.2731
     15 C          -1.3040   -0.5040    0.0000 C.3     1  LIG1        0.2041
     16 C          -0.4330   -0.9960    0.0000 C.2     1  LIG1        0.2518
     17 N          -0.4250   -1.9920    0.0000 N.am    1  LIG1       -0.2554
     18 C           0.4420   -2.4880    0.0000 C.ar    1  LIG1        0.0539
     19 C           1.2960   -1.9920    0.0000 C.ar    1  LIG1        0.0149
     20 C           2.1630   -2.4880    0.0000 C.ar    1  LIG1        0.0013
     21 C           2.1670   -3.4880    0.0000 C.ar    1  LIG1        0.0001
     22 C           1.3000   -3.9880    0.0000 C.ar    1  LIG1        0.0013
     23 C           0.4380   -3.4880    0.0000 C.ar    1  LIG1        0.0149
     24 C          -1.2920   -2.4920    0.0000 C.3     1  LIG1        0.1201
     25 O           0.4250   -0.4920    0.0000 O.2     1  LIG1       -0.2726
@<TRIPOS>BOND
     1     1     2    1
     2     1    13   am
     3     1    15    1
     4     2     3    2
     5     3     4    1
     6     3    11    1
     7     4     5   ar
     8     4     9   ar
     9     5     6   ar
    10     6     7   ar
    11     7     8   ar
    12     7    10    1
    13     8     9   ar
    14    11    12    1
    15    12    13    1
    16    13    14    2
    17    15    16    1
    18    16    17   am
    19    16    25    2
    20    17    18    1
    21    17    24    1
    22    18    19   ar
    23    18    23   ar
    24    19    20   ar
    25    20    21   ar
    26    21    22   ar
    27    22    23   ar
