@<TRIPOS>MOLECULE
38118_ChemDiv_C799-0321
 15 16 0 0 0
SMALL
GASTEIGER
Energy = 0

@<TRIPOS>ATOM
      1 N           0.1330   -0.0040    0.0000 N.ar    1  LIG1       -0.2388
      2 C           0.7960    0.7380    0.0000 C.ar    1  LIG1        0.1567
      3 C           0.3000    1.6130    0.0000 C.ar    1  LIG1        0.0272
      4 C          -0.6790    1.4000    0.0000 C.ar    1  LIG1        0.0209
      5 C          -0.7880    0.4000    0.0000 C.ar    1  LIG1        0.0815
      6 C          -1.6500   -0.1000    0.0000 C.ar    1  LIG1        0.0177
      7 C          -1.6500   -1.1080    0.0000 C.ar    1  LIG1        0.0015
      8 C          -2.5130   -1.6080    0.0000 C.ar    1  LIG1        0.0000
      9 C          -3.3750   -1.1080    0.0000 C.ar    1  LIG1        0.0000
     10 C          -3.3750   -0.1080    0.0000 C.ar    1  LIG1        0.0000
     11 C          -2.5130    0.4000    0.0000 C.ar    1  LIG1        0.0015
     12 C           1.7960    0.6420    0.0000 C.2     1  LIG1        0.3592
     13 O           2.2040   -0.2670    0.0000 O.2     1  LIG1       -0.2432
     14 O           2.3750    1.4500    0.0000 O.3     1  LIG1       -0.4403
     15 C           3.3710    1.3540    0.0000 C.3     1  LIG1        0.2560
@<TRIPOS>BOND
     1     1     2   ar
     2     1     5   ar
     3     2     3   ar
     4     2    12    1
     5     3     4   ar
     6     4     5   ar
     7     5     6    1
     8     6     7   ar
     9     6    11   ar
    10     7     8   ar
    11     8     9   ar
    12     9    10   ar
    13    10    11   ar
    14    12    13    2
    15    12    14    1
    16    14    15    1
