@<TRIPOS>MOLECULE
38112_ChemDiv_K788-3450
 26 28 0 0 0
SMALL
GASTEIGER
Energy = 0

@<TRIPOS>ATOM
      1 N          -1.3040    0.4960    0.0000 N.am    1  LIG1       -0.1716
      2 N          -0.4380    0.9920    0.0000 N.2     1  LIG1       -0.1797
      3 C          -0.4380    1.9960    0.0000 C.2     1  LIG1        0.0770
      4 C          -1.3040    2.5000    0.0000 C.3     1  LIG1        0.0570
      5 C          -2.1670    1.9960    0.0000 C.3     1  LIG1        0.0934
      6 C          -2.1670    0.9920    0.0000 C.2     1  LIG1        0.2451
      7 O          -3.0380    0.4960    0.0000 O.2     1  LIG1       -0.2731
      8 C           0.4290    2.4960    0.0000 C.ar    1  LIG1        0.0151
      9 C           1.2920    1.9920    0.0000 C.ar    1  LIG1        0.0012
     10 C           2.1630    2.4880    0.0000 C.ar    1  LIG1        0.0000
     11 C           2.1670    3.4920    0.0000 C.ar    1  LIG1        0.0000
     12 C           1.2920    3.9960    0.0000 C.ar    1  LIG1        0.0000
     13 C           0.4290    3.4960    0.0000 C.ar    1  LIG1        0.0012
     14 C          -1.3040   -0.5080    0.0000 C.3     1  LIG1        0.2041
     15 C          -0.4330   -0.9960    0.0000 C.2     1  LIG1        0.2517
     16 N          -0.4250   -1.9920    0.0000 N.am    1  LIG1       -0.2572
     17 C           0.4420   -2.4880    0.0000 C.ar    1  LIG1        0.0535
     18 C           1.2960   -1.9920    0.0000 C.ar    1  LIG1        0.0106
     19 C           2.1630   -2.4880    0.0000 C.ar    1  LIG1       -0.0206
     20 C           2.1670   -3.4920    0.0000 C.ar    1  LIG1       -0.0042
     21 C           1.3040   -3.9920    0.0000 C.ar    1  LIG1        0.0010
     22 C           0.4380   -3.4920    0.0000 C.ar    1  LIG1        0.0149
     23 C           3.0330   -1.9830    0.0000 C.3     1  LIG1        0.0311
     24 C          -1.2880   -2.4960    0.0000 C.3     1  LIG1        0.0983
     25 C          -1.2880   -3.4920    0.0000 C.3     1  LIG1        0.0237
     26 O           0.4290   -0.4920    0.0000 O.2     1  LIG1       -0.2726
@<TRIPOS>BOND
     1     1     2    1
     2     1     6   am
     3     1    14    1
     4     2     3    2
     5     3     4    1
     6     3     8    1
     7     4     5    1
     8     5     6    1
     9     6     7    2
    10     8     9   ar
    11     8    13   ar
    12     9    10   ar
    13    10    11   ar
    14    11    12   ar
    15    12    13   ar
    16    14    15    1
    17    15    16   am
    18    15    26    2
    19    16    17    1
    20    16    24    1
    21    17    18   ar
    22    17    22   ar
    23    18    19   ar
    24    19    20   ar
    25    19    23    1
    26    20    21   ar
    27    21    22   ar
    28    24    25    1
