@<TRIPOS>MOLECULE
38122_ChemDiv_C800-0082
 29 32 0 0 0
SMALL
GASTEIGER
Energy = 0

@<TRIPOS>ATOM
      1 C          -0.3420    1.4880    0.0000 C.ar    1  LIG1        0.1200
      2 N          -0.8880    0.6630    0.0000 N.ar    1  LIG1       -0.3192
      3 C          -1.8500    0.9250    0.0000 C.ar    1  LIG1        0.0603
      4 C          -1.8920    1.9130    0.0000 C.ar    1  LIG1        0.0189
      5 C          -0.9630    2.2710    0.0000 C.ar    1  LIG1        0.0428
      6 C          -0.6000    3.1960    0.0000 C.ar    1  LIG1        0.1218
      7 N           0.3960    3.3460    0.0000 N.ar    1  LIG1       -0.1646
      8 N           1.0250    2.5750    0.0000 N.ar    1  LIG1       -0.2038
      9 C           0.6540    1.6380    0.0000 C.ar    1  LIG1        0.2927
     10 O           1.2830    0.8580    0.0000 O.2     1  LIG1       -0.2639
     11 C           2.0080    2.7250    0.0000 C.3     1  LIG1        0.2395
     12 C           2.6330    1.9380    0.0000 C.2     1  LIG1        0.3424
     13 O           3.6290    2.0880    0.0000 O.2     1  LIG1       -0.2479
     14 O           2.2790    1.0130    0.0000 O.3     1  LIG1       -0.4430
     15 C           2.9040    0.2210    0.0000 C.3     1  LIG1        0.2557
     16 C          -2.7830    2.3750    0.0000 C.ar    1  LIG1        0.0015
     17 C          -3.6330    1.8330    0.0000 C.ar    1  LIG1        0.0001
     18 C          -3.5880    0.8580    0.0000 C.ar    1  LIG1        0.0015
     19 C          -2.6920    0.3880    0.0000 C.ar    1  LIG1        0.0172
     20 C          -0.5420   -0.2880    0.0000 C.3     1  LIG1        0.1322
     21 C          -1.1920   -1.0540    0.0000 C.ar    1  LIG1       -0.0075
     22 C          -0.8460   -1.9920    0.0000 C.ar    1  LIG1       -0.0246
     23 C          -1.4960   -2.7500    0.0000 C.ar    1  LIG1       -0.0088
     24 C          -2.4790   -2.5790    0.0000 C.ar    1  LIG1       -0.0225
     25 C          -2.8130   -1.6380    0.0000 C.ar    1  LIG1       -0.0088
     26 C          -2.1670   -0.8710    0.0000 C.ar    1  LIG1       -0.0246
     27 C          -2.5080    0.0710    0.0000 C.3     1  LIG1        0.0307
     28 C          -3.1210   -3.3420    0.0000 C.3     1  LIG1        0.0310
     29 C           0.1380   -2.1750    0.0000 C.3     1  LIG1        0.0307
@<TRIPOS>BOND
     1     1     2   ar
     2     1     5   ar
     3     1     9   ar
     4     2     3   ar
     5     2    20    1
     6     3     4   ar
     7     3    19   ar
     8     4     5   ar
     9     4    16   ar
    10     5     6   ar
    11     6     7   ar
    12     7     8   ar
    13     8     9   ar
    14     8    11    1
    15     9    10    2
    16    11    12    1
    17    12    13    2
    18    12    14    1
    19    14    15    1
    20    16    17   ar
    21    17    18   ar
    22    18    19   ar
    23    20    21    1
    24    21    22   ar
    25    21    26   ar
    26    22    23   ar
    27    22    29    1
    28    23    24   ar
    29    24    25   ar
    30    24    28    1
    31    25    26   ar
    32    26    27    1
