@<TRIPOS>MOLECULE
38120_ChemDiv_C799-0564
 30 34 0 0 0
SMALL
GASTEIGER
Energy = 0

@<TRIPOS>ATOM
      1 C          -1.9500    0.9710    0.0000 C.ar    1  LIG1        0.1287
      2 C          -2.9500    0.9670    0.0000 C.ar    1  LIG1        0.0503
      3 C          -3.2540    0.0170    0.0000 C.ar    1  LIG1        0.0636
      4 N          -2.4420   -0.5670    0.0000 N.ar    1  LIG1       -0.2336
      5 N          -1.6380    0.0250    0.0000 N.ar    1  LIG1       -0.1632
      6 C          -2.4380   -1.5670    0.0000 C.ar    1  LIG1        0.0824
      7 C          -3.3000   -2.0670    0.0000 C.ar    1  LIG1        0.0191
      8 C          -3.3000   -3.0670    0.0000 C.ar    1  LIG1        0.0015
      9 C          -2.4380   -3.5670    0.0000 C.ar    1  LIG1        0.0001
     10 C          -1.5710   -3.0670    0.0000 C.ar    1  LIG1        0.0015
     11 C          -1.5710   -2.0670    0.0000 C.ar    1  LIG1        0.0191
     12 C          -4.2080   -0.2920    0.0000 C.3     1  LIG1        0.0522
     13 C          -3.4500    1.8290    0.0000 C.ar    1  LIG1        0.0836
     14 N          -2.9500    2.7000    0.0000 N.ar    1  LIG1       -0.1518
     15 N          -1.9500    2.7080    0.0000 N.ar    1  LIG1       -0.1404
     16 C          -1.4500    1.8330    0.0000 C.ar    1  LIG1        0.1480
     17 S          -0.4500    1.8330    0.0000 S.3     1  LIG1       -0.0818
     18 C           0.0500    2.7000    0.0000 C.3     1  LIG1        0.1490
     19 C           1.0500    2.7000    0.0000 C.2     1  LIG1        0.2407
     20 N           1.5540    1.8330    0.0000 N.am    1  LIG1       -0.2579
     21 C           2.5460    1.7380    0.0000 C.ar    1  LIG1        0.0499
     22 C           2.7500    0.7540    0.0000 C.ar    1  LIG1       -0.0068
     23 C           1.8880    0.2540    0.0000 C.3     1  LIG1        0.0495
     24 C           1.1420    0.9210    0.0000 C.3     1  LIG1        0.1029
     25 C           3.7040    0.4500    0.0000 C.ar    1  LIG1       -0.0030
     26 C           4.4500    1.1170    0.0000 C.ar    1  LIG1       -0.0002
     27 C           4.2380    2.0920    0.0000 C.ar    1  LIG1        0.0013
     28 C           3.2790    2.3960    0.0000 C.ar    1  LIG1        0.0146
     29 O           1.5540    3.5710    0.0000 O.2     1  LIG1       -0.2736
     30 C          -4.4540    1.8290    0.0000 C.3     1  LIG1        0.0541
@<TRIPOS>BOND
     1     1     2   ar
     2     1     5   ar
     3     1    16   ar
     4     2     3   ar
     5     2    13   ar
     6     3     4   ar
     7     3    12    1
     8     4     5   ar
     9     4     6    1
    10     6     7   ar
    11     6    11   ar
    12     7     8   ar
    13     8     9   ar
    14     9    10   ar
    15    10    11   ar
    16    13    14   ar
    17    13    30    1
    18    14    15   ar
    19    15    16   ar
    20    16    17    1
    21    17    18    1
    22    18    19    1
    23    19    20   am
    24    19    29    2
    25    20    21    1
    26    20    24    1
    27    21    22   ar
    28    21    28   ar
    29    22    23    1
    30    22    25   ar
    31    23    24    1
    32    25    26   ar
    33    26    27   ar
    34    27    28   ar
