@<TRIPOS>MOLECULE
38129_ChemDiv_C781-0115
 28 31 0 0 0
SMALL
GASTEIGER
Energy = 0

@<TRIPOS>ATOM
      1 C          -2.8830   -1.2420    0.0000 C.ar    1  LIG1        0.1904
      2 N          -3.4540   -2.0330    0.0000 N.ar    1  LIG1       -0.2181
      3 C          -4.4170   -1.7330    0.0000 C.ar    1  LIG1        0.1202
      4 C          -4.4170   -0.7290    0.0000 C.ar    1  LIG1        0.1042
      5 N          -3.4540   -0.4290    0.0000 N.ar    1  LIG1       -0.2196
      6 C          -5.2710   -0.2290    0.0000 C.ar    1  LIG1        0.0414
      7 C          -6.1380   -0.7290    0.0000 C.ar    1  LIG1        0.1005
      8 N          -6.1380   -1.7330    0.0000 N.ar    1  LIG1       -0.2406
      9 C          -5.2710   -2.2330    0.0000 C.ar    1  LIG1        0.1195
     10 S          -1.8920   -1.2500    0.0000 S.3     1  LIG1       -0.0709
     11 C          -1.3790   -0.3790    0.0000 C.3     1  LIG1        0.0913
     12 C          -0.3880   -0.4000    0.0000 C.ar    1  LIG1       -0.0109
     13 C           0.1250   -1.2500    0.0000 C.ar    1  LIG1       -0.0033
     14 C           1.1170   -1.2500    0.0000 C.ar    1  LIG1        0.0043
     15 C           1.6250   -0.3790    0.0000 C.ar    1  LIG1        0.0550
     16 C           2.6210   -0.3790    0.0000 C.2     1  LIG1        0.2647
     17 N           3.1290    0.4920    0.0000 N.am    1  LIG1       -0.2034
     18 C           4.1250    0.4920    0.0000 C.3     1  LIG1        0.0956
     19 C           4.6330    1.3670    0.0000 C.3     1  LIG1        0.0200
     20 C           5.6250    1.3330    0.0000 C.3     1  LIG1        0.0017
     21 C           6.1380    0.4750    0.0000 C.3     1  LIG1        0.0001
     22 C           5.6250   -0.3790    0.0000 C.3     1  LIG1        0.0018
     23 C           4.6330   -0.3790    0.0000 C.3     1  LIG1        0.0217
     24 C           6.1380    2.2080    0.0000 C.3     1  LIG1        0.0001
     25 C           4.1250    2.2380    0.0000 C.3     1  LIG1        0.0018
     26 O           3.1290   -1.2500    0.0000 O.2     1  LIG1       -0.2684
     27 C           1.1170    0.4750    0.0000 C.ar    1  LIG1        0.0043
     28 C           0.1250    0.4750    0.0000 C.ar    1  LIG1       -0.0033
@<TRIPOS>BOND
     1     1     2   ar
     2     1     5   ar
     3     1    10    1
     4     2     3   ar
     5     3     4   ar
     6     3     9   ar
     7     4     5   ar
     8     4     6   ar
     9     6     7   ar
    10     7     8   ar
    11     8     9   ar
    12    10    11    1
    13    11    12    1
    14    12    13   ar
    15    12    28   ar
    16    13    14   ar
    17    14    15   ar
    18    15    16    1
    19    15    27   ar
    20    16    17   am
    21    16    26    2
    22    17    18    1
    23    18    19    1
    24    18    23    1
    25    19    20    1
    26    19    25    1
    27    20    21    1
    28    20    24    1
    29    21    22    1
    30    22    23    1
    31    27    28   ar
