@<TRIPOS>MOLECULE
38121_ChemDiv_C712-0078
 28 32 0 0 0
SMALL
GASTEIGER
Energy = 0

@<TRIPOS>ATOM
      1 C           2.5460   -0.4080    0.0000 C.ar    1  LIG1        0.0317
      2 S           2.3420    0.5710    0.0000 S.2     1  LIG1       -0.0825
      3 C           1.3460    0.6750    0.0000 C.ar    1  LIG1        0.0828
      4 C           0.8460    1.5380    0.0000 C.2     1  LIG1        0.2551
      5 N          -0.1540    1.5380    0.0000 N.am    1  LIG1       -0.2722
      6 C          -0.6540    2.4080    0.0000 C.3     1  LIG1        0.1152
      7 C          -1.6500    2.4080    0.0000 C.3     1  LIG1        0.1137
      8 N          -2.1500    1.5380    0.0000 N.pl3   1  LIG1       -0.2897
      9 C          -3.1540    1.5380    0.0000 C.ar    1  LIG1        0.1318
     10 N          -3.6540    0.6750    0.0000 N.ar    1  LIG1       -0.2292
     11 C          -4.6500    0.6750    0.0000 C.ar    1  LIG1        0.1003
     12 C          -5.1500    1.5380    0.0000 C.ar    1  LIG1        0.0208
     13 C          -4.6500    2.4080    0.0000 C.ar    1  LIG1        0.0045
     14 C          -3.6540    2.4080    0.0000 C.ar    1  LIG1        0.0343
     15 C          -1.6500    0.6750    0.0000 C.3     1  LIG1        0.1137
     16 C          -0.6540    0.6750    0.0000 C.3     1  LIG1        0.1152
     17 O           1.3460    2.4080    0.0000 O.2     1  LIG1       -0.2694
     18 C           0.9380   -0.2380    0.0000 C.ar    1  LIG1        0.0108
     19 C           1.6790   -0.9040    0.0000 C.ar    1  LIG1        0.0279
     20 C           1.6790   -1.9040    0.0000 C.3     1  LIG1        0.2325
     21 O           2.5460   -2.4040    0.0000 O.3     1  LIG1       -0.4706
     22 C           3.4130   -1.9040    0.0000 C.ar    1  LIG1        0.1391
     23 C           3.4130   -0.9040    0.0000 C.ar    1  LIG1        0.0358
     24 C           4.2750   -0.4080    0.0000 C.ar    1  LIG1       -0.0185
     25 C           5.1460   -0.9040    0.0000 C.ar    1  LIG1       -0.0040
     26 C           5.1460   -1.9040    0.0000 C.ar    1  LIG1        0.0028
     27 C           4.2750   -2.4040    0.0000 C.ar    1  LIG1        0.0369
     28 C           4.2750    0.5920    0.0000 C.3     1  LIG1        0.0311
@<TRIPOS>BOND
     1     1     2   ar
     2     1    19   ar
     3     1    23    1
     4     2     3   ar
     5     3     4    1
     6     3    18   ar
     7     4     5   am
     8     4    17    2
     9     5     6    1
    10     5    16    1
    11     6     7    1
    12     7     8    1
    13     8     9    1
    14     8    15    1
    15     9    10   ar
    16     9    14   ar
    17    10    11   ar
    18    11    12   ar
    19    12    13   ar
    20    13    14   ar
    21    15    16    1
    22    18    19   ar
    23    19    20    1
    24    20    21    1
    25    21    22    1
    26    22    23   ar
    27    22    27   ar
    28    23    24   ar
    29    24    25   ar
    30    24    28    1
    31    25    26   ar
    32    26    27   ar
