@<TRIPOS>MOLECULE
38124_ChemDiv_C800-0088
 25 28 0 0 0
SMALL
GASTEIGER
Energy = 0

@<TRIPOS>ATOM
      1 C          -0.2210    0.4380    0.0000 C.ar    1  LIG1        0.1200
      2 C          -0.8420    1.2170    0.0000 C.ar    1  LIG1        0.0428
      3 C          -1.7710    0.8630    0.0000 C.ar    1  LIG1        0.0189
      4 C          -1.7250   -0.1210    0.0000 C.ar    1  LIG1        0.0603
      5 N          -0.7670   -0.3920    0.0000 N.ar    1  LIG1       -0.3191
      6 C          -0.7710   -1.3920    0.0000 C.3     1  LIG1        0.1329
      7 C           0.0960   -1.8920    0.0000 C.ar    1  LIG1        0.0004
      8 C           0.0830   -2.8830    0.0000 C.ar    1  LIG1       -0.0024
      9 C           0.9500   -3.3830    0.0000 C.ar    1  LIG1       -0.0003
     10 C           1.8130   -2.8920    0.0000 C.ar    1  LIG1       -0.0000
     11 C           1.8130   -1.8830    0.0000 C.ar    1  LIG1       -0.0003
     12 C           0.9500   -1.3920    0.0000 C.ar    1  LIG1       -0.0024
     13 C          -2.5710   -0.6540    0.0000 C.ar    1  LIG1        0.0172
     14 C          -3.4670   -0.1830    0.0000 C.ar    1  LIG1        0.0015
     15 C          -3.5130    0.7880    0.0000 C.ar    1  LIG1        0.0001
     16 C          -2.6630    1.3330    0.0000 C.ar    1  LIG1        0.0015
     17 C          -0.4790    2.1540    0.0000 C.ar    1  LIG1        0.1218
     18 N           0.5210    2.3040    0.0000 N.ar    1  LIG1       -0.1648
     19 N           1.1460    1.5210    0.0000 N.ar    1  LIG1       -0.2096
     20 C           0.7750    0.5920    0.0000 C.ar    1  LIG1        0.2926
     21 O           1.4040   -0.1920    0.0000 O.2     1  LIG1       -0.2639
     22 C           2.1460    1.6750    0.0000 C.3     1  LIG1        0.1720
     23 C           2.5130    2.6080    0.0000 C.2     1  LIG1        0.0751
     24 O           1.8880    3.3880    0.0000 O.co2   1  LIG1       -0.5471
     25 O           3.5080    2.7500    0.0000 O.co2   1  LIG1       -0.5471
@<TRIPOS>BOND
     1     1     2   ar
     2     1     5   ar
     3     1    20   ar
     4     2     3   ar
     5     2    17   ar
     6     3     4   ar
     7     3    16   ar
     8     4     5   ar
     9     4    13   ar
    10     5     6    1
    11     6     7    1
    12     7     8   ar
    13     7    12   ar
    14     8     9   ar
    15     9    10   ar
    16    10    11   ar
    17    11    12   ar
    18    13    14   ar
    19    14    15   ar
    20    15    16   ar
    21    17    18   ar
    22    18    19   ar
    23    19    20   ar
    24    19    22    1
    25    20    21    2
    26    22    23    1
    27    23    24   ar
    28    23    25   ar
