@<TRIPOS>MOLECULE
38126_ChemDiv_C880-0581
 33 37 0 0 0
SMALL
GASTEIGER
Energy = 0

@<TRIPOS>ATOM
      1 C          -2.0750   -0.0460    0.0000 C.ar    1  LIG1        0.1200
      2 C          -2.6580    0.7710    0.0000 C.ar    1  LIG1        0.0428
      3 C          -3.6080    0.4670    0.0000 C.ar    1  LIG1        0.0189
      4 C          -3.6080   -0.5330    0.0000 C.ar    1  LIG1        0.0603
      5 N          -2.6580   -0.8330    0.0000 N.ar    1  LIG1       -0.3191
      6 C          -2.3420   -1.8000    0.0000 C.3     1  LIG1        0.1329
      7 C          -1.3580   -2.0130    0.0000 C.ar    1  LIG1        0.0004
      8 C          -0.6920   -1.2670    0.0000 C.ar    1  LIG1       -0.0024
      9 C           0.2710   -1.4790    0.0000 C.ar    1  LIG1       -0.0003
     10 C           0.5880   -2.4170    0.0000 C.ar    1  LIG1       -0.0000
     11 C          -0.0750   -3.1580    0.0000 C.ar    1  LIG1       -0.0003
     12 C          -1.0580   -2.9500    0.0000 C.ar    1  LIG1       -0.0024
     13 C          -4.4630   -1.0330    0.0000 C.ar    1  LIG1        0.0172
     14 C          -5.3420   -0.5330    0.0000 C.ar    1  LIG1        0.0015
     15 C          -5.3420    0.4670    0.0000 C.ar    1  LIG1        0.0001
     16 C          -4.4630    0.9670    0.0000 C.ar    1  LIG1        0.0015
     17 C          -2.2420    1.6830    0.0000 C.ar    1  LIG1        0.1218
     18 N          -1.2420    1.7710    0.0000 N.ar    1  LIG1       -0.1647
     19 N          -0.6580    0.9540    0.0000 N.ar    1  LIG1       -0.2059
     20 C          -1.0750    0.0500    0.0000 C.ar    1  LIG1        0.2927
     21 O          -0.4920   -0.7790    0.0000 O.2     1  LIG1       -0.2639
     22 C           0.3380    1.0380    0.0000 C.3     1  LIG1        0.2153
     23 C           0.7710    1.9380    0.0000 C.2     1  LIG1        0.2506
     24 N           1.7830    2.0170    0.0000 N.am    1  LIG1       -0.2779
     25 C           2.3380    1.2000    0.0000 C.3     1  LIG1        0.0939
     26 C           3.3380    1.2830    0.0000 C.3     1  LIG1        0.0307
     27 C           3.7710    2.1790    0.0000 C.3     1  LIG1        0.0833
     28 C           4.7710    2.2670    0.0000 C.2     1  LIG1        0.2604
     29 O           5.2040    3.1630    0.0000 O.2     1  LIG1       -0.2717
     30 N           5.3380    1.4330    0.0000 N.am    1  LIG1       -0.0878
     31 C           3.2040    2.9960    0.0000 C.3     1  LIG1        0.0307
     32 C           2.2040    2.9290    0.0000 C.3     1  LIG1        0.0939
     33 O           0.2040    2.7630    0.0000 O.2     1  LIG1       -0.2727
@<TRIPOS>BOND
     1     1     2   ar
     2     1     5   ar
     3     1    20   ar
     4     2     3   ar
     5     2    17   ar
     6     3     4   ar
     7     3    16   ar
     8     4     5   ar
     9     4    13   ar
    10     5     6    1
    11     6     7    1
    12     7     8   ar
    13     7    12   ar
    14     8     9   ar
    15     9    10   ar
    16    10    11   ar
    17    11    12   ar
    18    13    14   ar
    19    14    15   ar
    20    15    16   ar
    21    17    18   ar
    22    18    19   ar
    23    19    20   ar
    24    19    22    1
    25    20    21    2
    26    22    23    1
    27    23    24   am
    28    23    33    2
    29    24    25    1
    30    24    32    1
    31    25    26    1
    32    26    27    1
    33    27    28    1
    34    27    31    1
    35    28    29    2
    36    28    30   am
    37    31    32    1
