@<TRIPOS>MOLECULE
38135_ChemDiv_C781-0191
 32 34 0 0 0
SMALL
GASTEIGER
Energy = 0

@<TRIPOS>ATOM
      1 C          -4.1380   -2.0790    0.0000 C.ar    1  LIG1        0.1904
      2 N          -4.7080   -2.8750    0.0000 N.ar    1  LIG1       -0.2181
      3 C          -5.6710   -2.5710    0.0000 C.ar    1  LIG1        0.1202
      4 C          -5.6710   -1.5670    0.0000 C.ar    1  LIG1        0.1042
      5 N          -4.7080   -1.2670    0.0000 N.ar    1  LIG1       -0.2196
      6 C          -6.5210   -1.0670    0.0000 C.ar    1  LIG1        0.0414
      7 C          -7.3960   -1.5670    0.0000 C.ar    1  LIG1        0.1005
      8 N          -7.3960   -2.5710    0.0000 N.ar    1  LIG1       -0.2406
      9 C          -6.5210   -3.0750    0.0000 C.ar    1  LIG1        0.1195
     10 S          -3.1420   -2.0920    0.0000 S.3     1  LIG1       -0.0709
     11 C          -2.6330   -1.2170    0.0000 C.3     1  LIG1        0.0913
     12 C          -1.6380   -1.2380    0.0000 C.ar    1  LIG1       -0.0109
     13 C          -1.1250   -2.0920    0.0000 C.ar    1  LIG1       -0.0033
     14 C          -0.1330   -2.0920    0.0000 C.ar    1  LIG1        0.0043
     15 C           0.3790   -1.2170    0.0000 C.ar    1  LIG1        0.0550
     16 C           1.3710   -1.2170    0.0000 C.2     1  LIG1        0.2648
     17 O           1.8830   -2.0920    0.0000 O.2     1  LIG1       -0.2684
     18 N           1.8830   -0.3460    0.0000 N.am    1  LIG1       -0.2014
     19 C           2.8790   -0.3460    0.0000 C.3     1  LIG1        0.1216
     20 C           3.3920    0.5290    0.0000 C.3     1  LIG1        0.0861
     21 C           4.3830    0.5000    0.0000 C.3     1  LIG1        0.1404
     22 N           4.8960    1.3710    0.0000 N.4     1  LIG1        0.3773
     23 C           4.3830    2.2250    0.0000 C.3     1  LIG1        0.1383
     24 C           3.3920    2.2040    0.0000 C.3     1  LIG1        0.0570
     25 C           2.8790    3.0790    0.0000 C.3     1  LIG1        0.0061
     26 C           2.8790    1.3420    0.0000 C.3     1  LIG1        0.0061
     27 C           5.8880    1.3710    0.0000 C.3     1  LIG1        0.1383
     28 C           6.4000    2.2040    0.0000 C.3     1  LIG1        0.0570
     29 C           7.3960    2.2040    0.0000 C.3     1  LIG1        0.0061
     30 C           5.8880    3.0790    0.0000 C.3     1  LIG1        0.0061
     31 C          -0.1330   -0.3630    0.0000 C.ar    1  LIG1        0.0043
     32 C          -1.1250   -0.3630    0.0000 C.ar    1  LIG1       -0.0033
@<TRIPOS>BOND
     1     1     2   ar
     2     1     5   ar
     3     1    10    1
     4     2     3   ar
     5     3     4   ar
     6     3     9   ar
     7     4     5   ar
     8     4     6   ar
     9     6     7   ar
    10     7     8   ar
    11     8     9   ar
    12    10    11    1
    13    11    12    1
    14    12    13   ar
    15    12    32   ar
    16    13    14   ar
    17    14    15   ar
    18    15    16    1
    19    15    31   ar
    20    16    17    2
    21    16    18   am
    22    18    19    1
    23    19    20    1
    24    20    21    1
    25    21    22    1
    26    22    23    1
    27    22    27    1
    28    23    24    1
    29    24    25    1
    30    24    26    1
    31    27    28    1
    32    28    29    1
    33    28    30    1
    34    31    32   ar
