@<TRIPOS>MOLECULE
38131_ChemDiv_C781-0169
 30 33 0 0 0
SMALL
GASTEIGER
Energy = 0

@<TRIPOS>ATOM
      1 C          -3.7460   -2.2750    0.0000 C.ar    1  LIG1        0.1904
      2 N          -4.3170   -3.0670    0.0000 N.ar    1  LIG1       -0.2181
      3 C          -5.2790   -2.7670    0.0000 C.ar    1  LIG1        0.1202
      4 C          -5.2790   -1.7630    0.0000 C.ar    1  LIG1        0.1042
      5 N          -4.3170   -1.4630    0.0000 N.ar    1  LIG1       -0.2196
      6 C          -6.1290   -1.2630    0.0000 C.ar    1  LIG1        0.0414
      7 C          -7.0000   -1.7630    0.0000 C.ar    1  LIG1        0.1005
      8 N          -7.0000   -2.7670    0.0000 N.ar    1  LIG1       -0.2406
      9 C          -6.1290   -3.2670    0.0000 C.ar    1  LIG1        0.1195
     10 S          -2.7500   -2.2880    0.0000 S.3     1  LIG1       -0.0709
     11 C          -2.2380   -1.4130    0.0000 C.3     1  LIG1        0.0913
     12 C          -1.2460   -1.4330    0.0000 C.ar    1  LIG1       -0.0109
     13 C          -0.7330   -2.2880    0.0000 C.ar    1  LIG1       -0.0033
     14 C           0.2580   -2.2880    0.0000 C.ar    1  LIG1        0.0043
     15 C           0.7710   -1.4130    0.0000 C.ar    1  LIG1        0.0550
     16 C           1.7630   -1.4130    0.0000 C.2     1  LIG1        0.2648
     17 O           2.2750   -2.2880    0.0000 O.2     1  LIG1       -0.2684
     18 N           2.2750   -0.5420    0.0000 N.am    1  LIG1       -0.2014
     19 C           3.2710   -0.5420    0.0000 C.3     1  LIG1        0.1216
     20 C           3.7790    0.3330    0.0000 C.3     1  LIG1        0.0861
     21 C           4.7750    0.3040    0.0000 C.3     1  LIG1        0.1404
     22 N           5.2830    1.1750    0.0000 N.4     1  LIG1        0.3773
     23 C           6.2790    1.0250    0.0000 C.3     1  LIG1        0.1385
     24 C           7.0000    1.7080    0.0000 C.3     1  LIG1        0.0627
     25 C           6.9130    2.6920    0.0000 C.3     1  LIG1        0.0063
     26 C           6.1000    3.2710    0.0000 C.3     1  LIG1        0.0063
     27 C           5.1540    2.9710    0.0000 C.3     1  LIG1        0.0627
     28 C           4.7750    2.0380    0.0000 C.3     1  LIG1        0.1385
     29 C           0.2580   -0.5580    0.0000 C.ar    1  LIG1        0.0043
     30 C          -0.7330   -0.5580    0.0000 C.ar    1  LIG1       -0.0033
@<TRIPOS>BOND
     1     1     2   ar
     2     1     5   ar
     3     1    10    1
     4     2     3   ar
     5     3     4   ar
     6     3     9   ar
     7     4     5   ar
     8     4     6   ar
     9     6     7   ar
    10     7     8   ar
    11     8     9   ar
    12    10    11    1
    13    11    12    1
    14    12    13   ar
    15    12    30   ar
    16    13    14   ar
    17    14    15   ar
    18    15    16    1
    19    15    29   ar
    20    16    17    2
    21    16    18   am
    22    18    19    1
    23    19    20    1
    24    20    21    1
    25    21    22    1
    26    22    23    1
    27    22    28    1
    28    23    24    1
    29    24    25    1
    30    25    26    1
    31    26    27    1
    32    27    28    1
    33    29    30   ar
