@<TRIPOS>MOLECULE
38139_ChemDiv_C781-0248
 26 29 0 0 0
SMALL
GASTEIGER
Energy = 0

@<TRIPOS>ATOM
      1 C          -2.2420   -1.4040    0.0000 C.ar    1  LIG1        0.1904
      2 N          -2.8170   -2.2000    0.0000 N.ar    1  LIG1       -0.2181
      3 C          -3.7790   -1.8960    0.0000 C.ar    1  LIG1        0.1202
      4 C          -3.7790   -0.8920    0.0000 C.ar    1  LIG1        0.1042
      5 N          -2.8170   -0.5920    0.0000 N.ar    1  LIG1       -0.2196
      6 C          -4.6330   -0.3920    0.0000 C.ar    1  LIG1        0.0414
      7 C          -5.5080   -0.8920    0.0000 C.ar    1  LIG1        0.1005
      8 N          -5.5080   -1.8960    0.0000 N.ar    1  LIG1       -0.2406
      9 C          -4.6330   -2.4000    0.0000 C.ar    1  LIG1        0.1195
     10 S          -1.2500   -1.4170    0.0000 S.3     1  LIG1       -0.0709
     11 C          -0.7380   -0.5420    0.0000 C.3     1  LIG1        0.0913
     12 C           0.2580   -0.5630    0.0000 C.ar    1  LIG1       -0.0109
     13 C           0.7710    0.3040    0.0000 C.ar    1  LIG1       -0.0033
     14 C           1.7670    0.3040    0.0000 C.ar    1  LIG1        0.0042
     15 C           2.2790   -0.5710    0.0000 C.ar    1  LIG1        0.0536
     16 C           3.2750   -0.5710    0.0000 C.2     1  LIG1        0.2490
     17 N           3.7880    0.3040    0.0000 N.am    1  LIG1       -0.2761
     18 C           4.7790    0.1540    0.0000 C.3     1  LIG1        0.0937
     19 C           5.5040    0.8460    0.0000 C.3     1  LIG1        0.0215
     20 C           5.4130    1.8420    0.0000 C.3     1  LIG1        0.0018
     21 C           4.6000    2.4040    0.0000 C.3     1  LIG1        0.0018
     22 C           3.6540    2.1130    0.0000 C.3     1  LIG1        0.0215
     23 C           3.2750    1.1790    0.0000 C.3     1  LIG1        0.0937
     24 O           3.7880   -1.4170    0.0000 O.2     1  LIG1       -0.2699
     25 C           1.7670   -1.4170    0.0000 C.ar    1  LIG1        0.0042
     26 C           0.7710   -1.4170    0.0000 C.ar    1  LIG1       -0.0033
@<TRIPOS>BOND
     1     1     2   ar
     2     1     5   ar
     3     1    10    1
     4     2     3   ar
     5     3     4   ar
     6     3     9   ar
     7     4     5   ar
     8     4     6   ar
     9     6     7   ar
    10     7     8   ar
    11     8     9   ar
    12    10    11    1
    13    11    12    1
    14    12    13   ar
    15    12    26   ar
    16    13    14   ar
    17    14    15   ar
    18    15    16    1
    19    15    25   ar
    20    16    17   am
    21    16    24    2
    22    17    18    1
    23    17    23    1
    24    18    19    1
    25    19    20    1
    26    20    21    1
    27    21    22    1
    28    22    23    1
    29    25    26   ar
