@<TRIPOS>MOLECULE
38144_ChemDiv_C885-0138
 29 32 0 0 0
SMALL
GASTEIGER
Energy = 0

@<TRIPOS>ATOM
      1 N           4.4210   -0.2000    0.0000 N.ar    1  LIG1       -0.1690
      2 C           4.4290   -1.2000    0.0000 C.ar    1  LIG1        0.2006
      3 S           3.4790   -1.5170    0.0000 S.2     1  LIG1       -0.0129
      4 C           2.8790   -0.7000    0.0000 C.ar    1  LIG1        0.1855
      5 N           3.4710    0.1130    0.0000 N.ar    1  LIG1       -0.1387
      6 N           1.8750   -0.7040    0.0000 N.pl3   1  LIG1       -0.2868
      7 C           1.3880   -1.5790    0.0000 C.3     1  LIG1        0.0932
      8 C           0.3790   -1.5790    0.0000 C.3     1  LIG1        0.0307
      9 C          -0.1210   -0.7170    0.0000 C.3     1  LIG1        0.0816
     10 C          -1.1290   -0.7170    0.0000 C.2     1  LIG1        0.2410
     11 O          -1.6250   -1.5920    0.0000 O.2     1  LIG1       -0.2734
     12 N          -1.6250    0.1420    0.0000 N.am    1  LIG1       -0.2051
     13 C          -2.6500    0.1420    0.0000 C.3     1  LIG1        0.1198
     14 C          -2.9880    0.7580    0.0000 C.3     1  LIG1        0.0498
     15 C          -3.9040    0.7500    0.0000 C.ar    1  LIG1       -0.0204
     16 C          -4.4170    1.6630    0.0000 C.ar    1  LIG1       -0.0045
     17 C          -5.4750    1.7080    0.0000 C.ar    1  LIG1       -0.0046
     18 C          -6.0170    0.8250    0.0000 C.ar    1  LIG1       -0.0219
     19 C          -5.5040   -0.1080    0.0000 C.ar    1  LIG1       -0.0046
     20 C          -4.4420   -0.1380    0.0000 C.ar    1  LIG1       -0.0045
     21 C          -7.0250    0.8790    0.0000 C.3     1  LIG1        0.0310
     22 C           0.3790    0.1500    0.0000 C.3     1  LIG1        0.0307
     23 C           1.3750    0.1500    0.0000 C.3     1  LIG1        0.0932
     24 N           5.2920   -1.6960    0.0000 N.ar    1  LIG1       -0.2250
     25 C           6.1580   -1.2000    0.0000 C.ar    1  LIG1        0.0663
     26 C           6.1580   -0.2000    0.0000 C.ar    1  LIG1        0.0773
     27 C           5.2920    0.3210    0.0000 C.ar    1  LIG1        0.2834
     28 O           5.2920    1.3130    0.0000 O.2     1  LIG1       -0.2650
     29 C           7.0250   -1.7040    0.0000 C.3     1  LIG1        0.0523
@<TRIPOS>BOND
     1     1     2   ar
     2     1     5   ar
     3     1    27   ar
     4     2     3   ar
     5     2    24   ar
     6     3     4   ar
     7     4     5   ar
     8     4     6    1
     9     6     7    1
    10     6    23    1
    11     7     8    1
    12     8     9    1
    13     9    10    1
    14     9    22    1
    15    10    11    2
    16    10    12   am
    17    12    13    1
    18    13    14    1
    19    14    15    1
    20    15    16   ar
    21    15    20   ar
    22    16    17   ar
    23    17    18   ar
    24    18    19   ar
    25    18    21    1
    26    19    20   ar
    27    22    23    1
    28    24    25   ar
    29    25    26   ar
    30    25    29    1
    31    26    27   ar
    32    27    28    2
