@<TRIPOS>MOLECULE
38142_ChemDiv_C885-0008
 26 29 0 0 0
SMALL
GASTEIGER
Energy = 0

@<TRIPOS>ATOM
      1 N           2.5630   -0.4880    0.0000 N.ar    1  LIG1       -0.1690
      2 C           2.5670   -1.4920    0.0000 C.ar    1  LIG1        0.2006
      3 S           1.6210   -1.8040    0.0000 S.2     1  LIG1       -0.0129
      4 C           1.0210   -0.9920    0.0000 C.ar    1  LIG1        0.1855
      5 N           1.6130   -0.1790    0.0000 N.ar    1  LIG1       -0.1387
      6 N           0.0170   -0.9960    0.0000 N.pl3   1  LIG1       -0.2868
      7 C          -0.4830   -0.1420    0.0000 C.3     1  LIG1        0.0932
      8 C          -1.4750   -0.1420    0.0000 C.3     1  LIG1        0.0306
      9 C          -1.9750   -1.0040    0.0000 C.3     1  LIG1        0.0801
     10 C          -2.9830   -1.0040    0.0000 C.2     1  LIG1        0.2253
     11 N          -3.4790   -0.1500    0.0000 N.am    1  LIG1       -0.2795
     12 C          -2.9250    0.6790    0.0000 C.3     1  LIG1        0.0934
     13 C          -3.2210    1.6210    0.0000 C.3     1  LIG1        0.0215
     14 C          -4.1420    1.9960    0.0000 C.3     1  LIG1        0.0018
     15 C          -5.0210    1.4880    0.0000 C.3     1  LIG1        0.0018
     16 C          -5.1670    0.5130    0.0000 C.3     1  LIG1        0.0215
     17 C          -4.4880   -0.2170    0.0000 C.3     1  LIG1        0.0934
     18 O          -3.4790   -1.8790    0.0000 O.2     1  LIG1       -0.2749
     19 C          -1.4750   -1.8710    0.0000 C.3     1  LIG1        0.0306
     20 C          -0.4670   -1.8710    0.0000 C.3     1  LIG1        0.0932
     21 N           3.4330   -1.9880    0.0000 N.ar    1  LIG1       -0.2250
     22 C           4.3000   -1.4920    0.0000 C.ar    1  LIG1        0.0663
     23 C           4.3000   -0.4880    0.0000 C.ar    1  LIG1        0.0773
     24 C           3.4330    0.0290    0.0000 C.ar    1  LIG1        0.2834
     25 O           3.4330    1.0210    0.0000 O.2     1  LIG1       -0.2650
     26 C           5.1630   -1.9920    0.0000 C.3     1  LIG1        0.0523
@<TRIPOS>BOND
     1     1     2   ar
     2     1     5   ar
     3     1    24   ar
     4     2     3   ar
     5     2    21   ar
     6     3     4   ar
     7     4     5   ar
     8     4     6    1
     9     6     7    1
    10     6    20    1
    11     7     8    1
    12     8     9    1
    13     9    10    1
    14     9    19    1
    15    10    11   am
    16    10    18    2
    17    11    12    1
    18    11    17    1
    19    12    13    1
    20    13    14    1
    21    14    15    1
    22    15    16    1
    23    16    17    1
    24    19    20    1
    25    21    22   ar
    26    22    23   ar
    27    22    26    1
    28    23    24   ar
    29    24    25    2
