@<TRIPOS>MOLECULE
38148_ChemDiv_C880-0607
 36 41 0 0 0
SMALL
GASTEIGER
Energy = 0

@<TRIPOS>ATOM
      1 C          -2.8290    0.1330    0.0000 C.ar    1  LIG1        0.1200
      2 C          -3.3630    0.9710    0.0000 C.ar    1  LIG1        0.0428
      3 C          -4.3330    0.7170    0.0000 C.ar    1  LIG1        0.0189
      4 C          -4.3830   -0.2790    0.0000 C.ar    1  LIG1        0.0603
      5 N          -3.4460   -0.6330    0.0000 N.ar    1  LIG1       -0.3191
      6 C          -3.1710   -1.6040    0.0000 C.3     1  LIG1        0.1329
      7 C          -2.1960   -1.8460    0.0000 C.ar    1  LIG1        0.0004
      8 C          -1.9290   -2.8000    0.0000 C.ar    1  LIG1       -0.0024
      9 C          -0.9630   -3.0500    0.0000 C.ar    1  LIG1       -0.0003
     10 C          -0.2670   -2.3210    0.0000 C.ar    1  LIG1       -0.0000
     11 C          -0.5460   -1.3710    0.0000 C.ar    1  LIG1       -0.0003
     12 C          -1.5000   -1.1290    0.0000 C.ar    1  LIG1       -0.0024
     13 C          -5.2710   -0.7330    0.0000 C.ar    1  LIG1        0.0172
     14 C          -6.1130   -0.1830    0.0000 C.ar    1  LIG1        0.0015
     15 C          -6.0630    0.8040    0.0000 C.ar    1  LIG1        0.0001
     16 C          -5.1670    1.2670    0.0000 C.ar    1  LIG1        0.0015
     17 C          -2.8960    1.8670    0.0000 C.ar    1  LIG1        0.1218
     18 N          -1.8960    1.9080    0.0000 N.ar    1  LIG1       -0.1647
     19 N          -1.3630    1.0670    0.0000 N.ar    1  LIG1       -0.2059
     20 C          -1.8290    0.1830    0.0000 C.ar    1  LIG1        0.2927
     21 O          -1.2960   -0.6670    0.0000 O.2     1  LIG1       -0.2639
     22 C          -0.3630    1.1080    0.0000 C.3     1  LIG1        0.2153
     23 C           0.1080    1.9920    0.0000 C.2     1  LIG1        0.2507
     24 N           1.1080    2.0330    0.0000 N.am    1  LIG1       -0.2744
     25 C           1.6420    1.2000    0.0000 C.3     1  LIG1        0.1150
     26 C           2.6420    1.2380    0.0000 C.3     1  LIG1        0.1151
     27 N           3.1080    2.1250    0.0000 N.pl3   1  LIG1       -0.2747
     28 C           4.1130    2.1580    0.0000 C.ar    1  LIG1        0.2203
     29 N           4.5960    3.0380    0.0000 N.ar    1  LIG1       -0.2121
     30 C           5.5960    3.0540    0.0000 C.ar    1  LIG1        0.1034
     31 C           6.1130    2.2000    0.0000 C.ar    1  LIG1        0.0414
     32 C           5.6460    1.3330    0.0000 C.ar    1  LIG1        0.1034
     33 N           4.6380    1.3000    0.0000 N.ar    1  LIG1       -0.2121
     34 C           2.5750    2.9710    0.0000 C.3     1  LIG1        0.1151
     35 C           1.5750    2.9380    0.0000 C.3     1  LIG1        0.1150
     36 O          -0.4290    2.8380    0.0000 O.2     1  LIG1       -0.2727
@<TRIPOS>BOND
     1     1     2   ar
     2     1     5   ar
     3     1    20   ar
     4     2     3   ar
     5     2    17   ar
     6     3     4   ar
     7     3    16   ar
     8     4     5   ar
     9     4    13   ar
    10     5     6    1
    11     6     7    1
    12     7     8   ar
    13     7    12   ar
    14     8     9   ar
    15     9    10   ar
    16    10    11   ar
    17    11    12   ar
    18    13    14   ar
    19    14    15   ar
    20    15    16   ar
    21    17    18   ar
    22    18    19   ar
    23    19    20   ar
    24    19    22    1
    25    20    21    2
    26    22    23    1
    27    23    24   am
    28    23    36    2
    29    24    25    1
    30    24    35    1
    31    25    26    1
    32    26    27    1
    33    27    28    1
    34    27    34    1
    35    28    29   ar
    36    28    33   ar
    37    29    30   ar
    38    30    31   ar
    39    31    32   ar
    40    32    33   ar
    41    34    35    1
