@<TRIPOS>MOLECULE
38146_ChemDiv_C880-0585
 29 33 0 0 0
SMALL
GASTEIGER
Energy = 0

@<TRIPOS>ATOM
      1 C          -1.0710    0.1290    0.0000 C.ar    1  LIG1        0.1200
      2 C          -1.6500    0.9460    0.0000 C.ar    1  LIG1        0.0428
      3 C          -2.6000    0.6420    0.0000 C.ar    1  LIG1        0.0189
      4 C          -2.6000   -0.3580    0.0000 C.ar    1  LIG1        0.0603
      5 N          -1.6500   -0.6580    0.0000 N.ar    1  LIG1       -0.3191
      6 C          -1.3330   -1.6250    0.0000 C.3     1  LIG1        0.1329
      7 C          -0.3500   -1.8380    0.0000 C.ar    1  LIG1        0.0004
      8 C           0.3130   -1.0920    0.0000 C.ar    1  LIG1       -0.0024
      9 C           1.2790   -1.3040    0.0000 C.ar    1  LIG1       -0.0003
     10 C           1.5960   -2.2420    0.0000 C.ar    1  LIG1       -0.0000
     11 C           0.9290   -2.9880    0.0000 C.ar    1  LIG1       -0.0003
     12 C          -0.0540   -2.7750    0.0000 C.ar    1  LIG1       -0.0024
     13 C          -3.4580   -0.8580    0.0000 C.ar    1  LIG1        0.0172
     14 C          -4.3330   -0.3580    0.0000 C.ar    1  LIG1        0.0015
     15 C          -4.3330    0.6420    0.0000 C.ar    1  LIG1        0.0001
     16 C          -3.4580    1.1420    0.0000 C.ar    1  LIG1        0.0015
     17 C          -1.2330    1.8580    0.0000 C.ar    1  LIG1        0.1218
     18 N          -0.2380    1.9460    0.0000 N.ar    1  LIG1       -0.1647
     19 N           0.3460    1.1290    0.0000 N.ar    1  LIG1       -0.2059
     20 C          -0.0710    0.2250    0.0000 C.ar    1  LIG1        0.2927
     21 O           0.5170   -0.6040    0.0000 O.2     1  LIG1       -0.2639
     22 C           1.3460    1.2130    0.0000 C.3     1  LIG1        0.2153
     23 C           1.7790    2.1130    0.0000 C.2     1  LIG1        0.2506
     24 N           2.7920    2.1920    0.0000 N.am    1  LIG1       -0.2779
     25 C           3.3960    2.9920    0.0000 C.3     1  LIG1        0.0935
     26 C           4.3290    2.6580    0.0000 C.3     1  LIG1        0.0233
     27 C           4.3080    1.6580    0.0000 C.3     1  LIG1        0.0233
     28 C           3.3460    1.3750    0.0000 C.3     1  LIG1        0.0935
     29 O           1.2130    2.9420    0.0000 O.2     1  LIG1       -0.2727
@<TRIPOS>BOND
     1     1     2   ar
     2     1     5   ar
     3     1    20   ar
     4     2     3   ar
     5     2    17   ar
     6     3     4   ar
     7     3    16   ar
     8     4     5   ar
     9     4    13   ar
    10     5     6    1
    11     6     7    1
    12     7     8   ar
    13     7    12   ar
    14     8     9   ar
    15     9    10   ar
    16    10    11   ar
    17    11    12   ar
    18    13    14   ar
    19    14    15   ar
    20    15    16   ar
    21    17    18   ar
    22    18    19   ar
    23    19    20   ar
    24    19    22    1
    25    20    21    2
    26    22    23    1
    27    23    24   am
    28    23    29    2
    29    24    25    1
    30    24    28    1
    31    25    26    1
    32    26    27    1
    33    27    28    1
