@<TRIPOS>MOLECULE
38143_ChemDiv_C781-0275
 32 36 0 0 0
SMALL
GASTEIGER
Energy = 0

@<TRIPOS>ATOM
      1 C          -3.6380   -2.0960    0.0000 C.ar    1  LIG1        0.1904
      2 N          -4.2080   -2.8880    0.0000 N.ar    1  LIG1       -0.2181
      3 C          -5.1710   -2.5830    0.0000 C.ar    1  LIG1        0.1202
      4 C          -5.1710   -1.5830    0.0000 C.ar    1  LIG1        0.1042
      5 N          -4.2080   -1.2830    0.0000 N.ar    1  LIG1       -0.2196
      6 C          -6.0210   -1.0790    0.0000 C.ar    1  LIG1        0.0414
      7 C          -6.8920   -1.5830    0.0000 C.ar    1  LIG1        0.1005
      8 N          -6.8920   -2.5830    0.0000 N.ar    1  LIG1       -0.2406
      9 C          -6.0210   -3.0880    0.0000 C.ar    1  LIG1        0.1195
     10 S          -2.6460   -2.1040    0.0000 S.3     1  LIG1       -0.0709
     11 C          -2.1330   -1.2330    0.0000 C.3     1  LIG1        0.0913
     12 C          -1.1420   -1.2500    0.0000 C.ar    1  LIG1       -0.0109
     13 C          -0.6290   -2.1040    0.0000 C.ar    1  LIG1       -0.0033
     14 C           0.3630   -2.1040    0.0000 C.ar    1  LIG1        0.0042
     15 C           0.8750   -1.2330    0.0000 C.ar    1  LIG1        0.0536
     16 C           1.8670   -1.2330    0.0000 C.2     1  LIG1        0.2490
     17 N           2.3790   -0.3580    0.0000 N.am    1  LIG1       -0.2761
     18 C           3.3710   -0.3580    0.0000 C.3     1  LIG1        0.0937
     19 C           3.8830    0.5130    0.0000 C.3     1  LIG1        0.0219
     20 C           3.3710    1.3670    0.0000 C.3     1  LIG1        0.0078
     21 C           3.8830    2.2380    0.0000 C.3     1  LIG1        0.0265
     22 C           4.8960    2.2170    0.0000 C.ar    1  LIG1       -0.0222
     23 C           5.3880    1.3540    0.0000 C.ar    1  LIG1       -0.0043
     24 C           6.4000    1.3540    0.0000 C.ar    1  LIG1       -0.0003
     25 C           6.8920    2.2170    0.0000 C.ar    1  LIG1       -0.0000
     26 C           6.4000    3.0630    0.0000 C.ar    1  LIG1       -0.0003
     27 C           5.3880    3.0920    0.0000 C.ar    1  LIG1       -0.0043
     28 C           2.3790    1.3670    0.0000 C.3     1  LIG1        0.0219
     29 C           1.8670    0.5130    0.0000 C.3     1  LIG1        0.0937
     30 O           2.3790   -2.1040    0.0000 O.2     1  LIG1       -0.2699
     31 C           0.3630   -0.3790    0.0000 C.ar    1  LIG1        0.0042
     32 C          -0.6290   -0.3790    0.0000 C.ar    1  LIG1       -0.0033
@<TRIPOS>BOND
     1     1     2   ar
     2     1     5   ar
     3     1    10    1
     4     2     3   ar
     5     3     4   ar
     6     3     9   ar
     7     4     5   ar
     8     4     6   ar
     9     6     7   ar
    10     7     8   ar
    11     8     9   ar
    12    10    11    1
    13    11    12    1
    14    12    13   ar
    15    12    32   ar
    16    13    14   ar
    17    14    15   ar
    18    15    16    1
    19    15    31   ar
    20    16    17   am
    21    16    30    2
    22    17    18    1
    23    17    29    1
    24    18    19    1
    25    19    20    1
    26    20    21    1
    27    20    28    1
    28    21    22    1
    29    22    23   ar
    30    22    27   ar
    31    23    24   ar
    32    24    25   ar
    33    25    26   ar
    34    26    27   ar
    35    28    29    1
    36    31    32   ar
