@<TRIPOS>MOLECULE
38141_ChemDiv_C781-0255
 26 29 0 0 0
SMALL
GASTEIGER
Energy = 0

@<TRIPOS>ATOM
      1 C          -2.1330   -1.6580    0.0000 C.ar    1  LIG1        0.1904
      2 N          -2.7080   -2.4500    0.0000 N.ar    1  LIG1       -0.2181
      3 C          -3.6710   -2.1500    0.0000 C.ar    1  LIG1        0.1202
      4 C          -3.6710   -1.1460    0.0000 C.ar    1  LIG1        0.1042
      5 N          -2.7080   -0.8460    0.0000 N.ar    1  LIG1       -0.2196
      6 C          -4.5210   -0.6460    0.0000 C.ar    1  LIG1        0.0414
      7 C          -5.3960   -1.1460    0.0000 C.ar    1  LIG1        0.1005
      8 N          -5.3960   -2.1500    0.0000 N.ar    1  LIG1       -0.2406
      9 C          -4.5210   -2.6500    0.0000 C.ar    1  LIG1        0.1195
     10 S          -1.1420   -1.6710    0.0000 S.3     1  LIG1       -0.0709
     11 C          -0.6290   -0.7960    0.0000 C.3     1  LIG1        0.0913
     12 C           0.3630   -0.8170    0.0000 C.ar    1  LIG1       -0.0109
     13 C           0.8750    0.0460    0.0000 C.ar    1  LIG1       -0.0033
     14 C           1.8710    0.0460    0.0000 C.ar    1  LIG1        0.0042
     15 C           2.3790   -0.8250    0.0000 C.ar    1  LIG1        0.0536
     16 C           3.3750   -0.8250    0.0000 C.2     1  LIG1        0.2490
     17 N           3.8880    0.0460    0.0000 N.am    1  LIG1       -0.2761
     18 C           4.8790    0.0460    0.0000 C.3     1  LIG1        0.0937
     19 C           5.3920    0.9210    0.0000 C.3     1  LIG1        0.0216
     20 C           4.8790    1.7920    0.0000 C.3     1  LIG1        0.0034
     21 C           3.8880    1.7920    0.0000 C.3     1  LIG1        0.0216
     22 C           3.3750    0.9210    0.0000 C.3     1  LIG1        0.0937
     23 C           5.3920    2.6540    0.0000 C.3     1  LIG1        0.0001
     24 O           3.8880   -1.6710    0.0000 O.2     1  LIG1       -0.2699
     25 C           1.8710   -1.6710    0.0000 C.ar    1  LIG1        0.0042
     26 C           0.8750   -1.6710    0.0000 C.ar    1  LIG1       -0.0033
@<TRIPOS>BOND
     1     1     2   ar
     2     1     5   ar
     3     1    10    1
     4     2     3   ar
     5     3     4   ar
     6     3     9   ar
     7     4     5   ar
     8     4     6   ar
     9     6     7   ar
    10     7     8   ar
    11     8     9   ar
    12    10    11    1
    13    11    12    1
    14    12    13   ar
    15    12    26   ar
    16    13    14   ar
    17    14    15   ar
    18    15    16    1
    19    15    25   ar
    20    16    17   am
    21    16    24    2
    22    17    18    1
    23    17    22    1
    24    18    19    1
    25    19    20    1
    26    20    21    1
    27    20    23    1
    28    21    22    1
    29    25    26   ar
