@<TRIPOS>MOLECULE
38149_ChemDiv_C716-0607
 32 35 0 0 0
SMALL
GASTEIGER
Energy = 0

@<TRIPOS>ATOM
      1 C          -2.5880    0.2500    0.0000 C.ar    1  LIG1        0.1869
      2 S          -3.4540    0.7500    0.0000 S.O2    1  LIG1        0.0335
      3 C          -4.3250    1.2500    0.0000 C.ar    1  LIG1        0.1106
      4 C          -5.1880    0.7500    0.0000 C.ar    1  LIG1        0.0193
      5 C          -6.0500    1.2500    0.0000 C.ar    1  LIG1        0.0080
      6 C          -6.0500    2.2500    0.0000 C.ar    1  LIG1        0.0346
      7 C          -5.1880    2.7460    0.0000 C.ar    1  LIG1        0.0080
      8 C          -4.3250    2.2500    0.0000 C.ar    1  LIG1        0.0193
      9 BR         -6.9250    2.7630    0.0000 Br      1  LIG1       -0.0490
     10 O          -2.9670    1.6130    0.0000 O.2     1  LIG1       -0.1640
     11 O          -3.9540   -0.1250    0.0000 O.2     1  LIG1       -0.1640
     12 C          -1.7250    0.7500    0.0000 C.ar    1  LIG1        0.3001
     13 N          -0.8670    0.2500    0.0000 N.ar    1  LIG1       -0.1816
     14 C          -0.8670   -0.7460    0.0000 C.ar    1  LIG1        0.1934
     15 N          -1.7250   -1.2460    0.0000 N.ar    1  LIG1       -0.2181
     16 C          -2.5880   -0.7460    0.0000 C.ar    1  LIG1        0.1247
     17 S           0.0000   -1.2460    0.0000 S.3     1  LIG1       -0.0657
     18 C           0.8630   -0.7460    0.0000 C.3     1  LIG1        0.1519
     19 C           1.7250   -1.2460    0.0000 C.2     1  LIG1        0.2570
     20 N           2.5880   -0.7630    0.0000 N.am    1  LIG1       -0.1784
     21 C           3.4500   -1.2630    0.0000 C.ar    1  LIG1        0.0766
     22 C           4.3130   -0.7630    0.0000 C.ar    1  LIG1        0.0566
     23 C           5.1750   -1.2460    0.0000 C.ar    1  LIG1        0.1737
     24 C           5.1750   -2.2540    0.0000 C.ar    1  LIG1        0.1725
     25 O           6.0460   -2.7540    0.0000 O.3     1  LIG1       -0.4684
     26 C           6.9250   -2.2540    0.0000 C.3     1  LIG1        0.2526
     27 C           6.9250   -1.2460    0.0000 C.3     1  LIG1        0.2526
     28 O           6.0460   -0.7330    0.0000 O.3     1  LIG1       -0.4683
     29 C           4.3130   -2.7580    0.0000 C.ar    1  LIG1        0.0414
     30 C           3.4500   -2.2540    0.0000 C.ar    1  LIG1        0.0199
     31 O           1.7250   -2.2460    0.0000 O.2     1  LIG1       -0.2720
     32 O          -1.7250    1.7500    0.0000 O.2     1  LIG1       -0.2636
@<TRIPOS>BOND
     1     1     2    1
     2     1    12   ar
     3     1    16   ar
     4     2     3    1
     5     2    10    2
     6     2    11    2
     7     3     4   ar
     8     3     8   ar
     9     4     5   ar
    10     5     6   ar
    11     6     7   ar
    12     6     9    1
    13     7     8   ar
    14    12    13   ar
    15    12    32    2
    16    13    14   ar
    17    14    15   ar
    18    14    17    1
    19    15    16   ar
    20    17    18    1
    21    18    19    1
    22    19    20   am
    23    19    31    2
    24    20    21    1
    25    21    22   ar
    26    21    30   ar
    27    22    23   ar
    28    23    24   ar
    29    23    28    1
    30    24    25    1
    31    24    29   ar
    32    25    26    1
    33    26    27    1
    34    27    28    1
    35    29    30   ar
