@<TRIPOS>MOLECULE
38145_ChemDiv_C713-0258
 29 34 0 0 0
SMALL
GASTEIGER
Energy = 0

@<TRIPOS>ATOM
      1 N           2.2290    0.9920    0.0000 N.ar    1  LIG1       -0.1902
      2 N           1.3580    0.4920    0.0000 N.ar    1  LIG1       -0.1473
      3 C           0.4960    0.9920    0.0000 C.ar    1  LIG1        0.1520
      4 N          -0.3790    0.4920    0.0000 N.pl3   1  LIG1       -0.2914
      5 C          -1.2420    1.0080    0.0000 C.3     1  LIG1        0.0980
      6 C          -2.1040    0.5000    0.0000 C.3     1  LIG1        0.0583
      7 C          -2.9670   -0.0040    0.0000 C.ar    1  LIG1        0.0411
      8 N          -2.9670   -1.0040    0.0000 N.ar    1  LIG1       -0.2991
      9 C          -3.8250   -1.5000    0.0000 C.ar    1  LIG1        0.2607
     10 C          -4.6880   -1.0000    0.0000 C.ar    1  LIG1        0.0608
     11 C          -4.6880    0.0000    0.0000 C.ar    1  LIG1        0.0060
     12 C          -3.8250    0.4920    0.0000 C.ar    1  LIG1        0.0130
     13 O          -3.8250   -2.5000    0.0000 O.2     1  LIG1       -0.2670
     14 C          -2.1040   -1.4960    0.0000 C.3     1  LIG1        0.1104
     15 C          -1.2420   -1.0040    0.0000 C.3     1  LIG1        0.0429
     16 C          -0.3710   -0.5040    0.0000 C.3     1  LIG1        0.0941
     17 C          -1.2420   -0.0040    0.0000 C.3     1  LIG1        0.0112
     18 C           0.4960    1.9960    0.0000 C.ar    1  LIG1        0.0393
     19 C           1.3580    2.5040    0.0000 C.ar    1  LIG1        0.0436
     20 C           2.2290    1.9960    0.0000 C.ar    1  LIG1        0.1868
     21 N           3.1830    2.3080    0.0000 N.ar    1  LIG1       -0.1269
     22 N           3.7710    1.4920    0.0000 N.ar    1  LIG1       -0.1269
     23 C           3.1830    0.6920    0.0000 C.ar    1  LIG1        0.1866
     24 C           3.4460   -0.2790    0.0000 C.ar    1  LIG1        0.0376
     25 C           4.4130   -0.5330    0.0000 C.ar    1  LIG1        0.0031
     26 C           4.6830   -1.5000    0.0000 C.ar    1  LIG1        0.0001
     27 C           3.9750   -2.2130    0.0000 C.ar    1  LIG1        0.0000
     28 C           3.0040   -1.9540    0.0000 C.ar    1  LIG1        0.0001
     29 C           2.7460   -1.0000    0.0000 C.ar    1  LIG1        0.0031
@<TRIPOS>BOND
     1     1     2   ar
     2     1    20   ar
     3     1    23   ar
     4     2     3   ar
     5     3     4    1
     6     3    18   ar
     7     4     5    1
     8     4    16    1
     9     5     6    1
    10     6     7    1
    11     6    17    1
    12     7     8   ar
    13     7    12   ar
    14     8     9   ar
    15     8    14    1
    16     9    10   ar
    17     9    13    2
    18    10    11   ar
    19    11    12   ar
    20    14    15    1
    21    15    16    1
    22    15    17    1
    23    18    19   ar
    24    19    20   ar
    25    20    21   ar
    26    21    22   ar
    27    22    23   ar
    28    23    24    1
    29    24    25   ar
    30    24    29   ar
    31    25    26   ar
    32    26    27   ar
    33    27    28   ar
    34    28    29   ar
