@<TRIPOS>MOLECULE
38153_ChemDiv_C717-0370
 17 18 0 0 0
SMALL
GASTEIGER
Energy = 0

@<TRIPOS>ATOM
      1 C           0.4420   -0.5000    0.0000 C.ar    1  LIG1        0.1640
      2 S          -0.4330    0.0000    0.0000 S.O2    1  LIG1        0.0317
      3 O          -0.9290   -0.8710    0.0000 O.2     1  LIG1       -0.1641
      4 O           0.0670    0.8580    0.0000 O.2     1  LIG1       -0.1641
      5 C          -1.2920    0.5000    0.0000 C.ar    1  LIG1        0.1105
      6 C          -1.2920    1.5080    0.0000 C.ar    1  LIG1        0.0187
      7 C          -2.1630    2.0040    0.0000 C.ar    1  LIG1        0.0013
      8 C          -3.0330    1.5080    0.0000 C.ar    1  LIG1        0.0001
      9 C          -3.0330    0.5000    0.0000 C.ar    1  LIG1        0.0013
     10 C          -2.1630    0.0000    0.0000 C.ar    1  LIG1        0.0187
     11 C           1.2920    0.0080    0.0000 C.ar    1  LIG1        0.1907
     12 N           2.1580   -0.5000    0.0000 N.ar    1  LIG1       -0.2009
     13 C           2.1580   -1.5000    0.0000 C.ar    1  LIG1        0.2017
     14 N           1.2920   -1.9880    0.0000 N.ar    1  LIG1       -0.2175
     15 C           0.4420   -1.5000    0.0000 C.ar    1  LIG1        0.1227
     16 S           3.0290   -2.0000    0.0000 S.2     1  LIG1       -0.0092
     17 N           1.2920    1.0080    0.0000 N.pl3   1  LIG1       -0.1057
@<TRIPOS>BOND
     1     1     2    1
     2     1    11   ar
     3     1    15   ar
     4     2     3    2
     5     2     4    2
     6     2     5    1
     7     5     6   ar
     8     5    10   ar
     9     6     7   ar
    10     7     8   ar
    11     8     9   ar
    12     9    10   ar
    13    11    12   ar
    14    11    17    1
    15    12    13   ar
    16    13    14   ar
    17    13    16    2
    18    14    15   ar
