@<TRIPOS>MOLECULE
38159_ChemDiv_C721-0162
 33 35 0 0 0
SMALL
GASTEIGER
Energy = 0

@<TRIPOS>ATOM
      1 C          -2.9040   -0.2630    0.0000 C.ar    1  LIG1        0.0847
      2 C          -1.9500    0.0500    0.0000 C.ar    1  LIG1        0.0438
      3 N          -1.3630   -0.7630    0.0000 N.ar    1  LIG1       -0.3225
      4 C          -1.9500   -1.5750    0.0000 C.ar    1  LIG1        0.0562
      5 C          -2.9040   -1.2670    0.0000 C.ar    1  LIG1        0.0013
      6 C          -3.7170   -1.8540    0.0000 C.3     1  LIG1        0.0328
      7 C          -1.6420   -2.5250    0.0000 C.ar    1  LIG1        0.0155
      8 C          -0.6670   -2.7290    0.0000 C.ar    1  LIG1        0.0014
      9 C          -0.3500   -3.6750    0.0000 C.ar    1  LIG1        0.0000
     10 C          -1.0210   -4.4250    0.0000 C.ar    1  LIG1        0.0000
     11 C          -2.0000   -4.2170    0.0000 C.ar    1  LIG1        0.0000
     12 C          -2.3080   -3.2710    0.0000 C.ar    1  LIG1        0.0014
     13 C          -0.3630   -0.7710    0.0000 C.3     1  LIG1        0.1932
     14 C           0.1420    0.0960    0.0000 C.2     1  LIG1        0.2644
     15 N           1.1420    0.0960    0.0000 N.am    1  LIG1       -0.2054
     16 C           1.6420    0.9630    0.0000 C.3     1  LIG1        0.0988
     17 C           1.1460    1.8380    0.0000 C.3     1  LIG1        0.0433
     18 C           1.6420    2.6960    0.0000 C.3     1  LIG1        0.0985
     19 N           2.6420    2.6960    0.0000 N.am    1  LIG1       -0.2459
     20 C           3.1420    3.5630    0.0000 C.2     1  LIG1        0.4049
     21 O           2.6420    4.4250    0.0000 O.2     1  LIG1       -0.2262
     22 O           4.1460    3.5500    0.0000 O.3     1  LIG1       -0.4345
     23 C           4.6420    2.6960    0.0000 C.3     1  LIG1        0.2102
     24 C           5.6460    2.6880    0.0000 C.3     1  LIG1        0.0513
     25 C           3.1330    1.8380    0.0000 C.3     1  LIG1        0.0985
     26 C           2.6380    0.9710    0.0000 C.3     1  LIG1        0.0433
     27 O          -0.3580    0.9710    0.0000 O.2     1  LIG1       -0.2712
     28 C          -1.6420    0.9960    0.0000 C.3     1  LIG1        0.0502
     29 C          -3.7170    0.3210    0.0000 C.2     1  LIG1        0.3420
     30 O          -3.6170    1.3170    0.0000 O.2     1  LIG1       -0.2449
     31 O          -4.6290   -0.0830    0.0000 O.3     1  LIG1       -0.4454
     32 C          -4.7330   -1.0830    0.0000 C.3     1  LIG1        0.2089
     33 C          -5.6500   -1.4830    0.0000 C.3     1  LIG1        0.0513
@<TRIPOS>BOND
     1     1     2   ar
     2     1     5   ar
     3     1    29    1
     4     2     3   ar
     5     2    28    1
     6     3     4   ar
     7     3    13    1
     8     4     5   ar
     9     4     7    1
    10     5     6    1
    11     7     8   ar
    12     7    12   ar
    13     8     9   ar
    14     9    10   ar
    15    10    11   ar
    16    11    12   ar
    17    13    14    1
    18    14    15   am
    19    14    27    2
    20    15    16    1
    21    16    17    1
    22    16    26    1
    23    17    18    1
    24    18    19    1
    25    19    20   am
    26    19    25    1
    27    20    21    2
    28    20    22    1
    29    22    23    1
    30    23    24    1
    31    25    26    1
    32    29    30    2
    33    29    31    1
    34    31    32    1
    35    32    33    1
