@<TRIPOS>MOLECULE
38154_ChemDiv_C880-0768
 36 40 0 0 0
SMALL
GASTEIGER
Energy = 0

@<TRIPOS>ATOM
      1 C          -3.5330   -0.7960    0.0000 C.ar    1  LIG1        0.1200
      2 C          -4.0670    0.0460    0.0000 C.ar    1  LIG1        0.0428
      3 C          -5.0330   -0.2130    0.0000 C.ar    1  LIG1        0.0189
      4 C          -5.0830   -1.2080    0.0000 C.ar    1  LIG1        0.0603
      5 N          -4.1500   -1.5630    0.0000 N.ar    1  LIG1       -0.3191
      6 C          -3.8710   -2.5330    0.0000 C.3     1  LIG1        0.1329
      7 C          -2.8960   -2.7750    0.0000 C.ar    1  LIG1        0.0004
      8 C          -2.2040   -2.0580    0.0000 C.ar    1  LIG1       -0.0024
      9 C          -1.2460   -2.3000    0.0000 C.ar    1  LIG1       -0.0003
     10 C          -0.9670   -3.2500    0.0000 C.ar    1  LIG1       -0.0000
     11 C          -1.6630   -3.9790    0.0000 C.ar    1  LIG1       -0.0003
     12 C          -2.6290   -3.7290    0.0000 C.ar    1  LIG1       -0.0024
     13 C          -5.9750   -1.6630    0.0000 C.ar    1  LIG1        0.0172
     14 C          -6.8170   -1.1130    0.0000 C.ar    1  LIG1        0.0015
     15 C          -6.7670   -0.1250    0.0000 C.ar    1  LIG1        0.0001
     16 C          -5.8670    0.3380    0.0000 C.ar    1  LIG1        0.0015
     17 C          -3.6000    0.9380    0.0000 C.ar    1  LIG1        0.1218
     18 N          -2.5960    0.9790    0.0000 N.ar    1  LIG1       -0.1647
     19 N          -2.0630    0.1380    0.0000 N.ar    1  LIG1       -0.2059
     20 C          -2.5290   -0.7460    0.0000 C.ar    1  LIG1        0.2927
     21 O          -1.9960   -1.5960    0.0000 O.2     1  LIG1       -0.2639
     22 C          -1.0630    0.1790    0.0000 C.3     1  LIG1        0.2169
     23 C          -0.5960    1.0630    0.0000 C.2     1  LIG1        0.2664
     24 O          -1.1290    1.9080    0.0000 O.2     1  LIG1       -0.2712
     25 N           0.4080    1.1080    0.0000 N.am    1  LIG1       -0.2037
     26 C           0.8750    1.9920    0.0000 C.3     1  LIG1        0.1166
     27 C           1.8750    2.0420    0.0000 C.3     1  LIG1        0.0407
     28 C           2.3420    2.9210    0.0000 C.3     1  LIG1        0.0743
     29 N           3.3460    2.9540    0.0000 N.3     1  LIG1       -0.2627
     30 C           3.8130    3.8540    0.0000 C.3     1  LIG1        0.1359
     31 C           4.8130    3.9000    0.0000 C.3     1  LIG1        0.1563
     32 N           5.3460    3.0540    0.0000 N.4     1  LIG1        0.3794
     33 C           4.8790    2.1750    0.0000 C.3     1  LIG1        0.1563
     34 C           3.8790    2.1250    0.0000 C.3     1  LIG1        0.1359
     35 C           6.3500    3.1000    0.0000 C.3     1  LIG1        0.1389
     36 C           6.8170    3.9830    0.0000 C.3     1  LIG1        0.0688
@<TRIPOS>BOND
     1     1     2   ar
     2     1     5   ar
     3     1    20   ar
     4     2     3   ar
     5     2    17   ar
     6     3     4   ar
     7     3    16   ar
     8     4     5   ar
     9     4    13   ar
    10     5     6    1
    11     6     7    1
    12     7     8   ar
    13     7    12   ar
    14     8     9   ar
    15     9    10   ar
    16    10    11   ar
    17    11    12   ar
    18    13    14   ar
    19    14    15   ar
    20    15    16   ar
    21    17    18   ar
    22    18    19   ar
    23    19    20   ar
    24    19    22    1
    25    20    21    2
    26    22    23    1
    27    23    24    2
    28    23    25   am
    29    25    26    1
    30    26    27    1
    31    27    28    1
    32    28    29    1
    33    29    30    1
    34    29    34    1
    35    30    31    1
    36    31    32    1
    37    32    33    1
    38    32    35    1
    39    33    34    1
    40    35    36    1
