@<TRIPOS>MOLECULE
38150_ChemDiv_C880-0636
 32 36 0 0 0
SMALL
GASTEIGER
Energy = 0

@<TRIPOS>ATOM
      1 C          -1.2920   -0.8170    0.0000 C.ar    1  LIG1        0.1200
      2 C          -1.8750    0.0000    0.0000 C.ar    1  LIG1        0.0428
      3 C          -2.8250   -0.3040    0.0000 C.ar    1  LIG1        0.0189
      4 C          -2.8250   -1.3040    0.0000 C.ar    1  LIG1        0.0603
      5 N          -1.8750   -1.6040    0.0000 N.ar    1  LIG1       -0.3191
      6 C          -1.5580   -2.5710    0.0000 C.3     1  LIG1        0.1329
      7 C          -0.5750   -2.7830    0.0000 C.ar    1  LIG1        0.0004
      8 C          -0.2750   -3.7210    0.0000 C.ar    1  LIG1       -0.0024
      9 C           0.7040   -3.9330    0.0000 C.ar    1  LIG1       -0.0003
     10 C           1.3710   -3.1880    0.0000 C.ar    1  LIG1       -0.0000
     11 C           1.0540   -2.2500    0.0000 C.ar    1  LIG1       -0.0003
     12 C           0.0880   -2.0380    0.0000 C.ar    1  LIG1       -0.0024
     13 C          -3.6790   -1.8040    0.0000 C.ar    1  LIG1        0.0172
     14 C          -4.5580   -1.3040    0.0000 C.ar    1  LIG1        0.0015
     15 C          -4.5580   -0.3040    0.0000 C.ar    1  LIG1        0.0001
     16 C          -3.6790    0.1920    0.0000 C.ar    1  LIG1        0.0015
     17 C          -1.4580    0.9080    0.0000 C.ar    1  LIG1        0.1218
     18 N          -0.4580    1.0000    0.0000 N.ar    1  LIG1       -0.1647
     19 N           0.1210    0.1830    0.0000 N.ar    1  LIG1       -0.2059
     20 C          -0.2960   -0.7210    0.0000 C.ar    1  LIG1        0.2927
     21 O           0.2880   -1.5500    0.0000 O.2     1  LIG1       -0.2639
     22 C           1.1210    0.2670    0.0000 C.3     1  LIG1        0.2172
     23 C           1.5540    1.1670    0.0000 C.2     1  LIG1        0.2706
     24 N           2.5670    1.2420    0.0000 N.am    1  LIG1       -0.1770
     25 C           2.9880    2.1420    0.0000 C.ar    1  LIG1        0.0796
     26 C           3.9880    2.2250    0.0000 C.ar    1  LIG1        0.0499
     27 BR          4.5540    1.3920    0.0000 Br      1  LIG1       -0.0476
     28 C           4.4210    3.1210    0.0000 C.ar    1  LIG1        0.0080
     29 C           3.8540    3.9380    0.0000 C.ar    1  LIG1        0.0006
     30 C           2.8540    3.8710    0.0000 C.ar    1  LIG1        0.0014
     31 C           2.4210    2.9670    0.0000 C.ar    1  LIG1        0.0171
     32 O           0.9880    1.9920    0.0000 O.2     1  LIG1       -0.2708
@<TRIPOS>BOND
     1     1     2   ar
     2     1     5   ar
     3     1    20   ar
     4     2     3   ar
     5     2    17   ar
     6     3     4   ar
     7     3    16   ar
     8     4     5   ar
     9     4    13   ar
    10     5     6    1
    11     6     7    1
    12     7     8   ar
    13     7    12   ar
    14     8     9   ar
    15     9    10   ar
    16    10    11   ar
    17    11    12   ar
    18    13    14   ar
    19    14    15   ar
    20    15    16   ar
    21    17    18   ar
    22    18    19   ar
    23    19    20   ar
    24    19    22    1
    25    20    21    2
    26    22    23    1
    27    23    24   am
    28    23    32    2
    29    24    25    1
    30    25    26   ar
    31    25    31   ar
    32    26    27    1
    33    26    28   ar
    34    28    29   ar
    35    29    30   ar
    36    30    31   ar
