@<TRIPOS>MOLECULE
38157_ChemDiv_C721-0037
 26 27 0 0 0
SMALL
GASTEIGER
Energy = 0

@<TRIPOS>ATOM
      1 C          -1.3290    1.3080    0.0000 C.ar    1  LIG1        0.0847
      2 C          -0.3670    1.6170    0.0000 C.ar    1  LIG1        0.0438
      3 N           0.2250    0.8000    0.0000 N.ar    1  LIG1       -0.3225
      4 C          -0.3670   -0.0210    0.0000 C.ar    1  LIG1        0.0562
      5 C          -1.3290    0.3000    0.0000 C.ar    1  LIG1        0.0013
      6 C          -2.1540   -0.3000    0.0000 C.3     1  LIG1        0.0328
      7 C          -0.0540   -0.9790    0.0000 C.ar    1  LIG1        0.0155
      8 C           0.9330   -1.1880    0.0000 C.ar    1  LIG1        0.0014
      9 C           1.2500   -2.1380    0.0000 C.ar    1  LIG1        0.0000
     10 C           0.5750   -2.9040    0.0000 C.ar    1  LIG1        0.0000
     11 C          -0.4210   -2.6920    0.0000 C.ar    1  LIG1        0.0000
     12 C          -0.7290   -1.7290    0.0000 C.ar    1  LIG1        0.0014
     13 C           1.2380    0.7960    0.0000 C.3     1  LIG1        0.1932
     14 C           1.7500    1.6710    0.0000 C.2     1  LIG1        0.2644
     15 N           2.7630    1.6710    0.0000 N.am    1  LIG1       -0.2072
     16 C           3.2290    0.7750    0.0000 C.3     1  LIG1        0.0788
     17 C           4.1000    1.2460    0.0000 C.3     1  LIG1        0.0217
     18 C           2.5040    0.3290    0.0000 C.3     1  LIG1        0.0217
     19 C           3.6920    0.0420    0.0000 C.3     1  LIG1        0.0217
     20 O           1.2420    2.5500    0.0000 O.2     1  LIG1       -0.2712
     21 C          -0.0540    2.5790    0.0000 C.3     1  LIG1        0.0502
     22 C          -2.1500    1.9000    0.0000 C.2     1  LIG1        0.3420
     23 O          -2.0460    2.9080    0.0000 O.2     1  LIG1       -0.2449
     24 O          -3.0750    1.4880    0.0000 O.3     1  LIG1       -0.4454
     25 C          -3.1790    0.4790    0.0000 C.3     1  LIG1        0.2089
     26 C          -4.1040    0.0710    0.0000 C.3     1  LIG1        0.0513
@<TRIPOS>BOND
     1     1     2   ar
     2     1     5   ar
     3     1    22    1
     4     2     3   ar
     5     2    21    1
     6     3     4   ar
     7     3    13    1
     8     4     5   ar
     9     4     7    1
    10     5     6    1
    11     7     8   ar
    12     7    12   ar
    13     8     9   ar
    14     9    10   ar
    15    10    11   ar
    16    11    12   ar
    17    13    14    1
    18    14    15   am
    19    14    20    2
    20    15    16    1
    21    16    17    1
    22    16    18    1
    23    16    19    1
    24    22    23    2
    25    22    24    1
    26    24    25    1
    27    25    26    1
