@<TRIPOS>MOLECULE
38151_ChemDiv_C716-0893
 34 37 0 0 0
SMALL
GASTEIGER
Energy = 0

@<TRIPOS>ATOM
      1 C          -2.0500   -0.1830    0.0000 C.ar    1  LIG1        0.1869
      2 S          -2.9250    0.3170    0.0000 S.O2    1  LIG1        0.0335
      3 C          -3.8040    0.8170    0.0000 C.ar    1  LIG1        0.1105
      4 C          -3.8040    1.8170    0.0000 C.ar    1  LIG1        0.0184
      5 C          -4.6540    2.3210    0.0000 C.ar    1  LIG1       -0.0030
      6 C          -5.5330    1.8170    0.0000 C.ar    1  LIG1       -0.0227
      7 C          -6.3920    2.3210    0.0000 C.3     1  LIG1        0.0189
      8 C          -7.2670    2.8210    0.0000 C.3     1  LIG1        0.0044
      9 C          -6.8880    1.4540    0.0000 C.3     1  LIG1        0.0044
     10 C          -5.9080    3.1960    0.0000 C.3     1  LIG1        0.0044
     11 C          -5.5330    0.8170    0.0000 C.ar    1  LIG1       -0.0030
     12 C          -4.6540    0.3170    0.0000 C.ar    1  LIG1        0.0184
     13 O          -2.4290    1.1790    0.0000 O.2     1  LIG1       -0.1640
     14 O          -3.4250   -0.5540    0.0000 O.2     1  LIG1       -0.1640
     15 C          -1.2000    0.3170    0.0000 C.ar    1  LIG1        0.3001
     16 N          -0.3330   -0.1830    0.0000 N.ar    1  LIG1       -0.1816
     17 C          -0.3330   -1.1830    0.0000 C.ar    1  LIG1        0.1934
     18 N          -1.2000   -1.6790    0.0000 N.ar    1  LIG1       -0.2181
     19 C          -2.0500   -1.1830    0.0000 C.ar    1  LIG1        0.1247
     20 S           0.5290   -1.6790    0.0000 S.3     1  LIG1       -0.0657
     21 C           1.3920   -1.1830    0.0000 C.3     1  LIG1        0.1519
     22 C           2.2540   -1.6790    0.0000 C.2     1  LIG1        0.2570
     23 N           3.1250   -1.1960    0.0000 N.am    1  LIG1       -0.1784
     24 C           3.9880   -1.6960    0.0000 C.ar    1  LIG1        0.0766
     25 C           4.8420   -1.1960    0.0000 C.ar    1  LIG1        0.0568
     26 C           5.7170   -1.6790    0.0000 C.ar    1  LIG1        0.1777
     27 C           5.7210   -2.6920    0.0000 C.ar    1  LIG1        0.1765
     28 O           6.6750   -3.0000    0.0000 O.3     1  LIG1       -0.4346
     29 C           7.2670   -2.1750    0.0000 C.3     1  LIG1        0.4294
     30 O           6.6710   -1.3630    0.0000 O.3     1  LIG1       -0.4346
     31 C           4.8420   -3.1920    0.0000 C.ar    1  LIG1        0.0415
     32 C           3.9880   -2.6960    0.0000 C.ar    1  LIG1        0.0199
     33 O           2.2540   -2.6790    0.0000 O.2     1  LIG1       -0.2720
     34 O          -1.2000    1.3170    0.0000 O.2     1  LIG1       -0.2636
@<TRIPOS>BOND
     1     1     2    1
     2     1    15   ar
     3     1    19   ar
     4     2     3    1
     5     2    13    2
     6     2    14    2
     7     3     4   ar
     8     3    12   ar
     9     4     5   ar
    10     5     6   ar
    11     6     7    1
    12     6    11   ar
    13     7     8    1
    14     7     9    1
    15     7    10    1
    16    11    12   ar
    17    15    16   ar
    18    15    34    2
    19    16    17   ar
    20    17    18   ar
    21    17    20    1
    22    18    19   ar
    23    20    21    1
    24    21    22    1
    25    22    23   am
    26    22    33    2
    27    23    24    1
    28    24    25   ar
    29    24    32   ar
    30    25    26   ar
    31    26    27   ar
    32    26    30    1
    33    27    28    1
    34    27    31   ar
    35    28    29    1
    36    29    30    1
    37    31    32   ar
