@<TRIPOS>MOLECULE
38158_ChemDiv_E717-0254
 31 35 0 0 0
SMALL
GASTEIGER
Energy = 0

@<TRIPOS>ATOM
      1 C          -2.5290    0.5460    0.0000 C.ar    1  LIG1        0.1198
      2 C          -2.8290    1.4960    0.0000 C.ar    1  LIG1        0.0428
      3 C          -3.8290    1.4830    0.0000 C.ar    1  LIG1        0.0189
      4 C          -4.1290    0.5460    0.0000 C.ar    1  LIG1        0.0600
      5 N          -3.3130   -0.0500    0.0000 N.ar    1  LIG1       -0.3234
      6 C          -3.2880   -1.0500    0.0000 C.3     1  LIG1        0.1062
      7 C          -2.4130   -1.5250    0.0000 C.3     1  LIG1        0.0245
      8 C          -2.3960   -2.5250    0.0000 C.3     1  LIG1        0.0021
      9 C          -5.1040    0.3170    0.0000 C.ar    1  LIG1        0.0172
     10 C          -5.7830    1.0630    0.0000 C.ar    1  LIG1        0.0015
     11 C          -5.4710    2.0130    0.0000 C.ar    1  LIG1        0.0001
     12 C          -4.5000    2.2290    0.0000 C.ar    1  LIG1        0.0015
     13 C          -2.1630    2.2290    0.0000 C.ar    1  LIG1        0.1218
     14 N          -1.1830    2.0170    0.0000 N.ar    1  LIG1       -0.1647
     15 N          -0.8790    1.0630    0.0000 N.ar    1  LIG1       -0.2059
     16 C          -1.5500    0.3290    0.0000 C.ar    1  LIG1        0.2927
     17 O          -1.2500   -0.6420    0.0000 O.2     1  LIG1       -0.2639
     18 C           0.1080    0.8460    0.0000 C.3     1  LIG1        0.2153
     19 C           0.7830    1.5790    0.0000 C.2     1  LIG1        0.2506
     20 N           1.7540    1.3790    0.0000 N.am    1  LIG1       -0.2776
     21 C           2.2420    0.5130    0.0000 C.3     1  LIG1        0.0978
     22 C           3.2380    0.7170    0.0000 C.3     1  LIG1        0.0439
     23 C           3.3250    1.7130    0.0000 C.3     1  LIG1        0.0276
     24 C           2.4210    2.1130    0.0000 C.3     1  LIG1        0.0939
     25 C           4.0540    0.1460    0.0000 C.ar    1  LIG1       -0.0208
     26 C           3.9580   -0.8580    0.0000 C.ar    1  LIG1       -0.0042
     27 C           4.7790   -1.4250    0.0000 C.ar    1  LIG1       -0.0003
     28 C           5.6960   -1.0080    0.0000 C.ar    1  LIG1       -0.0000
     29 C           5.7790   -0.0040    0.0000 C.ar    1  LIG1       -0.0003
     30 C           4.9630    0.5790    0.0000 C.ar    1  LIG1       -0.0042
     31 O           0.4750    2.5290    0.0000 O.2     1  LIG1       -0.2727
@<TRIPOS>BOND
     1     1     2   ar
     2     1     5   ar
     3     1    16   ar
     4     2     3   ar
     5     2    13   ar
     6     3     4   ar
     7     3    12   ar
     8     4     5   ar
     9     4     9   ar
    10     5     6    1
    11     6     7    1
    12     7     8    1
    13     9    10   ar
    14    10    11   ar
    15    11    12   ar
    16    13    14   ar
    17    14    15   ar
    18    15    16   ar
    19    15    18    1
    20    16    17    2
    21    18    19    1
    22    19    20   am
    23    19    31    2
    24    20    21    1
    25    20    24    1
    26    21    22    1
    27    22    23    1
    28    22    25    1
    29    23    24    1
    30    25    26   ar
    31    25    30   ar
    32    26    27   ar
    33    27    28   ar
    34    28    29   ar
    35    29    30   ar
