@<TRIPOS>MOLECULE
38152_ChemDiv_C880-0670
 35 40 0 0 0
SMALL
GASTEIGER
Energy = 0

@<TRIPOS>ATOM
      1 C          -2.5880   -0.6750    0.0000 C.ar    1  LIG1        0.1200
      2 C          -3.1250    0.1670    0.0000 C.ar    1  LIG1        0.0428
      3 C          -4.0920   -0.0920    0.0000 C.ar    1  LIG1        0.0189
      4 C          -4.1420   -1.0880    0.0000 C.ar    1  LIG1        0.0603
      5 N          -3.2080   -1.4420    0.0000 N.ar    1  LIG1       -0.3191
      6 C          -2.9290   -2.4080    0.0000 C.3     1  LIG1        0.1329
      7 C          -1.9540   -2.6540    0.0000 C.ar    1  LIG1        0.0004
      8 C          -1.2580   -1.9380    0.0000 C.ar    1  LIG1       -0.0024
      9 C          -0.3040   -2.1750    0.0000 C.ar    1  LIG1       -0.0003
     10 C          -0.0250   -3.1290    0.0000 C.ar    1  LIG1       -0.0000
     11 C          -0.7210   -3.8540    0.0000 C.ar    1  LIG1       -0.0003
     12 C          -1.6880   -3.6040    0.0000 C.ar    1  LIG1       -0.0024
     13 C          -5.0330   -1.5420    0.0000 C.ar    1  LIG1        0.0172
     14 C          -5.8750   -0.9920    0.0000 C.ar    1  LIG1        0.0015
     15 C          -5.8250    0.0000    0.0000 C.ar    1  LIG1        0.0001
     16 C          -4.9250    0.4630    0.0000 C.ar    1  LIG1        0.0015
     17 C          -2.6540    1.0630    0.0000 C.ar    1  LIG1        0.1218
     18 N          -1.6540    1.1000    0.0000 N.ar    1  LIG1       -0.1647
     19 N          -1.1210    0.2630    0.0000 N.ar    1  LIG1       -0.2059
     20 C          -1.5880   -0.6250    0.0000 C.ar    1  LIG1        0.2927
     21 O          -1.0540   -1.4750    0.0000 O.2     1  LIG1       -0.2639
     22 C          -0.1210    0.3000    0.0000 C.3     1  LIG1        0.2169
     23 C           0.3500    1.1830    0.0000 C.2     1  LIG1        0.2667
     24 N           1.3500    1.2290    0.0000 N.am    1  LIG1       -0.1989
     25 C           1.8170    2.1130    0.0000 C.3     1  LIG1        0.1416
     26 C           2.8170    2.1630    0.0000 C.ar    1  LIG1        0.0027
     27 C           3.2880    3.0420    0.0000 C.ar    1  LIG1        0.0376
     28 C           4.2880    3.0920    0.0000 C.ar    1  LIG1        0.1762
     29 C           4.8210    2.2460    0.0000 C.ar    1  LIG1        0.1764
     30 O           5.7880    2.4960    0.0000 O.3     1  LIG1       -0.4346
     31 C           5.8710    3.4750    0.0000 C.3     1  LIG1        0.4294
     32 O           4.9380    3.8580    0.0000 O.3     1  LIG1       -0.4346
     33 C           4.3540    1.3630    0.0000 C.ar    1  LIG1        0.0399
     34 C           3.3540    1.3170    0.0000 C.ar    1  LIG1        0.0008
     35 O          -0.1880    2.0290    0.0000 O.2     1  LIG1       -0.2711
@<TRIPOS>BOND
     1     1     2   ar
     2     1     5   ar
     3     1    20   ar
     4     2     3   ar
     5     2    17   ar
     6     3     4   ar
     7     3    16   ar
     8     4     5   ar
     9     4    13   ar
    10     5     6    1
    11     6     7    1
    12     7     8   ar
    13     7    12   ar
    14     8     9   ar
    15     9    10   ar
    16    10    11   ar
    17    11    12   ar
    18    13    14   ar
    19    14    15   ar
    20    15    16   ar
    21    17    18   ar
    22    18    19   ar
    23    19    20   ar
    24    19    22    1
    25    20    21    2
    26    22    23    1
    27    23    24   am
    28    23    35    2
    29    24    25    1
    30    25    26    1
    31    26    27   ar
    32    26    34   ar
    33    27    28   ar
    34    28    29   ar
    35    28    32    1
    36    29    30    1
    37    29    33   ar
    38    30    31    1
    39    31    32    1
    40    33    34   ar
