@<TRIPOS>MOLECULE
38164_ChemDiv_C885-0169
 26 28 0 0 0
SMALL
GASTEIGER
Energy = 0

@<TRIPOS>ATOM
      1 N           4.0000   -0.7000    0.0000 N.ar    1  LIG1       -0.1690
      2 C           4.0040   -1.7040    0.0000 C.ar    1  LIG1        0.2006
      3 S           3.0580   -2.0170    0.0000 S.2     1  LIG1       -0.0129
      4 C           2.4540   -1.2040    0.0000 C.ar    1  LIG1        0.1855
      5 N           3.0460   -0.3920    0.0000 N.ar    1  LIG1       -0.1387
      6 N           1.4540   -1.2080    0.0000 N.pl3   1  LIG1       -0.2868
      7 C           0.9670   -2.0830    0.0000 C.3     1  LIG1        0.0932
      8 C          -0.0420   -2.0830    0.0000 C.3     1  LIG1        0.0307
      9 C          -0.5420   -1.2170    0.0000 C.3     1  LIG1        0.0816
     10 C          -1.5500   -1.2170    0.0000 C.2     1  LIG1        0.2410
     11 O          -2.0460   -2.0920    0.0000 O.2     1  LIG1       -0.2734
     12 N          -2.0460   -0.3630    0.0000 N.am    1  LIG1       -0.2053
     13 C          -3.1460   -0.3630    0.0000 C.3     1  LIG1        0.1177
     14 C          -3.5460    0.2750    0.0000 C.3     1  LIG1        0.0555
     15 C          -4.3420    0.3170    0.0000 C.3     1  LIG1        0.1440
     16 O          -4.8920    1.2420    0.0000 O.3     1  LIG1       -0.3537
     17 C          -5.9960    1.2380    0.0000 C.3     1  LIG1        0.1422
     18 C          -6.6000    2.2080    0.0000 C.3     1  LIG1        0.0346
     19 C          -0.0420   -0.3540    0.0000 C.3     1  LIG1        0.0307
     20 C           0.9500   -0.3540    0.0000 C.3     1  LIG1        0.0932
     21 N           4.8710   -2.2000    0.0000 N.ar    1  LIG1       -0.2250
     22 C           5.7330   -1.7040    0.0000 C.ar    1  LIG1        0.0663
     23 C           5.7330   -0.7000    0.0000 C.ar    1  LIG1        0.0773
     24 C           4.8710   -0.1830    0.0000 C.ar    1  LIG1        0.2834
     25 O           4.8710    0.8080    0.0000 O.2     1  LIG1       -0.2650
     26 C           6.6000   -2.2040    0.0000 C.3     1  LIG1        0.0523
@<TRIPOS>BOND
     1     1     2   ar
     2     1     5   ar
     3     1    24   ar
     4     2     3   ar
     5     2    21   ar
     6     3     4   ar
     7     4     5   ar
     8     4     6    1
     9     6     7    1
    10     6    20    1
    11     7     8    1
    12     8     9    1
    13     9    10    1
    14     9    19    1
    15    10    11    2
    16    10    12   am
    17    12    13    1
    18    13    14    1
    19    14    15    1
    20    15    16    1
    21    16    17    1
    22    17    18    1
    23    19    20    1
    24    21    22   ar
    25    22    23   ar
    26    22    26    1
    27    23    24   ar
    28    24    25    2
