@<TRIPOS>MOLECULE
38163_ChemDiv_C781-0117
 26 29 0 0 0
SMALL
GASTEIGER
Energy = 0

@<TRIPOS>ATOM
      1 C          -2.7920   -1.5420    0.0000 C.ar    1  LIG1        0.1904
      2 N          -3.3670   -2.3380    0.0000 N.ar    1  LIG1       -0.2181
      3 C          -4.3330   -2.0380    0.0000 C.ar    1  LIG1        0.1202
      4 C          -4.3330   -1.0290    0.0000 C.ar    1  LIG1        0.1042
      5 N          -3.3670   -0.7290    0.0000 N.ar    1  LIG1       -0.2196
      6 C          -5.1880   -0.5250    0.0000 C.ar    1  LIG1        0.0414
      7 C          -6.0580   -1.0290    0.0000 C.ar    1  LIG1        0.1005
      8 N          -6.0580   -2.0380    0.0000 N.ar    1  LIG1       -0.2406
      9 C          -5.1880   -2.5420    0.0000 C.ar    1  LIG1        0.1195
     10 S          -1.7960   -1.5540    0.0000 S.3     1  LIG1       -0.0709
     11 C          -1.2790   -0.6790    0.0000 C.3     1  LIG1        0.0913
     12 C          -0.2830   -0.6960    0.0000 C.ar    1  LIG1       -0.0109
     13 C           0.2290    0.1670    0.0000 C.ar    1  LIG1       -0.0033
     14 C           1.2250    0.1670    0.0000 C.ar    1  LIG1        0.0043
     15 C           1.7420   -0.7080    0.0000 C.ar    1  LIG1        0.0550
     16 C           2.7380   -0.7080    0.0000 C.2     1  LIG1        0.2651
     17 N           3.2500    0.1670    0.0000 N.am    1  LIG1       -0.1963
     18 C           4.2460    0.1670    0.0000 C.3     1  LIG1        0.1482
     19 C           4.7630    1.0460    0.0000 C.ar    1  LIG1        0.0290
     20 S           4.4580    1.9920    0.0000 S.2     1  LIG1       -0.0890
     21 C           5.2750    2.5460    0.0000 C.ar    1  LIG1        0.0352
     22 C           6.0580    1.9790    0.0000 C.ar    1  LIG1        0.0072
     23 C           5.7580    1.0250    0.0000 C.ar    1  LIG1        0.0044
     24 O           3.2500   -1.5540    0.0000 O.2     1  LIG1       -0.2684
     25 C           1.2250   -1.5540    0.0000 C.ar    1  LIG1        0.0043
     26 C           0.2290   -1.5540    0.0000 C.ar    1  LIG1       -0.0033
@<TRIPOS>BOND
     1     1     2   ar
     2     1     5   ar
     3     1    10    1
     4     2     3   ar
     5     3     4   ar
     6     3     9   ar
     7     4     5   ar
     8     4     6   ar
     9     6     7   ar
    10     7     8   ar
    11     8     9   ar
    12    10    11    1
    13    11    12    1
    14    12    13   ar
    15    12    26   ar
    16    13    14   ar
    17    14    15   ar
    18    15    16    1
    19    15    25   ar
    20    16    17   am
    21    16    24    2
    22    17    18    1
    23    18    19    1
    24    19    20   ar
    25    19    23   ar
    26    20    21   ar
    27    21    22   ar
    28    22    23   ar
    29    25    26   ar
