@<TRIPOS>MOLECULE
38167_ChemDiv_C781-0204
 31 34 0 0 0
SMALL
GASTEIGER
Energy = 0

@<TRIPOS>ATOM
      1 C          -3.6330   -2.0920    0.0000 C.ar    1  LIG1        0.1904
      2 N          -4.2040   -2.8830    0.0000 N.ar    1  LIG1       -0.2181
      3 C          -5.1670   -2.5830    0.0000 C.ar    1  LIG1        0.1202
      4 C          -5.1670   -1.5790    0.0000 C.ar    1  LIG1        0.1042
      5 N          -4.2040   -1.2790    0.0000 N.ar    1  LIG1       -0.2196
      6 C          -6.0170   -1.0790    0.0000 C.ar    1  LIG1        0.0414
      7 C          -6.8880   -1.5790    0.0000 C.ar    1  LIG1        0.1005
      8 N          -6.8880   -2.5830    0.0000 N.ar    1  LIG1       -0.2406
      9 C          -6.0170   -3.0830    0.0000 C.ar    1  LIG1        0.1195
     10 S          -2.6420   -2.1040    0.0000 S.3     1  LIG1       -0.0709
     11 C          -2.1290   -1.2290    0.0000 C.3     1  LIG1        0.0913
     12 C          -1.1380   -1.2500    0.0000 C.ar    1  LIG1       -0.0109
     13 C          -0.6290   -0.3790    0.0000 C.ar    1  LIG1       -0.0033
     14 C           0.3630   -0.3790    0.0000 C.ar    1  LIG1        0.0043
     15 C           0.8750   -1.2290    0.0000 C.ar    1  LIG1        0.0550
     16 C           1.8670   -1.2290    0.0000 C.2     1  LIG1        0.2648
     17 O           2.3790   -2.1040    0.0000 O.2     1  LIG1       -0.2684
     18 N           2.3790   -0.3580    0.0000 N.am    1  LIG1       -0.1998
     19 C           3.3710   -0.3580    0.0000 C.3     1  LIG1        0.1368
     20 C           3.8790    0.5130    0.0000 C.3     1  LIG1        0.1142
     21 N           4.8710    0.4830    0.0000 N.pl3   1  LIG1       -0.3057
     22 C           5.3830    1.3540    0.0000 C.ar    1  LIG1        0.0479
     23 C           6.3750    1.3540    0.0000 C.ar    1  LIG1        0.0145
     24 C           6.8880    2.2170    0.0000 C.ar    1  LIG1        0.0013
     25 C           6.3750    3.0880    0.0000 C.ar    1  LIG1        0.0001
     26 C           5.3830    3.0880    0.0000 C.ar    1  LIG1        0.0013
     27 C           4.8710    2.2170    0.0000 C.ar    1  LIG1        0.0145
     28 C           5.3830   -0.3790    0.0000 C.3     1  LIG1        0.0909
     29 C           4.8710   -1.2500    0.0000 C.3     1  LIG1        0.0232
     30 C           0.3630   -2.1040    0.0000 C.ar    1  LIG1        0.0043
     31 C          -0.6290   -2.1040    0.0000 C.ar    1  LIG1       -0.0033
@<TRIPOS>BOND
     1     1     2   ar
     2     1     5   ar
     3     1    10    1
     4     2     3   ar
     5     3     4   ar
     6     3     9   ar
     7     4     5   ar
     8     4     6   ar
     9     6     7   ar
    10     7     8   ar
    11     8     9   ar
    12    10    11    1
    13    11    12    1
    14    12    13   ar
    15    12    31   ar
    16    13    14   ar
    17    14    15   ar
    18    15    16    1
    19    15    30   ar
    20    16    17    2
    21    16    18   am
    22    18    19    1
    23    19    20    1
    24    20    21    1
    25    21    22    1
    26    21    28    1
    27    22    23   ar
    28    22    27   ar
    29    23    24   ar
    30    24    25   ar
    31    25    26   ar
    32    26    27   ar
    33    28    29    1
    34    30    31   ar
