@<TRIPOS>MOLECULE
38161_ChemDiv_C797-0050
 34 37 0 0 0
SMALL
GASTEIGER
Energy = 0

@<TRIPOS>ATOM
      1 C          -2.1500    3.8210    0.0000 C.ar    1  LIG1        0.1904
      2 N          -2.7500    4.6330    0.0000 N.ar    1  LIG1       -0.2196
      3 C          -3.6960    4.3130    0.0000 C.ar    1  LIG1        0.1042
      4 C          -3.6920    3.3170    0.0000 C.ar    1  LIG1        0.1202
      5 N          -2.7380    3.0130    0.0000 N.ar    1  LIG1       -0.2181
      6 C          -4.5710    2.8080    0.0000 C.ar    1  LIG1        0.1195
      7 N          -5.4330    3.3170    0.0000 N.ar    1  LIG1       -0.2406
      8 C          -5.4330    4.3040    0.0000 C.ar    1  LIG1        0.1005
      9 C          -4.5710    4.8130    0.0000 C.ar    1  LIG1        0.0414
     10 S          -1.1500    3.8330    0.0000 S.3     1  LIG1       -0.0709
     11 C          -0.6460    2.9710    0.0000 C.3     1  LIG1        0.0913
     12 C           0.3540    2.9710    0.0000 C.ar    1  LIG1       -0.0109
     13 C           0.8380    3.8380    0.0000 C.ar    1  LIG1       -0.0033
     14 C           1.8380    3.8500    0.0000 C.ar    1  LIG1        0.0043
     15 C           2.3500    2.9830    0.0000 C.ar    1  LIG1        0.0550
     16 C           3.3500    2.9880    0.0000 C.2     1  LIG1        0.2648
     17 O           3.8380    3.8630    0.0000 O.2     1  LIG1       -0.2684
     18 N           3.8540    2.1250    0.0000 N.am    1  LIG1       -0.2013
     19 C           3.3710    1.2580    0.0000 C.3     1  LIG1        0.1201
     20 C           3.8710    0.3920    0.0000 C.3     1  LIG1        0.0499
     21 C           3.3830   -0.4710    0.0000 C.ar    1  LIG1       -0.0172
     22 C           3.8960   -1.3290    0.0000 C.ar    1  LIG1        0.0358
     23 C           3.4080   -2.1960    0.0000 C.ar    1  LIG1        0.1719
     24 C           2.4000   -2.2130    0.0000 C.ar    1  LIG1        0.1722
     25 C           1.8960   -1.3500    0.0000 C.ar    1  LIG1        0.0397
     26 C           2.3830   -0.4790    0.0000 C.ar    1  LIG1       -0.0009
     27 O           1.9130   -3.0880    0.0000 O.3     1  LIG1       -0.4724
     28 C           1.4290   -3.9540    0.0000 C.3     1  LIG1        0.2057
     29 C           1.9420   -4.8130    0.0000 C.3     1  LIG1        0.0512
     30 O           3.9170   -3.0630    0.0000 O.3     1  LIG1       -0.4724
     31 C           4.4290   -3.9080    0.0000 C.3     1  LIG1        0.2057
     32 C           5.4290   -3.8960    0.0000 C.3     1  LIG1        0.0512
     33 C           1.8540    2.1130    0.0000 C.ar    1  LIG1        0.0043
     34 C           0.8540    2.1040    0.0000 C.ar    1  LIG1       -0.0033
@<TRIPOS>BOND
     1     1     2   ar
     2     1     5   ar
     3     1    10    1
     4     2     3   ar
     5     3     4   ar
     6     3     9   ar
     7     4     5   ar
     8     4     6   ar
     9     6     7   ar
    10     7     8   ar
    11     8     9   ar
    12    10    11    1
    13    11    12    1
    14    12    13   ar
    15    12    34   ar
    16    13    14   ar
    17    14    15   ar
    18    15    16    1
    19    15    33   ar
    20    16    17    2
    21    16    18   am
    22    18    19    1
    23    19    20    1
    24    20    21    1
    25    21    22   ar
    26    21    26   ar
    27    22    23   ar
    28    23    24   ar
    29    23    30    1
    30    24    25   ar
    31    24    27    1
    32    25    26   ar
    33    27    28    1
    34    28    29    1
    35    30    31    1
    36    31    32    1
    37    33    34   ar
