@<TRIPOS>MOLECULE
38160_ChemDiv_E721-0034
 24 26 0 0 0
SMALL
GASTEIGER
Energy = 0

@<TRIPOS>ATOM
      1 C          -1.4130    0.7290    0.0000 C.ar    1  LIG1        0.1199
      2 C          -1.7130    1.6790    0.0000 C.ar    1  LIG1        0.0428
      3 C          -2.7130    1.6790    0.0000 C.ar    1  LIG1        0.0189
      4 C          -3.0330    0.7420    0.0000 C.ar    1  LIG1        0.0601
      5 N          -2.2290    0.1380    0.0000 N.ar    1  LIG1       -0.3214
      6 C          -2.2290   -0.8580    0.0000 C.3     1  LIG1        0.1306
      7 C          -4.0170    0.5460    0.0000 C.ar    1  LIG1        0.0172
      8 C          -4.6750    1.3000    0.0000 C.ar    1  LIG1        0.0015
      9 C          -4.3580    2.2380    0.0000 C.ar    1  LIG1        0.0001
     10 C          -3.3750    2.4330    0.0000 C.ar    1  LIG1        0.0015
     11 C          -1.0380    2.4210    0.0000 C.ar    1  LIG1        0.1219
     12 N          -0.0710    2.2080    0.0000 N.ar    1  LIG1       -0.1635
     13 N           0.2460    1.2540    0.0000 N.ar    1  LIG1       -0.1926
     14 C          -0.4290    0.5170    0.0000 C.ar    1  LIG1        0.2938
     15 O          -0.1290   -0.4380    0.0000 O.2     1  LIG1       -0.2639
     16 C           1.2330    1.0580    0.0000 C.3     1  LIG1        0.2465
     17 N           1.8920    1.8170    0.0000 N.am    1  LIG1       -0.1603
     18 C           2.8750    1.6210    0.0000 C.2     1  LIG1        0.3411
     19 O           3.5290    2.3880    0.0000 O.2     1  LIG1       -0.2491
     20 N           3.1960    0.6830    0.0000 N.am    1  LIG1       -0.1845
     21 C           3.1040   -0.3000    0.0000 C.3     1  LIG1        0.1488
     22 C           3.9290   -0.8750    0.0000 C.3     1  LIG1        0.1657
     23 O           3.8460   -1.8670    0.0000 O.3     1  LIG1       -0.3492
     24 C           4.6710   -2.4290    0.0000 C.3     1  LIG1        0.1742
@<TRIPOS>BOND
     1     1     2   ar
     2     1     5   ar
     3     1    14   ar
     4     2     3   ar
     5     2    11   ar
     6     3     4   ar
     7     3    10   ar
     8     4     5   ar
     9     4     7   ar
    10     5     6    1
    11     7     8   ar
    12     8     9   ar
    13     9    10   ar
    14    11    12   ar
    15    12    13   ar
    16    13    14   ar
    17    13    16    1
    18    14    15    2
    19    16    17    1
    20    17    18   am
    21    18    19    2
    22    18    20   am
    23    20    21    1
    24    21    22    1
    25    22    23    1
    26    23    24    1
